MODEL 1
REMARK VINA RESULT:      -8.2      0.000      0.000
REMARK  Name = 
REMARK  6 active torsions:
REMARK  status: ('A' for Active; 'I' for Inactive)
REMARK    1  A    between atoms: C_1  and  N_2
REMARK    2  A    between atoms: N_2  and  C_3
REMARK    3  A    between atoms: N_2  and  C_4
REMARK    4  A    between atoms: C_8  and  C_9
REMARK    5  A    between atoms: N_15  and  C_16
REMARK    6  A    between atoms: C_16  and  C_17
REMARK                            x       y       z     vdW  Elec       q    Type
REMARK                         _______ _______ _______ _____ _____    ______ ____
ROOT
ATOM      1  C   UNL     1       3.758   3.534  18.008  0.00  0.00    +0.000 A 
ATOM      2  C   UNL     1       3.244   2.236  18.011  0.00  0.00    +0.000 A 
ATOM      3  N   UNL     1       2.165   2.087  18.863  0.00  0.00    +0.000 NA
ATOM      4  C   UNL     1       2.038   3.280  19.363  0.00  0.00    +0.000 A 
ATOM      5  S   UNL     1       0.997   4.017  20.504  0.00  0.00    +0.000 S 
ATOM      6  C   UNL     1       1.899   5.524  20.190  0.00  0.00    +0.000 A 
ATOM      7  N   UNL     1       1.479   6.620  20.876  0.00  0.00    +0.000 N 
ATOM      8  N   UNL     1       2.878   5.474  19.335  0.00  0.00    +0.000 NA
ATOM      9  N   UNL     1       2.932   4.187  18.893  0.00  0.00    +0.000 N 
ATOM     10  H   UNL     1       0.694   6.500  21.505  0.00  0.00    +0.000 HD
ENDROOT
BRANCH   1  15
ATOM     11  C   UNL     1       6.840   5.635  17.204  0.00  0.00    +0.000 A 
ATOM     12  C   UNL     1       6.966   5.317  15.843  0.00  0.00    +0.000 A 
ATOM     13  C   UNL     1       6.107   4.411  15.211  0.00  0.00    +0.000 A 
ATOM     14  C   UNL     1       5.072   3.814  15.925  0.00  0.00    +0.000 A 
ATOM     15  C   UNL     1       4.883   4.118  17.275  0.00  0.00    +0.000 A 
ATOM     16  C   UNL     1       5.772   5.018  17.887  0.00  0.00    +0.000 A 
BRANCH  11  18
ATOM     17  C   UNL     1       8.191   6.251  19.185  0.00  0.00    +0.000 C 
ATOM     18  N   UNL     1       7.692   6.536  17.845  0.00  0.00    +0.000 N 
ATOM     19  C   UNL     1       7.682   7.936  17.425  0.00  0.00    +0.000 C 
ENDBRANCH  11  18
ENDBRANCH   1  15
BRANCH   7  20
ATOM     20  C   UNL     1       1.773   7.971  20.466  0.00  0.00    +0.000 C 
BRANCH  20  21
ATOM     21  C   UNL     1       0.835   8.941  21.128  0.00  0.00    +0.000 A 
ATOM     22  C   UNL     1       0.588   8.865  22.504  0.00  0.00    +0.000 A 
ATOM     23  C   UNL     1      -0.254   9.798  23.083  0.00  0.00    +0.000 A 
ATOM     24  N   UNL     1      -0.855  10.794  22.398  0.00  0.00    +0.000 NA
ATOM     25  C   UNL     1      -0.605  10.854  21.073  0.00  0.00    +0.000 A 
ATOM     26  C   UNL     1       0.219   9.965  20.402  0.00  0.00    +0.000 A 
ENDBRANCH  20  21
ENDBRANCH   7  20
TORSDOF 4
ENDMDL
MODEL 2
REMARK VINA RESULT:      -8.1      1.235      2.441
REMARK  Name = 
REMARK  6 active torsions:
REMARK  status: ('A' for Active; 'I' for Inactive)
REMARK    1  A    between atoms: C_1  and  N_2
REMARK    2  A    between atoms: N_2  and  C_3
REMARK    3  A    between atoms: N_2  and  C_4
REMARK    4  A    between atoms: C_8  and  C_9
REMARK    5  A    between atoms: N_15  and  C_16
REMARK    6  A    between atoms: C_16  and  C_17
REMARK                            x       y       z     vdW  Elec       q    Type
REMARK                         _______ _______ _______ _____ _____    ______ ____
ROOT
ATOM      1  C   UNL     1       3.986   3.407  18.107  0.00  0.00    +0.000 A 
ATOM      2  C   UNL     1       3.464   2.112  18.124  0.00  0.00    +0.000 A 
ATOM      3  N   UNL     1       2.343   1.995  18.924  0.00  0.00    +0.000 NA
ATOM      4  C   UNL     1       2.198   3.204  19.380  0.00  0.00    +0.000 A 
ATOM      5  S   UNL     1       1.106   3.981  20.443  0.00  0.00    +0.000 S 
ATOM      6  C   UNL     1       2.032   5.473  20.129  0.00  0.00    +0.000 A 
ATOM      7  N   UNL     1       1.584   6.591  20.758  0.00  0.00    +0.000 N 
ATOM      8  N   UNL     1       3.052   5.391  19.326  0.00  0.00    +0.000 NA
ATOM      9  N   UNL     1       3.120   4.091  18.928  0.00  0.00    +0.000 N 
ATOM     10  H   UNL     1       0.769   6.496  21.350  0.00  0.00    +0.000 HD
ENDROOT
BRANCH   1  15
ATOM     11  C   UNL     1       6.423   4.337  15.322  0.00  0.00    +0.000 A 
ATOM     12  C   UNL     1       7.427   4.927  16.104  0.00  0.00    +0.000 A 
ATOM     13  C   UNL     1       7.301   5.063  17.491  0.00  0.00    +0.000 A 
ATOM     14  C   UNL     1       6.167   4.585  18.141  0.00  0.00    +0.000 A 
ATOM     15  C   UNL     1       5.150   3.962  17.413  0.00  0.00    +0.000 A 
ATOM     16  C   UNL     1       5.296   3.855  16.019  0.00  0.00    +0.000 A 
BRANCH  11  18
ATOM     17  C   UNL     1       7.515   4.983  13.195  0.00  0.00    +0.000 C 
ATOM     18  N   UNL     1       6.537   4.196  13.937  0.00  0.00    +0.000 N 
ATOM     19  C   UNL     1       5.396   3.676  13.185  0.00  0.00    +0.000 C 
ENDBRANCH  11  18
ENDBRANCH   1  15
BRANCH   7  20
ATOM     20  C   UNL     1       1.908   7.927  20.322  0.00  0.00    +0.000 C 
BRANCH  20  21
ATOM     21  C   UNL     1       0.986   8.930  20.959  0.00  0.00    +0.000 A 
ATOM     22  C   UNL     1       0.302   9.866  20.174  0.00  0.00    +0.000 A 
ATOM     23  C   UNL     1      -0.564  10.750  20.794  0.00  0.00    +0.000 A 
ATOM     24  N   UNL     1      -0.799  10.763  22.123  0.00  0.00    +0.000 NA
ATOM     25  C   UNL     1      -0.132   9.854  22.865  0.00  0.00    +0.000 A 
ATOM     26  C   UNL     1       0.758   8.931  22.339  0.00  0.00    +0.000 A 
ENDBRANCH  20  21
ENDBRANCH   7  20
TORSDOF 4
ENDMDL
MODEL 3
REMARK VINA RESULT:      -8.1      1.217      2.196
REMARK  Name = 
REMARK  6 active torsions:
REMARK  status: ('A' for Active; 'I' for Inactive)
REMARK    1  A    between atoms: C_1  and  N_2
REMARK    2  A    between atoms: N_2  and  C_3
REMARK    3  A    between atoms: N_2  and  C_4
REMARK    4  A    between atoms: C_8  and  C_9
REMARK    5  A    between atoms: N_15  and  C_16
REMARK    6  A    between atoms: C_16  and  C_17
REMARK                            x       y       z     vdW  Elec       q    Type
REMARK                         _______ _______ _______ _____ _____    ______ ____
ROOT
ATOM      1  C   UNL     1       4.012   3.540  18.180  0.00  0.00    +0.000 A 
ATOM      2  C   UNL     1       3.519   2.234  18.207  0.00  0.00    +0.000 A 
ATOM      3  N   UNL     1       2.393   2.101  18.998  0.00  0.00    +0.000 NA
ATOM      4  C   UNL     1       2.218   3.311  19.439  0.00  0.00    +0.000 A 
ATOM      5  S   UNL     1       1.098   4.075  20.483  0.00  0.00    +0.000 S 
ATOM      6  C   UNL     1       1.994   5.584  20.161  0.00  0.00    +0.000 A 
ATOM      7  N   UNL     1       1.517   6.699  20.774  0.00  0.00    +0.000 N 
ATOM      8  N   UNL     1       3.024   5.516  19.369  0.00  0.00    +0.000 NA
ATOM      9  N   UNL     1       3.124   4.213  18.986  0.00  0.00    +0.000 N 
ATOM     10  H   UNL     1       0.697   6.592  21.359  0.00  0.00    +0.000 HD
ENDROOT
BRANCH   1  15
ATOM     11  C   UNL     1       6.390   4.605  15.393  0.00  0.00    +0.000 A 
ATOM     12  C   UNL     1       7.434   5.109  16.183  0.00  0.00    +0.000 A 
ATOM     13  C   UNL     1       7.354   5.148  17.579  0.00  0.00    +0.000 A 
ATOM     14  C   UNL     1       6.227   4.654  18.230  0.00  0.00    +0.000 A 
ATOM     15  C   UNL     1       5.171   4.113  17.492  0.00  0.00    +0.000 A 
ATOM     16  C   UNL     1       5.272   4.103  16.090  0.00  0.00    +0.000 A 
BRANCH  11  18
ATOM     17  C   UNL     1       5.658   3.600  13.251  0.00  0.00    +0.000 C 
ATOM     18  N   UNL     1       6.459   4.563  13.999  0.00  0.00    +0.000 N 
ATOM     19  C   UNL     1       7.648   5.094  13.335  0.00  0.00    +0.000 C 
ENDBRANCH  11  18
ENDBRANCH   1  15
BRANCH   7  20
ATOM     20  C   UNL     1       1.815   8.037  20.325  0.00  0.00    +0.000 C 
BRANCH  20  21
ATOM     21  C   UNL     1       1.054   9.049  21.137  0.00  0.00    +0.000 A 
ATOM     22  C   UNL     1       0.578   8.724  22.413  0.00  0.00    +0.000 A 
ATOM     23  C   UNL     1      -0.087   9.694  23.143  0.00  0.00    +0.000 A 
ATOM     24  N   UNL     1      -0.303  10.951  22.700  0.00  0.00    +0.000 NA
ATOM     25  C   UNL     1       0.163  11.247  21.469  0.00  0.00    +0.000 A 
ATOM     26  C   UNL     1       0.837  10.346  20.660  0.00  0.00    +0.000 A 
ENDBRANCH  20  21
ENDBRANCH   7  20
TORSDOF 4
ENDMDL
MODEL 4
REMARK VINA RESULT:      -7.9      1.659      6.857
REMARK  Name = 
REMARK  6 active torsions:
REMARK  status: ('A' for Active; 'I' for Inactive)
REMARK    1  A    between atoms: C_1  and  N_2
REMARK    2  A    between atoms: N_2  and  C_3
REMARK    3  A    between atoms: N_2  and  C_4
REMARK    4  A    between atoms: C_8  and  C_9
REMARK    5  A    between atoms: N_15  and  C_16
REMARK    6  A    between atoms: C_16  and  C_17
REMARK                            x       y       z     vdW  Elec       q    Type
REMARK                         _______ _______ _______ _____ _____    ______ ____
ROOT
ATOM      1  C   UNL     1       2.337   5.729  19.910  0.00  0.00    +0.000 A 
ATOM      2  C   UNL     1       1.886   5.011  21.019  0.00  0.00    +0.000 A 
ATOM      3  N   UNL     1       2.358   3.712  21.048  0.00  0.00    +0.000 NA
ATOM      4  C   UNL     1       3.081   3.655  19.969  0.00  0.00    +0.000 A 
ATOM      5  S   UNL     1       4.016   2.450  19.193  0.00  0.00    +0.000 S 
ATOM      6  C   UNL     1       4.398   3.689  17.968  0.00  0.00    +0.000 A 
ATOM      7  N   UNL     1       5.225   3.295  16.964  0.00  0.00    +0.000 N 
ATOM      8  N   UNL     1       3.872   4.869  18.120  0.00  0.00    +0.000 NA
ATOM      9  N   UNL     1       3.128   4.810  19.258  0.00  0.00    +0.000 N 
ATOM     10  H   UNL     1       5.559   2.339  16.987  0.00  0.00    +0.000 HD
ENDROOT
BRANCH   1  15
ATOM     11  C   UNL     1       1.177   9.363  19.973  0.00  0.00    +0.000 A 
ATOM     12  C   UNL     1       1.479   9.708  18.647  0.00  0.00    +0.000 A 
ATOM     13  C   UNL     1       2.086   8.804  17.767  0.00  0.00    +0.000 A 
ATOM     14  C   UNL     1       2.385   7.511  18.187  0.00  0.00    +0.000 A 
ATOM     15  C   UNL     1       2.077   7.107  19.488  0.00  0.00    +0.000 A 
ATOM     16  C   UNL     1       1.483   8.041  20.355  0.00  0.00    +0.000 A 
BRANCH  11  18
ATOM     17  C   UNL     1       0.244   9.837  22.217  0.00  0.00    +0.000 C 
ATOM     18  N   UNL     1       0.572  10.256  20.860  0.00  0.00    +0.000 N 
ATOM     19  C   UNL     1      -0.171  11.392  20.318  0.00  0.00    +0.000 C 
ENDBRANCH  11  18
ENDBRANCH   1  15
BRANCH   7  20
ATOM     20  C   UNL     1       5.974   4.218  16.148  0.00  0.00    +0.000 C 
BRANCH  20  21
ATOM     21  C   UNL     1       6.750   5.176  17.008  0.00  0.00    +0.000 A 
ATOM     22  C   UNL     1       6.749   6.547  16.723  0.00  0.00    +0.000 A 
ATOM     23  C   UNL     1       7.447   7.402  17.558  0.00  0.00    +0.000 A 
ATOM     24  N   UNL     1       8.130   6.994  18.649  0.00  0.00    +0.000 NA
ATOM     25  C   UNL     1       8.119   5.670  18.910  0.00  0.00    +0.000 A 
ATOM     26  C   UNL     1       7.455   4.736  18.132  0.00  0.00    +0.000 A 
ENDBRANCH  20  21
ENDBRANCH   7  20
TORSDOF 4
ENDMDL
MODEL 5
REMARK VINA RESULT:      -7.9      1.674      6.791
REMARK  Name = 
REMARK  6 active torsions:
REMARK  status: ('A' for Active; 'I' for Inactive)
REMARK    1  A    between atoms: C_1  and  N_2
REMARK    2  A    between atoms: N_2  and  C_3
REMARK    3  A    between atoms: N_2  and  C_4
REMARK    4  A    between atoms: C_8  and  C_9
REMARK    5  A    between atoms: N_15  and  C_16
REMARK    6  A    between atoms: C_16  and  C_17
REMARK                            x       y       z     vdW  Elec       q    Type
REMARK                         _______ _______ _______ _____ _____    ______ ____
ROOT
ATOM      1  C   UNL     1       2.336   5.687  19.932  0.00  0.00    +0.000 A 
ATOM      2  C   UNL     1       1.881   4.954  21.030  0.00  0.00    +0.000 A 
ATOM      3  N   UNL     1       2.361   3.658  21.048  0.00  0.00    +0.000 NA
ATOM      4  C   UNL     1       3.092   3.616  19.973  0.00  0.00    +0.000 A 
ATOM      5  S   UNL     1       4.039   2.426  19.191  0.00  0.00    +0.000 S 
ATOM      6  C   UNL     1       4.422   3.680  17.982  0.00  0.00    +0.000 A 
ATOM      7  N   UNL     1       5.258   3.302  16.980  0.00  0.00    +0.000 N 
ATOM      8  N   UNL     1       3.888   4.856  18.144  0.00  0.00    +0.000 NA
ATOM      9  N   UNL     1       3.136   4.780  19.276  0.00  0.00    +0.000 N 
ATOM     10  H   UNL     1       5.598   2.348  16.994  0.00  0.00    +0.000 HD
ENDROOT
BRANCH   1  15
ATOM     11  C   UNL     1       1.201   9.328  20.046  0.00  0.00    +0.000 A 
ATOM     12  C   UNL     1       1.463   9.676  18.712  0.00  0.00    +0.000 A 
ATOM     13  C   UNL     1       2.036   8.772  17.810  0.00  0.00    +0.000 A 
ATOM     14  C   UNL     1       2.340   7.476  18.216  0.00  0.00    +0.000 A 
ATOM     15  C   UNL     1       2.071   7.068  19.524  0.00  0.00    +0.000 A 
ATOM     16  C   UNL     1       1.511   8.002  20.413  0.00  0.00    +0.000 A 
BRANCH  11  18
ATOM     17  C   UNL     1       0.812  11.658  20.788  0.00  0.00    +0.000 C 
ATOM     18  N   UNL     1       0.630  10.221  20.955  0.00  0.00    +0.000 N 
ATOM     19  C   UNL     1       0.301   9.746  22.297  0.00  0.00    +0.000 C 
ENDBRANCH  11  18
ENDBRANCH   1  15
BRANCH   7  20
ATOM     20  C   UNL     1       6.008   4.238  16.179  0.00  0.00    +0.000 C 
BRANCH  20  21
ATOM     21  C   UNL     1       6.734   5.221  17.055  0.00  0.00    +0.000 A 
ATOM     22  C   UNL     1       7.451   4.781  18.175  0.00  0.00    +0.000 A 
ATOM     23  C   UNL     1       8.135   5.712  18.936  0.00  0.00    +0.000 A 
ATOM     24  N   UNL     1       8.161   7.034  18.661  0.00  0.00    +0.000 NA
ATOM     25  C   UNL     1       7.467   7.441  17.578  0.00  0.00    +0.000 A 
ATOM     26  C   UNL     1       6.748   6.587  16.757  0.00  0.00    +0.000 A 
ENDBRANCH  20  21
ENDBRANCH   7  20
TORSDOF 4
ENDMDL
MODEL 6
REMARK VINA RESULT:      -7.8      2.272      7.926
REMARK  Name = 
REMARK  6 active torsions:
REMARK  status: ('A' for Active; 'I' for Inactive)
REMARK    1  A    between atoms: C_1  and  N_2
REMARK    2  A    between atoms: N_2  and  C_3
REMARK    3  A    between atoms: N_2  and  C_4
REMARK    4  A    between atoms: C_8  and  C_9
REMARK    5  A    between atoms: N_15  and  C_16
REMARK    6  A    between atoms: C_16  and  C_17
REMARK                            x       y       z     vdW  Elec       q    Type
REMARK                         _______ _______ _______ _____ _____    ______ ____
ROOT
ATOM      1  C   UNL     1       2.462   5.911  19.786  0.00  0.00    +0.000 A 
ATOM      2  C   UNL     1       1.998   5.069  20.799  0.00  0.00    +0.000 A 
ATOM      3  N   UNL     1       2.586   3.818  20.770  0.00  0.00    +0.000 NA
ATOM      4  C   UNL     1       3.389   3.911  19.751  0.00  0.00    +0.000 A 
ATOM      5  S   UNL     1       4.486   2.859  18.967  0.00  0.00    +0.000 S 
ATOM      6  C   UNL     1       4.841   4.221  17.871  0.00  0.00    +0.000 A 
ATOM      7  N   UNL     1       5.773   3.983  16.911  0.00  0.00    +0.000 N 
ATOM      8  N   UNL     1       4.198   5.335  18.067  0.00  0.00    +0.000 NA
ATOM      9  N   UNL     1       3.380   5.120  19.135  0.00  0.00    +0.000 N 
ATOM     10  H   UNL     1       6.192   3.061  16.890  0.00  0.00    +0.000 HD
ENDROOT
BRANCH   1  15
ATOM     11  C   UNL     1       1.118   9.469  20.092  0.00  0.00    +0.000 A 
ATOM     12  C   UNL     1       1.328   9.891  18.770  0.00  0.00    +0.000 A 
ATOM     13  C   UNL     1       1.932   9.065  17.816  0.00  0.00    +0.000 A 
ATOM     14  C   UNL     1       2.321   7.772  18.155  0.00  0.00    +0.000 A 
ATOM     15  C   UNL     1       2.107   7.291  19.448  0.00  0.00    +0.000 A 
ATOM     16  C   UNL     1       1.514   8.149  20.391  0.00  0.00    +0.000 A 
BRANCH  11  18
ATOM     17  C   UNL     1       0.639  11.735  20.967  0.00  0.00    +0.000 C 
ATOM     18  N   UNL     1       0.518  10.285  21.053  0.00  0.00    +0.000 N 
ATOM     19  C   UNL     1       0.218   9.721  22.367  0.00  0.00    +0.000 C 
ENDBRANCH  11  18
ENDBRANCH   1  15
BRANCH   7  20
ATOM     20  C   UNL     1       6.491   5.031  16.229  0.00  0.00    +0.000 C 
BRANCH  20  21
ATOM     21  C   UNL     1       6.628   4.713  14.766  0.00  0.00    +0.000 A 
ATOM     22  C   UNL     1       7.616   5.335  13.993  0.00  0.00    +0.000 A 
ATOM     23  C   UNL     1       7.733   4.990  12.658  0.00  0.00    +0.000 A 
ATOM     24  N   UNL     1       6.950   4.076  12.047  0.00  0.00    +0.000 NA
ATOM     25  C   UNL     1       6.004   3.485  12.807  0.00  0.00    +0.000 A 
ATOM     26  C   UNL     1       5.806   3.765  14.149  0.00  0.00    +0.000 A 
ENDBRANCH  20  21
ENDBRANCH   7  20
TORSDOF 4
ENDMDL
MODEL 7
REMARK VINA RESULT:      -7.6      1.123      1.433
REMARK  Name = 
REMARK  6 active torsions:
REMARK  status: ('A' for Active; 'I' for Inactive)
REMARK    1  A    between atoms: C_1  and  N_2
REMARK    2  A    between atoms: N_2  and  C_3
REMARK    3  A    between atoms: N_2  and  C_4
REMARK    4  A    between atoms: C_8  and  C_9
REMARK    5  A    between atoms: N_15  and  C_16
REMARK    6  A    between atoms: C_16  and  C_17
REMARK                            x       y       z     vdW  Elec       q    Type
REMARK                         _______ _______ _______ _____ _____    ______ ____
ROOT
ATOM      1  C   UNL     1       3.507   3.701  17.720  0.00  0.00    +0.000 A 
ATOM      2  C   UNL     1       2.804   2.512  17.515  0.00  0.00    +0.000 A 
ATOM      3  N   UNL     1       1.699   2.393  18.336  0.00  0.00    +0.000 NA
ATOM      4  C   UNL     1       1.742   3.495  19.024  0.00  0.00    +0.000 A 
ATOM      5  S   UNL     1       0.801   4.188  20.274  0.00  0.00    +0.000 S 
ATOM      6  C   UNL     1       1.925   5.572  20.204  0.00  0.00    +0.000 A 
ATOM      7  N   UNL     1       1.660   6.594  21.061  0.00  0.00    +0.000 N 
ATOM      8  N   UNL     1       2.902   5.512  19.348  0.00  0.00    +0.000 NA
ATOM      9  N   UNL     1       2.771   4.320  18.703  0.00  0.00    +0.000 N 
ATOM     10  H   UNL     1       0.854   6.495  21.666  0.00  0.00    +0.000 HD
ENDROOT
BRANCH   1  15
ATOM     11  C   UNL     1       6.788   5.580  17.202  0.00  0.00    +0.000 A 
ATOM     12  C   UNL     1       6.985   5.296  15.842  0.00  0.00    +0.000 A 
ATOM     13  C   UNL     1       6.107   4.479  15.121  0.00  0.00    +0.000 A 
ATOM     14  C   UNL     1       4.982   3.942  15.742  0.00  0.00    +0.000 A 
ATOM     15  C   UNL     1       4.722   4.218  17.086  0.00  0.00    +0.000 A 
ATOM     16  C   UNL     1       5.631   5.028  17.789  0.00  0.00    +0.000 A 
BRANCH  11  18
ATOM     17  C   UNL     1       8.088   5.998  19.267  0.00  0.00    +0.000 C 
ATOM     18  N   UNL     1       7.658   6.393  17.931  0.00  0.00    +0.000 N 
ATOM     19  C   UNL     1       7.736   7.815  17.603  0.00  0.00    +0.000 C 
ENDBRANCH  11  18
ENDBRANCH   1  15
BRANCH   7  20
ATOM     20  C   UNL     1       2.162   7.933  20.873  0.00  0.00    +0.000 C 
BRANCH  20  21
ATOM     21  C   UNL     1       1.206   8.746  20.046  0.00  0.00    +0.000 A 
ATOM     22  C   UNL     1       0.083   9.339  20.635  0.00  0.00    +0.000 A 
ATOM     23  C   UNL     1      -0.755  10.109  19.847  0.00  0.00    +0.000 A 
ATOM     24  N   UNL     1      -0.552  10.332  18.531  0.00  0.00    +0.000 NA
ATOM     25  C   UNL     1       0.536   9.755  17.980  0.00  0.00    +0.000 A 
ATOM     26  C   UNL     1       1.430   8.965  18.683  0.00  0.00    +0.000 A 
ENDBRANCH  20  21
ENDBRANCH   7  20
TORSDOF 4
ENDMDL
MODEL 8
REMARK VINA RESULT:      -7.5      1.612      2.560
REMARK  Name = 
REMARK  6 active torsions:
REMARK  status: ('A' for Active; 'I' for Inactive)
REMARK    1  A    between atoms: C_1  and  N_2
REMARK    2  A    between atoms: N_2  and  C_3
REMARK    3  A    between atoms: N_2  and  C_4
REMARK    4  A    between atoms: C_8  and  C_9
REMARK    5  A    between atoms: N_15  and  C_16
REMARK    6  A    between atoms: C_16  and  C_17
REMARK                            x       y       z     vdW  Elec       q    Type
REMARK                         _______ _______ _______ _____ _____    ______ ____
ROOT
ATOM      1  C   UNL     1       3.797   3.552  17.848  0.00  0.00    +0.000 A 
ATOM      2  C   UNL     1       3.116   2.345  17.676  0.00  0.00    +0.000 A 
ATOM      3  N   UNL     1       1.962   2.266  18.432  0.00  0.00    +0.000 NA
ATOM      4  C   UNL     1       1.955   3.411  19.050  0.00  0.00    +0.000 A 
ATOM      5  S   UNL     1       0.933   4.171  20.191  0.00  0.00    +0.000 S 
ATOM      6  C   UNL     1       2.050   5.559  20.104  0.00  0.00    +0.000 A 
ATOM      7  N   UNL     1       1.725   6.631  20.875  0.00  0.00    +0.000 N 
ATOM      8  N   UNL     1       3.080   5.456  19.316  0.00  0.00    +0.000 NA
ATOM      9  N   UNL     1       2.997   4.224  18.741  0.00  0.00    +0.000 N 
ATOM     10  H   UNL     1       0.884   6.562  21.434  0.00  0.00    +0.000 HD
ENDROOT
BRANCH   1  15
ATOM     11  C   UNL     1       6.433   4.517  15.263  0.00  0.00    +0.000 A 
ATOM     12  C   UNL     1       7.471   4.870  16.137  0.00  0.00    +0.000 A 
ATOM     13  C   UNL     1       7.311   4.842  17.527  0.00  0.00    +0.000 A 
ATOM     14  C   UNL     1       6.103   4.432  18.084  0.00  0.00    +0.000 A 
ATOM     15  C   UNL     1       5.047   4.040  17.259  0.00  0.00    +0.000 A 
ATOM     16  C   UNL     1       5.231   4.095  15.866  0.00  0.00    +0.000 A 
BRANCH  11  18
ATOM     17  C   UNL     1       5.910   3.548  13.044  0.00  0.00    +0.000 C 
ATOM     18  N   UNL     1       6.581   4.542  13.874  0.00  0.00    +0.000 N 
ATOM     19  C   UNL     1       7.754   5.200  13.302  0.00  0.00    +0.000 C 
ENDBRANCH  11  18
ENDBRANCH   1  15
BRANCH   7  20
ATOM     20  C   UNL     1       2.230   7.960  20.635  0.00  0.00    +0.000 C 
BRANCH  20  21
ATOM     21  C   UNL     1       1.180   8.814  19.979  0.00  0.00    +0.000 A 
ATOM     22  C   UNL     1       0.124   9.344  20.730  0.00  0.00    +0.000 A 
ATOM     23  C   UNL     1      -0.803  10.154  20.097  0.00  0.00    +0.000 A 
ATOM     24  N   UNL     1      -0.749  10.475  18.787  0.00  0.00    +0.000 NA
ATOM     25  C   UNL     1       0.276   9.957  18.078  0.00  0.00    +0.000 A 
ATOM     26  C   UNL     1       1.250   9.134  18.620  0.00  0.00    +0.000 A 
ENDBRANCH  20  21
ENDBRANCH   7  20
TORSDOF 4
ENDMDL
MODEL 9
REMARK VINA RESULT:      -7.4      1.613      2.693
REMARK  Name = 
REMARK  6 active torsions:
REMARK  status: ('A' for Active; 'I' for Inactive)
REMARK    1  A    between atoms: C_1  and  N_2
REMARK    2  A    between atoms: N_2  and  C_3
REMARK    3  A    between atoms: N_2  and  C_4
REMARK    4  A    between atoms: C_8  and  C_9
REMARK    5  A    between atoms: N_15  and  C_16
REMARK    6  A    between atoms: C_16  and  C_17
REMARK                            x       y       z     vdW  Elec       q    Type
REMARK                         _______ _______ _______ _____ _____    ______ ____
ROOT
ATOM      1  C   UNL     1       3.793   3.512  17.955  0.00  0.00    +0.000 A 
ATOM      2  C   UNL     1       3.109   2.303  17.818  0.00  0.00    +0.000 A 
ATOM      3  N   UNL     1       1.950   2.253  18.570  0.00  0.00    +0.000 NA
ATOM      4  C   UNL     1       1.943   3.417  19.149  0.00  0.00    +0.000 A 
ATOM      5  S   UNL     1       0.916   4.218  20.258  0.00  0.00    +0.000 S 
ATOM      6  C   UNL     1       2.039   5.599  20.133  0.00  0.00    +0.000 A 
ATOM      7  N   UNL     1       1.713   6.696  20.866  0.00  0.00    +0.000 N 
ATOM      8  N   UNL     1       3.073   5.466  19.355  0.00  0.00    +0.000 NA
ATOM      9  N   UNL     1       2.989   4.217  18.821  0.00  0.00    +0.000 N 
ATOM     10  H   UNL     1       0.868   6.649  21.422  0.00  0.00    +0.000 HD
ENDROOT
BRANCH   1  15
ATOM     11  C   UNL     1       6.474   4.320  15.363  0.00  0.00    +0.000 A 
ATOM     12  C   UNL     1       7.484   4.763  16.230  0.00  0.00    +0.000 A 
ATOM     13  C   UNL     1       7.289   4.844  17.613  0.00  0.00    +0.000 A 
ATOM     14  C   UNL     1       6.076   4.455  18.173  0.00  0.00    +0.000 A 
ATOM     15  C   UNL     1       5.047   3.977  17.358  0.00  0.00    +0.000 A 
ATOM     16  C   UNL     1       5.265   3.923  15.970  0.00  0.00    +0.000 A 
BRANCH  11  18
ATOM     17  C   UNL     1       7.617   5.104  13.311  0.00  0.00    +0.000 C 
ATOM     18  N   UNL     1       6.657   4.235  13.981  0.00  0.00    +0.000 N 
ATOM     19  C   UNL     1       5.584   3.677  13.161  0.00  0.00    +0.000 C 
ENDBRANCH  11  18
ENDBRANCH   1  15
BRANCH   7  20
ATOM     20  C   UNL     1       2.224   8.015  20.585  0.00  0.00    +0.000 C 
BRANCH  20  21
ATOM     21  C   UNL     1       1.154   8.878  19.975  0.00  0.00    +0.000 A 
ATOM     22  C   UNL     1       1.190   9.197  18.612  0.00  0.00    +0.000 A 
ATOM     23  C   UNL     1       0.168   9.964  18.080  0.00  0.00    +0.000 A 
ATOM     24  N   UNL     1      -0.876  10.426  18.800  0.00  0.00    +0.000 NA
ATOM     25  C   UNL     1      -0.895  10.109  20.111  0.00  0.00    +0.000 A 
ATOM     26  C   UNL     1       0.081   9.351  20.736  0.00  0.00    +0.000 A 
ENDBRANCH  20  21
ENDBRANCH   7  20
TORSDOF 4
ENDMDL
