MODEL 1
REMARK VINA RESULT:      -6.8      0.000      0.000
REMARK  Name = 
REMARK  7 active torsions:
REMARK  status: ('A' for Active; 'I' for Inactive)
REMARK    1  A    between atoms: C_1  and  C_2
REMARK    2  A    between atoms: C_2  and  C_3
REMARK    3  A    between atoms: C_2  and  N_4
REMARK    4  A    between atoms: N_4  and  C_5
REMARK    5  A    between atoms: N_4  and  S_6
REMARK    6  A    between atoms: S_6  and  N_9
REMARK    7  A    between atoms: C_17  and  C_18
REMARK                            x       y       z     vdW  Elec       q    Type
REMARK                         _______ _______ _______ _____ _____    ______ ____
ROOT
ATOM      1  N   UNL     1       4.490   4.788  17.423  0.00  0.00    +0.000 NA
ATOM      2  C   UNL     1       3.703   3.653  16.834  0.00  0.00    +0.000 C 
ATOM      3  C   UNL     1       3.378   2.594  17.895  0.00  0.00    +0.000 C 
ATOM      4  C   UNL     1       2.865   3.251  19.132  0.00  0.00    +0.000 A 
ATOM      5  S   UNL     1       1.996   2.405  20.323  0.00  0.00    +0.000 S 
ATOM      6  C   UNL     1       1.841   3.811  21.283  0.00  0.00    +0.000 A 
ATOM      7  C   UNL     1       2.464   4.899  20.710  0.00  0.00    +0.000 A 
ATOM      8  C   UNL     1       3.046   4.584  19.433  0.00  0.00    +0.000 A 
ATOM      9  C   UNL     1       3.716   5.560  18.483  0.00  0.00    +0.000 C 
ATOM     10  C   UNL     1       2.657   6.509  17.903  0.00  0.00    +0.000 C 
ENDROOT
BRANCH   1  11
ATOM     11  S   UNL     1       5.267   5.762  16.276  0.00  0.00    +0.000 S 
ATOM     12  O   UNL     1       4.730   7.098  16.391  0.00  0.00    +0.000 OA
ATOM     13  O   UNL     1       5.213   5.040  15.019  0.00  0.00    +0.000 OA
BRANCH  11  14
ATOM     14  N   UNL     1       6.903   5.817  16.812  0.00  0.00    +0.000 NA
ATOM     15  C   UNL     1       7.448   4.456  17.096  0.00  0.00    +0.000 C 
BRANCH  14  17
ATOM     16  C   UNL     1       7.902   6.053  19.145  0.00  0.00    +0.000 C 
ATOM     17  C   UNL     1       7.120   6.747  18.013  0.00  0.00    +0.000 C 
ATOM     18  C   UNL     1       7.901   8.013  17.649  0.00  0.00    +0.000 C 
ENDBRANCH  14  17
ENDBRANCH  11  14
ENDBRANCH   1  11
TORSDOF 3
ENDMDL
MODEL 2
REMARK VINA RESULT:      -6.4      2.433      3.390
REMARK  Name = 
REMARK  7 active torsions:
REMARK  status: ('A' for Active; 'I' for Inactive)
REMARK    1  A    between atoms: C_1  and  C_2
REMARK    2  A    between atoms: C_2  and  C_3
REMARK    3  A    between atoms: C_2  and  N_4
REMARK    4  A    between atoms: N_4  and  C_5
REMARK    5  A    between atoms: N_4  and  S_6
REMARK    6  A    between atoms: S_6  and  N_9
REMARK    7  A    between atoms: C_17  and  C_18
REMARK                            x       y       z     vdW  Elec       q    Type
REMARK                         _______ _______ _______ _____ _____    ______ ____
ROOT
ATOM      1  N   UNL     1       5.384   5.074  17.064  0.00  0.00    +0.000 NA
ATOM      2  C   UNL     1       4.439   6.218  17.288  0.00  0.00    +0.000 C 
ATOM      3  C   UNL     1       3.052   5.717  17.713  0.00  0.00    +0.000 C 
ATOM      4  C   UNL     1       3.188   4.684  18.781  0.00  0.00    +0.000 A 
ATOM      5  S   UNL     1       1.896   4.243  19.793  0.00  0.00    +0.000 S 
ATOM      6  C   UNL     1       2.864   3.099  20.617  0.00  0.00    +0.000 A 
ATOM      7  C   UNL     1       4.144   3.045  20.108  0.00  0.00    +0.000 A 
ATOM      8  C   UNL     1       4.349   3.992  19.045  0.00  0.00    +0.000 A 
ATOM      9  C   UNL     1       5.659   4.273  18.330  0.00  0.00    +0.000 C 
ATOM     10  C   UNL     1       6.625   4.968  19.301  0.00  0.00    +0.000 C 
ENDROOT
BRANCH   1  11
ATOM     11  S   UNL     1       6.770   5.482  16.180  0.00  0.00    +0.000 S 
ATOM     12  O   UNL     1       7.784   4.490  16.460  0.00  0.00    +0.000 OA
ATOM     13  O   UNL     1       7.015   6.890  16.426  0.00  0.00    +0.000 OA
BRANCH  11  14
ATOM     14  N   UNL     1       6.294   5.280  14.537  0.00  0.00    +0.000 NA
ATOM     15  C   UNL     1       5.039   4.481  14.409  0.00  0.00    +0.000 C 
BRANCH  14  17
ATOM     16  C   UNL     1       6.827   3.814  12.522  0.00  0.00    +0.000 C 
ATOM     17  C   UNL     1       7.400   4.695  13.649  0.00  0.00    +0.000 C 
ATOM     18  C   UNL     1       8.252   5.774  12.975  0.00  0.00    +0.000 C 
ENDBRANCH  14  17
ENDBRANCH  11  14
ENDBRANCH   1  11
TORSDOF 3
ENDMDL
MODEL 3
REMARK VINA RESULT:      -6.2      0.993      1.515
REMARK  Name = 
REMARK  7 active torsions:
REMARK  status: ('A' for Active; 'I' for Inactive)
REMARK    1  A    between atoms: C_1  and  C_2
REMARK    2  A    between atoms: C_2  and  C_3
REMARK    3  A    between atoms: C_2  and  N_4
REMARK    4  A    between atoms: N_4  and  C_5
REMARK    5  A    between atoms: N_4  and  S_6
REMARK    6  A    between atoms: S_6  and  N_9
REMARK    7  A    between atoms: C_17  and  C_18
REMARK                            x       y       z     vdW  Elec       q    Type
REMARK                         _______ _______ _______ _____ _____    ______ ____
ROOT
ATOM      1  N   UNL     1       4.794   4.222  17.841  0.00  0.00    +0.000 NA
ATOM      2  C   UNL     1       3.961   3.186  17.143  0.00  0.00    +0.000 C 
ATOM      3  C   UNL     1       3.334   2.210  18.148  0.00  0.00    +0.000 C 
ATOM      4  C   UNL     1       2.730   2.966  19.283  0.00  0.00    +0.000 A 
ATOM      5  S   UNL     1       1.579   2.278  20.328  0.00  0.00    +0.000 S 
ATOM      6  C   UNL     1       1.470   3.720  21.241  0.00  0.00    +0.000 A 
ATOM      7  C   UNL     1       2.316   4.697  20.765  0.00  0.00    +0.000 A 
ATOM      8  C   UNL     1       3.041   4.271  19.599  0.00  0.00    +0.000 A 
ATOM      9  C   UNL     1       3.978   5.121  18.759  0.00  0.00    +0.000 C 
ATOM     10  C   UNL     1       3.161   6.186  18.012  0.00  0.00    +0.000 C 
ENDROOT
BRANCH   1  11
ATOM     11  S   UNL     1       5.867   5.050  16.823  0.00  0.00    +0.000 S 
ATOM     12  O   UNL     1       5.124   5.500  15.668  0.00  0.00    +0.000 OA
ATOM     13  O   UNL     1       7.033   4.201  16.677  0.00  0.00    +0.000 OA
BRANCH  11  14
ATOM     14  N   UNL     1       6.308   6.448  17.728  0.00  0.00    +0.000 NA
ATOM     15  C   UNL     1       6.123   7.706  16.945  0.00  0.00    +0.000 C 
BRANCH  14  17
ATOM     16  C   UNL     1       8.349   7.775  18.481  0.00  0.00    +0.000 C 
ATOM     17  C   UNL     1       7.727   6.376  18.307  0.00  0.00    +0.000 C 
ATOM     18  C   UNL     1       7.774   5.700  19.680  0.00  0.00    +0.000 C 
ENDBRANCH  14  17
ENDBRANCH  11  14
ENDBRANCH   1  11
TORSDOF 3
ENDMDL
MODEL 4
REMARK VINA RESULT:      -6.1      1.623      2.376
REMARK  Name = 
REMARK  7 active torsions:
REMARK  status: ('A' for Active; 'I' for Inactive)
REMARK    1  A    between atoms: C_1  and  C_2
REMARK    2  A    between atoms: C_2  and  C_3
REMARK    3  A    between atoms: C_2  and  N_4
REMARK    4  A    between atoms: N_4  and  C_5
REMARK    5  A    between atoms: N_4  and  S_6
REMARK    6  A    between atoms: S_6  and  N_9
REMARK    7  A    between atoms: C_17  and  C_18
REMARK                            x       y       z     vdW  Elec       q    Type
REMARK                         _______ _______ _______ _____ _____    ______ ____
ROOT
ATOM      1  N   UNL     1       4.271   4.619  17.981  0.00  0.00    +0.000 NA
ATOM      2  C   UNL     1       3.211   4.034  17.093  0.00  0.00    +0.000 C 
ATOM      3  C   UNL     1       2.546   2.817  17.749  0.00  0.00    +0.000 C 
ATOM      4  C   UNL     1       2.198   3.129  19.167  0.00  0.00    +0.000 A 
ATOM      5  S   UNL     1       1.071   2.215  20.052  0.00  0.00    +0.000 S 
ATOM      6  C   UNL     1       1.296   3.187  21.440  0.00  0.00    +0.000 A 
ATOM      7  C   UNL     1       2.233   4.176  21.232  0.00  0.00    +0.000 A 
ATOM      8  C   UNL     1       2.749   4.164  19.890  0.00  0.00    +0.000 A 
ATOM      9  C   UNL     1       3.715   5.169  19.287  0.00  0.00    +0.000 C 
ATOM     10  C   UNL     1       3.005   6.522  19.133  0.00  0.00    +0.000 C 
ENDROOT
BRANCH   1  11
ATOM     11  S   UNL     1       5.347   5.658  17.186  0.00  0.00    +0.000 S 
ATOM     12  O   UNL     1       6.270   6.178  18.168  0.00  0.00    +0.000 OA
ATOM     13  O   UNL     1       4.537   6.549  16.377  0.00  0.00    +0.000 OA
BRANCH  11  14
ATOM     14  N   UNL     1       6.239   4.618  16.141  0.00  0.00    +0.000 NA
ATOM     15  C   UNL     1       7.669   4.499  16.554  0.00  0.00    +0.000 C 
BRANCH  14  17
ATOM     16  C   UNL     1       7.519   5.243  14.028  0.00  0.00    +0.000 C 
ATOM     17  C   UNL     1       6.135   5.006  14.660  0.00  0.00    +0.000 C 
ATOM     18  C   UNL     1       5.441   3.935  13.815  0.00  0.00    +0.000 C 
ENDBRANCH  14  17
ENDBRANCH  11  14
ENDBRANCH   1  11
TORSDOF 3
ENDMDL
MODEL 5
REMARK VINA RESULT:      -6.0      0.919      1.444
REMARK  Name = 
REMARK  7 active torsions:
REMARK  status: ('A' for Active; 'I' for Inactive)
REMARK    1  A    between atoms: C_1  and  C_2
REMARK    2  A    between atoms: C_2  and  C_3
REMARK    3  A    between atoms: C_2  and  N_4
REMARK    4  A    between atoms: N_4  and  C_5
REMARK    5  A    between atoms: N_4  and  S_6
REMARK    6  A    between atoms: S_6  and  N_9
REMARK    7  A    between atoms: C_17  and  C_18
REMARK                            x       y       z     vdW  Elec       q    Type
REMARK                         _______ _______ _______ _____ _____    ______ ____
ROOT
ATOM      1  N   UNL     1       4.208   5.290  17.876  0.00  0.00    +0.000 NA
ATOM      2  C   UNL     1       3.782   4.186  16.953  0.00  0.00    +0.000 C 
ATOM      3  C   UNL     1       3.479   2.898  17.730  0.00  0.00    +0.000 C 
ATOM      4  C   UNL     1       2.626   3.206  18.915  0.00  0.00    +0.000 A 
ATOM      5  S   UNL     1       1.733   2.013  19.733  0.00  0.00    +0.000 S 
ATOM      6  C   UNL     1       1.131   3.157  20.852  0.00  0.00    +0.000 A 
ATOM      7  C   UNL     1       1.624   4.421  20.613  0.00  0.00    +0.000 A 
ATOM      8  C   UNL     1       2.484   4.463  19.461  0.00  0.00    +0.000 A 
ATOM      9  C   UNL     1       3.115   5.703  18.853  0.00  0.00    +0.000 C 
ATOM     10  C   UNL     1       2.017   6.569  18.218  0.00  0.00    +0.000 C 
ENDROOT
BRANCH   1  11
ATOM     11  S   UNL     1       4.980   6.583  17.102  0.00  0.00    +0.000 S 
ATOM     12  O   UNL     1       4.216   7.780  17.368  0.00  0.00    +0.000 OA
ATOM     13  O   UNL     1       5.242   6.152  15.742  0.00  0.00    +0.000 OA
BRANCH  11  14
ATOM     14  N   UNL     1       6.481   6.735  17.934  0.00  0.00    +0.000 NA
ATOM     15  C   UNL     1       7.540   7.345  17.076  0.00  0.00    +0.000 C 
BRANCH  14  17
ATOM     16  C   UNL     1       7.669   4.522  17.505  0.00  0.00    +0.000 C 
ATOM     17  C   UNL     1       6.974   5.418  18.548  0.00  0.00    +0.000 C 
ATOM     18  C   UNL     1       7.977   5.633  19.683  0.00  0.00    +0.000 C 
ENDBRANCH  14  17
ENDBRANCH  11  14
ENDBRANCH   1  11
TORSDOF 3
ENDMDL
MODEL 6
REMARK VINA RESULT:      -6.0      1.895      2.980
REMARK  Name = 
REMARK  7 active torsions:
REMARK  status: ('A' for Active; 'I' for Inactive)
REMARK    1  A    between atoms: C_1  and  C_2
REMARK    2  A    between atoms: C_2  and  C_3
REMARK    3  A    between atoms: C_2  and  N_4
REMARK    4  A    between atoms: N_4  and  C_5
REMARK    5  A    between atoms: N_4  and  S_6
REMARK    6  A    between atoms: S_6  and  N_9
REMARK    7  A    between atoms: C_17  and  C_18
REMARK                            x       y       z     vdW  Elec       q    Type
REMARK                         _______ _______ _______ _____ _____    ______ ____
ROOT
ATOM      1  N   UNL     1       4.209   5.564  17.311  0.00  0.00    +0.000 NA
ATOM      2  C   UNL     1       3.373   6.595  18.013  0.00  0.00    +0.000 C 
ATOM      3  C   UNL     1       2.028   6.008  18.460  0.00  0.00    +0.000 C 
ATOM      4  C   UNL     1       2.242   4.689  19.125  0.00  0.00    +0.000 A 
ATOM      5  S   UNL     1       1.073   3.972  20.129  0.00  0.00    +0.000 S 
ATOM      6  C   UNL     1       2.072   2.613  20.410  0.00  0.00    +0.000 A 
ATOM      7  C   UNL     1       3.267   2.702  19.728  0.00  0.00    +0.000 A 
ATOM      8  C   UNL     1       3.385   3.931  18.991  0.00  0.00    +0.000 A 
ATOM      9  C   UNL     1       4.601   4.403  18.214  0.00  0.00    +0.000 C 
ATOM     10  C   UNL     1       5.729   4.743  19.200  0.00  0.00    +0.000 C 
ENDROOT
BRANCH   1  11
ATOM     11  S   UNL     1       5.487   6.208  16.404  0.00  0.00    +0.000 S 
ATOM     12  O   UNL     1       6.443   6.777  17.326  0.00  0.00    +0.000 OA
ATOM     13  O   UNL     1       4.884   7.014  15.360  0.00  0.00    +0.000 OA
BRANCH  11  14
ATOM     14  N   UNL     1       6.225   4.829  15.683  0.00  0.00    +0.000 NA
ATOM     15  C   UNL     1       7.588   4.568  16.235  0.00  0.00    +0.000 C 
BRANCH  14  17
ATOM     16  C   UNL     1       7.689   5.147  13.621  0.00  0.00    +0.000 C 
ATOM     17  C   UNL     1       6.265   4.889  14.150  0.00  0.00    +0.000 C 
ATOM     18  C   UNL     1       5.778   3.596  13.493  0.00  0.00    +0.000 C 
ENDBRANCH  14  17
ENDBRANCH  11  14
ENDBRANCH   1  11
TORSDOF 3
ENDMDL
MODEL 7
REMARK VINA RESULT:      -5.8      2.782      5.721
REMARK  Name = 
REMARK  7 active torsions:
REMARK  status: ('A' for Active; 'I' for Inactive)
REMARK    1  A    between atoms: C_1  and  C_2
REMARK    2  A    between atoms: C_2  and  C_3
REMARK    3  A    between atoms: C_2  and  N_4
REMARK    4  A    between atoms: N_4  and  C_5
REMARK    5  A    between atoms: N_4  and  S_6
REMARK    6  A    between atoms: S_6  and  N_9
REMARK    7  A    between atoms: C_17  and  C_18
REMARK                            x       y       z     vdW  Elec       q    Type
REMARK                         _______ _______ _______ _____ _____    ______ ____
ROOT
ATOM      1  N   UNL     1       4.969   3.318  18.871  0.00  0.00    +0.000 NA
ATOM      2  C   UNL     1       5.132   4.719  19.385  0.00  0.00    +0.000 C 
ATOM      3  C   UNL     1       6.312   5.425  18.705  0.00  0.00    +0.000 C 
ATOM      4  C   UNL     1       6.255   5.208  17.230  0.00  0.00    +0.000 A 
ATOM      5  S   UNL     1       7.107   6.186  16.130  0.00  0.00    +0.000 S 
ATOM      6  C   UNL     1       6.521   5.286  14.798  0.00  0.00    +0.000 A 
ATOM      7  C   UNL     1       5.709   4.246  15.195  0.00  0.00    +0.000 A 
ATOM      8  C   UNL     1       5.527   4.209  16.621  0.00  0.00    +0.000 A 
ATOM      9  C   UNL     1       4.620   3.265  17.390  0.00  0.00    +0.000 C 
ATOM     10  C   UNL     1       3.155   3.616  17.090  0.00  0.00    +0.000 C 
ENDROOT
BRANCH   1  11
ATOM     11  S   UNL     1       4.008   2.327  19.852  0.00  0.00    +0.000 S 
ATOM     12  O   UNL     1       4.874   1.674  20.808  0.00  0.00    +0.000 OA
ATOM     13  O   UNL     1       3.166   1.555  18.959  0.00  0.00    +0.000 OA
BRANCH  11  14
ATOM     14  N   UNL     1       3.019   3.434  20.727  0.00  0.00    +0.000 NA
ATOM     15  C   UNL     1       2.372   2.795  21.911  0.00  0.00    +0.000 C 
BRANCH  14  17
ATOM     16  C   UNL     1       0.596   3.454  19.939  0.00  0.00    +0.000 C 
ATOM     17  C   UNL     1       1.973   4.139  19.854  0.00  0.00    +0.000 C 
ATOM     18  C   UNL     1       1.763   5.603  20.247  0.00  0.00    +0.000 C 
ENDBRANCH  14  17
ENDBRANCH  11  14
ENDBRANCH   1  11
TORSDOF 3
ENDMDL
MODEL 8
REMARK VINA RESULT:      -5.6      1.666      2.106
REMARK  Name = 
REMARK  7 active torsions:
REMARK  status: ('A' for Active; 'I' for Inactive)
REMARK    1  A    between atoms: C_1  and  C_2
REMARK    2  A    between atoms: C_2  and  C_3
REMARK    3  A    between atoms: C_2  and  N_4
REMARK    4  A    between atoms: N_4  and  C_5
REMARK    5  A    between atoms: N_4  and  S_6
REMARK    6  A    between atoms: S_6  and  N_9
REMARK    7  A    between atoms: C_17  and  C_18
REMARK                            x       y       z     vdW  Elec       q    Type
REMARK                         _______ _______ _______ _____ _____    ______ ____
ROOT
ATOM      1  N   UNL     1       5.065   3.780  17.587  0.00  0.00    +0.000 NA
ATOM      2  C   UNL     1       3.878   4.100  16.726  0.00  0.00    +0.000 C 
ATOM      3  C   UNL     1       2.712   3.143  17.010  0.00  0.00    +0.000 C 
ATOM      4  C   UNL     1       2.510   3.008  18.482  0.00  0.00    +0.000 A 
ATOM      5  S   UNL     1       1.067   2.412  19.154  0.00  0.00    +0.000 S 
ATOM      6  C   UNL     1       1.678   2.579  20.743  0.00  0.00    +0.000 A 
ATOM      7  C   UNL     1       2.969   3.061  20.751  0.00  0.00    +0.000 A 
ATOM      8  C   UNL     1       3.456   3.339  19.428  0.00  0.00    +0.000 A 
ATOM      9  C   UNL     1       4.790   3.971  19.073  0.00  0.00    +0.000 C 
ATOM     10  C   UNL     1       4.785   5.443  19.513  0.00  0.00    +0.000 C 
ENDROOT
BRANCH   1  11
ATOM     11  S   UNL     1       6.517   4.466  17.050  0.00  0.00    +0.000 S 
ATOM     12  O   UNL     1       6.591   4.284  15.618  0.00  0.00    +0.000 OA
ATOM     13  O   UNL     1       7.560   3.959  17.922  0.00  0.00    +0.000 OA
BRANCH  11  14
ATOM     14  N   UNL     1       6.319   6.152  17.345  0.00  0.00    +0.000 NA
ATOM     15  C   UNL     1       5.584   6.833  16.238  0.00  0.00    +0.000 C 
BRANCH  14  17
ATOM     16  C   UNL     1       7.495   8.406  17.520  0.00  0.00    +0.000 C 
ATOM     17  C   UNL     1       7.637   6.877  17.645  0.00  0.00    +0.000 C 
ATOM     18  C   UNL     1       8.159   6.598  19.057  0.00  0.00    +0.000 C 
ENDBRANCH  14  17
ENDBRANCH  11  14
ENDBRANCH   1  11
TORSDOF 3
ENDMDL
MODEL 9
REMARK VINA RESULT:      -5.6      2.385      5.531
REMARK  Name = 
REMARK  7 active torsions:
REMARK  status: ('A' for Active; 'I' for Inactive)
REMARK    1  A    between atoms: C_1  and  C_2
REMARK    2  A    between atoms: C_2  and  C_3
REMARK    3  A    between atoms: C_2  and  N_4
REMARK    4  A    between atoms: N_4  and  C_5
REMARK    5  A    between atoms: N_4  and  S_6
REMARK    6  A    between atoms: S_6  and  N_9
REMARK    7  A    between atoms: C_17  and  C_18
REMARK                            x       y       z     vdW  Elec       q    Type
REMARK                         _______ _______ _______ _____ _____    ______ ____
ROOT
ATOM      1  N   UNL     1       3.808   3.850  18.041  0.00  0.00    +0.000 NA
ATOM      2  C   UNL     1       3.054   5.030  17.499  0.00  0.00    +0.000 C 
ATOM      3  C   UNL     1       3.697   6.351  17.942  0.00  0.00    +0.000 C 
ATOM      4  C   UNL     1       5.174   6.292  17.737  0.00  0.00    +0.000 A 
ATOM      5  S   UNL     1       6.144   7.688  17.683  0.00  0.00    +0.000 S 
ATOM      6  C   UNL     1       7.560   6.757  17.451  0.00  0.00    +0.000 A 
ATOM      7  C   UNL     1       7.293   5.405  17.439  0.00  0.00    +0.000 A 
ATOM      8  C   UNL     1       5.889   5.125  17.580  0.00  0.00    +0.000 A 
ATOM      9  C   UNL     1       5.231   3.759  17.508  0.00  0.00    +0.000 C 
ATOM     10  C   UNL     1       5.316   3.234  16.066  0.00  0.00    +0.000 C 
ENDROOT
BRANCH   1  11
ATOM     11  S   UNL     1       2.947   2.393  17.991  0.00  0.00    +0.000 S 
ATOM     12  O   UNL     1       3.875   1.319  18.261  0.00  0.00    +0.000 OA
ATOM     13  O   UNL     1       2.169   2.417  16.767  0.00  0.00    +0.000 OA
BRANCH  11  14
ATOM     14  N   UNL     1       1.872   2.495  19.333  0.00  0.00    +0.000 NA
ATOM     15  C   UNL     1       0.477   2.821  18.913  0.00  0.00    +0.000 C 
BRANCH  14  17
ATOM     16  C   UNL     1       1.376   4.643  20.611  0.00  0.00    +0.000 C 
ATOM     17  C   UNL     1       2.348   3.463  20.424  0.00  0.00    +0.000 C 
ATOM     18  C   UNL     1       2.493   2.790  21.792  0.00  0.00    +0.000 C 
ENDBRANCH  14  17
ENDBRANCH  11  14
ENDBRANCH   1  11
TORSDOF 3
ENDMDL
