MODEL 1
REMARK VINA RESULT:      -6.4      0.000      0.000
REMARK  Name = 
REMARK  8 active torsions:
REMARK  status: ('A' for Active; 'I' for Inactive)
REMARK    1  A    between atoms: C_1  and  C_2
REMARK    2  A    between atoms: C_2  and  O_3
REMARK    3  A    between atoms: O_3  and  C_4
REMARK    4  A    between atoms: C_10  and  C_12
REMARK    5  A    between atoms: N_16  and  C_17
REMARK    6  A    between atoms: C_17  and  C_18
REMARK    7  A    between atoms: C_21  and  O_22
REMARK    8  A    between atoms: O_22  and  C_23
REMARK                            x       y       z     vdW  Elec       q    Type
REMARK                         _______ _______ _______ _____ _____    ______ ____
ROOT
ATOM      1  C   UNL     1       2.430   6.833  18.533  0.00  0.00    +0.000 C 
ATOM      2  C   UNL     1       1.554   5.842  17.762  0.00  0.00    +0.000 C 
ATOM      3  C   UNL     1       2.343   4.558  17.759  0.00  0.00    +0.000 C 
ATOM      4  O   UNL     1       1.926   3.496  17.326  0.00  0.00    +0.000 OA
ATOM      5  N   UNL     1       3.618   4.818  18.221  0.00  0.00    +0.000 N 
ATOM      6  C   UNL     1       3.821   6.210  18.526  0.00  0.00    +0.000 C 
ENDROOT
BRANCH   1  13
ATOM      7  C   UNL     1       0.091  12.008  21.331  0.00  0.00    +0.000 C 
ATOM      8  O   UNL     1      -0.339  12.194  22.463  0.00  0.00    +0.000 OA
ATOM      9  N   UNL     1       0.932  10.970  20.985  0.00  0.00    +0.000 N 
ATOM     10  C   UNL     1       1.277   9.953  21.980  0.00  0.00    +0.000 C 
ATOM     11  C   UNL     1       0.766   8.562  21.557  0.00  0.00    +0.000 C 
ATOM     12  N   UNL     1       1.176   8.242  20.178  0.00  0.00    +0.000 N 
ATOM     13  C   UNL     1       1.883   7.071  19.936  0.00  0.00    +0.000 C 
ATOM     14  O   UNL     1       2.070   6.241  20.826  0.00  0.00    +0.000 OA
ATOM     15  C   UNL     1       0.789   9.267  19.192  0.00  0.00    +0.000 C 
ATOM     16  C   UNL     1       1.317  10.657  19.604  0.00  0.00    +0.000 C 
BRANCH   7  17
ATOM     17  O   UNL     1      -0.266  12.759  20.255  0.00  0.00    +0.000 OA
BRANCH  17  19
ATOM     18  C   UNL     1      -2.232  11.877  19.232  0.00  0.00    +0.000 C 
ATOM     19  C   UNL     1      -1.674  12.988  20.103  0.00  0.00    +0.000 C 
ENDBRANCH  17  19
ENDBRANCH   7  17
ENDBRANCH   1  13
BRANCH   5  20
ATOM     20  C   UNL     1       4.731   3.902  18.012  0.00  0.00    +0.000 C 
BRANCH  20  21
ATOM     21  C   UNL     1       5.564   4.136  16.775  0.00  0.00    +0.000 A 
ATOM     22  C   UNL     1       5.068   3.918  15.485  0.00  0.00    +0.000 A 
ATOM     23  C   UNL     1       5.815   4.288  14.361  0.00  0.00    +0.000 A 
ATOM     24  C   UNL     1       7.055   4.911  14.503  0.00  0.00    +0.000 A 
ATOM     25  C   UNL     1       7.576   5.104  15.781  0.00  0.00    +0.000 A 
ATOM     26  C   UNL     1       6.834   4.724  16.903  0.00  0.00    +0.000 A 
BRANCH  24  27
ATOM     27  O   UNL     1       7.683   5.267  13.341  0.00  0.00    +0.000 OA
ATOM     28  C   UNL     1       7.284   4.526  12.191  0.00  0.00    +0.000 C 
ENDBRANCH  24  27
ENDBRANCH  20  21
ENDBRANCH   5  20
TORSDOF 6
ENDMDL
MODEL 2
REMARK VINA RESULT:      -6.4      2.272     10.009
REMARK  Name = 
REMARK  8 active torsions:
REMARK  status: ('A' for Active; 'I' for Inactive)
REMARK    1  A    between atoms: C_1  and  C_2
REMARK    2  A    between atoms: C_2  and  O_3
REMARK    3  A    between atoms: O_3  and  C_4
REMARK    4  A    between atoms: C_10  and  C_12
REMARK    5  A    between atoms: N_16  and  C_17
REMARK    6  A    between atoms: C_17  and  C_18
REMARK    7  A    between atoms: C_21  and  O_22
REMARK    8  A    between atoms: O_22  and  C_23
REMARK                            x       y       z     vdW  Elec       q    Type
REMARK                         _______ _______ _______ _____ _____    ______ ____
ROOT
ATOM      1  C   UNL     1       1.040   9.438  18.546  0.00  0.00    +0.000 C 
ATOM      2  C   UNL     1       2.110  10.481  18.215  0.00  0.00    +0.000 C 
ATOM      3  C   UNL     1       1.556  11.777  18.749  0.00  0.00    +0.000 C 
ATOM      4  O   UNL     1       2.172  12.831  18.769  0.00  0.00    +0.000 OA
ATOM      5  N   UNL     1       0.235  11.586  19.102  0.00  0.00    +0.000 N 
ATOM      6  C   UNL     1      -0.221  10.248  18.827  0.00  0.00    +0.000 C 
ENDROOT
BRANCH   1  13
ATOM      7  C   UNL     1       3.171   3.482  18.825  0.00  0.00    +0.000 C 
ATOM      8  O   UNL     1       3.506   2.785  19.775  0.00  0.00    +0.000 OA
ATOM      9  N   UNL     1       2.355   4.591  18.931  0.00  0.00    +0.000 N 
ATOM     10  C   UNL     1       1.922   5.049  20.252  0.00  0.00    +0.000 C 
ATOM     11  C   UNL     1       2.458   6.462  20.556  0.00  0.00    +0.000 C 
ATOM     12  N   UNL     1       2.162   7.392  19.451  0.00  0.00    +0.000 N 
ATOM     13  C   UNL     1       1.469   8.565  19.720  0.00  0.00    +0.000 C 
ATOM     14  O   UNL     1       1.204   8.901  20.875  0.00  0.00    +0.000 OA
ATOM     15  C   UNL     1       2.636   6.920  18.137  0.00  0.00    +0.000 C 
ATOM     16  C   UNL     1       2.085   5.514  17.823  0.00  0.00    +0.000 C 
BRANCH   7  17
ATOM     17  O   UNL     1       3.622   3.297  17.556  0.00  0.00    +0.000 OA
BRANCH  17  19
ATOM     18  C   UNL     1       5.057   4.252  15.907  0.00  0.00    +0.000 C 
ATOM     19  C   UNL     1       4.978   3.696  17.318  0.00  0.00    +0.000 C 
ENDBRANCH  17  19
ENDBRANCH   7  17
ENDBRANCH   1  13
BRANCH   5  20
ATOM     20  C   UNL     1      -0.691  12.691  19.307  0.00  0.00    +0.000 C 
BRANCH  20  21
ATOM     21  C   UNL     1      -1.506  12.652  20.578  0.00  0.00    +0.000 A 
ATOM     22  C   UNL     1      -2.891  12.838  20.585  0.00  0.00    +0.000 A 
ATOM     23  C   UNL     1      -3.632  12.647  21.757  0.00  0.00    +0.000 A 
ATOM     24  C   UNL     1      -3.007  12.232  22.934  0.00  0.00    +0.000 A 
ATOM     25  C   UNL     1      -1.622  12.074  22.950  0.00  0.00    +0.000 A 
ATOM     26  C   UNL     1      -0.883  12.277  21.781  0.00  0.00    +0.000 A 
BRANCH  24  27
ATOM     27  O   UNL     1      -3.828  12.035  24.011  0.00  0.00    +0.000 OA
ATOM     28  C   UNL     1      -4.882  12.985  24.143  0.00  0.00    +0.000 C 
ENDBRANCH  24  27
ENDBRANCH  20  21
ENDBRANCH   5  20
TORSDOF 6
ENDMDL
MODEL 3
REMARK VINA RESULT:      -6.4      2.968     10.014
REMARK  Name = 
REMARK  8 active torsions:
REMARK  status: ('A' for Active; 'I' for Inactive)
REMARK    1  A    between atoms: C_1  and  C_2
REMARK    2  A    between atoms: C_2  and  O_3
REMARK    3  A    between atoms: O_3  and  C_4
REMARK    4  A    between atoms: C_10  and  C_12
REMARK    5  A    between atoms: N_16  and  C_17
REMARK    6  A    between atoms: C_17  and  C_18
REMARK    7  A    between atoms: C_21  and  O_22
REMARK    8  A    between atoms: O_22  and  C_23
REMARK                            x       y       z     vdW  Elec       q    Type
REMARK                         _______ _______ _______ _____ _____    ______ ____
ROOT
ATOM      1  C   UNL     1       0.836   8.917  18.847  0.00  0.00    +0.000 C 
ATOM      2  C   UNL     1      -0.145   9.790  18.061  0.00  0.00    +0.000 C 
ATOM      3  C   UNL     1      -0.010  11.161  18.673  0.00  0.00    +0.000 C 
ATOM      4  O   UNL     1      -0.560  12.163  18.244  0.00  0.00    +0.000 OA
ATOM      5  N   UNL     1       0.738  11.061  19.830  0.00  0.00    +0.000 N 
ATOM      6  C   UNL     1       1.126   9.705  20.120  0.00  0.00    +0.000 C 
ENDROOT
BRANCH   1  13
ATOM      7  C   UNL     1       4.993   4.146  19.058  0.00  0.00    +0.000 C 
ATOM      8  O   UNL     1       6.000   3.918  18.399  0.00  0.00    +0.000 OA
ATOM      9  N   UNL     1       4.421   5.396  19.189  0.00  0.00    +0.000 N 
ATOM     10  C   UNL     1       4.966   6.525  18.433  0.00  0.00    +0.000 C 
ATOM     11  C   UNL     1       3.928   7.083  17.439  0.00  0.00    +0.000 C 
ATOM     12  N   UNL     1       2.642   7.350  18.108  0.00  0.00    +0.000 N 
ATOM     13  C   UNL     1       2.085   8.619  18.025  0.00  0.00    +0.000 C 
ATOM     14  O   UNL     1       2.581   9.490  17.309  0.00  0.00    +0.000 OA
ATOM     15  C   UNL     1       2.101   6.187  18.836  0.00  0.00    +0.000 C 
ATOM     16  C   UNL     1       3.132   5.640  19.845  0.00  0.00    +0.000 C 
BRANCH   7  17
ATOM     17  O   UNL     1       4.266   3.182  19.684  0.00  0.00    +0.000 OA
BRANCH  17  19
ATOM     18  C   UNL     1       2.197   2.075  19.261  0.00  0.00    +0.000 C 
ATOM     19  C   UNL     1       3.643   2.222  18.822  0.00  0.00    +0.000 C 
ENDBRANCH  17  19
ENDBRANCH   7  17
ENDBRANCH   1  13
BRANCH   5  20
ATOM     20  C   UNL     1       0.758  12.104  20.845  0.00  0.00    +0.000 C 
BRANCH  20  21
ATOM     21  C   UNL     1      -0.487  12.238  21.689  0.00  0.00    +0.000 A 
ATOM     22  C   UNL     1      -1.465  13.205  21.433  0.00  0.00    +0.000 A 
ATOM     23  C   UNL     1      -2.673  13.203  22.140  0.00  0.00    +0.000 A 
ATOM     24  C   UNL     1      -2.940  12.217  23.090  0.00  0.00    +0.000 A 
ATOM     25  C   UNL     1      -1.962  11.267  23.379  0.00  0.00    +0.000 A 
ATOM     26  C   UNL     1      -0.751  11.277  22.679  0.00  0.00    +0.000 A 
BRANCH  24  27
ATOM     27  O   UNL     1      -4.167  12.284  23.694  0.00  0.00    +0.000 OA
ATOM     28  C   UNL     1      -4.749  13.584  23.728  0.00  0.00    +0.000 C 
ENDBRANCH  24  27
ENDBRANCH  20  21
ENDBRANCH   5  20
TORSDOF 6
ENDMDL
MODEL 4
REMARK VINA RESULT:      -6.3      1.504      2.166
REMARK  Name = 
REMARK  8 active torsions:
REMARK  status: ('A' for Active; 'I' for Inactive)
REMARK    1  A    between atoms: C_1  and  C_2
REMARK    2  A    between atoms: C_2  and  O_3
REMARK    3  A    between atoms: O_3  and  C_4
REMARK    4  A    between atoms: C_10  and  C_12
REMARK    5  A    between atoms: N_16  and  C_17
REMARK    6  A    between atoms: C_17  and  C_18
REMARK    7  A    between atoms: C_21  and  O_22
REMARK    8  A    between atoms: O_22  and  C_23
REMARK                            x       y       z     vdW  Elec       q    Type
REMARK                         _______ _______ _______ _____ _____    ______ ____
ROOT
ATOM      1  C   UNL     1       2.015   6.236  19.046  0.00  0.00    +0.000 C 
ATOM      2  C   UNL     1       3.088   5.990  20.109  0.00  0.00    +0.000 C 
ATOM      3  C   UNL     1       4.128   5.149  19.414  0.00  0.00    +0.000 C 
ATOM      4  O   UNL     1       5.199   4.833  19.907  0.00  0.00    +0.000 OA
ATOM      5  N   UNL     1       3.622   4.728  18.200  0.00  0.00    +0.000 N 
ATOM      6  C   UNL     1       2.270   5.175  17.981  0.00  0.00    +0.000 C 
ENDROOT
BRANCH   1  13
ATOM      7  C   UNL     1      -0.515  11.668  21.088  0.00  0.00    +0.000 C 
ATOM      8  O   UNL     1      -0.454  12.808  20.645  0.00  0.00    +0.000 OA
ATOM      9  N   UNL     1      -0.269  10.534  20.341  0.00  0.00    +0.000 N 
ATOM     10  C   UNL     1       0.188  10.663  18.956  0.00  0.00    +0.000 C 
ATOM     11  C   UNL     1       1.596  10.064  18.776  0.00  0.00    +0.000 C 
ATOM     12  N   UNL     1       1.668   8.698  19.326  0.00  0.00    +0.000 N 
ATOM     13  C   UNL     1       2.093   7.660  18.507  0.00  0.00    +0.000 C 
ATOM     14  O   UNL     1       2.523   7.874  17.374  0.00  0.00    +0.000 OA
ATOM     15  C   UNL     1       1.231   8.602  20.730  0.00  0.00    +0.000 C 
ATOM     16  C   UNL     1      -0.186   9.184  20.909  0.00  0.00    +0.000 C 
BRANCH   7  17
ATOM     17  O   UNL     1      -0.759  11.378  22.394  0.00  0.00    +0.000 OA
BRANCH  17  19
ATOM     18  C   UNL     1      -1.836  13.225  23.453  0.00  0.00    +0.000 C 
ATOM     19  C   UNL     1      -2.025  11.824  22.899  0.00  0.00    +0.000 C 
ENDBRANCH  17  19
ENDBRANCH   7  17
ENDBRANCH   1  13
BRANCH   5  20
ATOM     20  C   UNL     1       4.202   3.624  17.447  0.00  0.00    +0.000 C 
BRANCH  20  21
ATOM     21  C   UNL     1       5.266   3.990  16.441  0.00  0.00    +0.000 A 
ATOM     22  C   UNL     1       5.033   3.969  15.062  0.00  0.00    +0.000 A 
ATOM     23  C   UNL     1       5.993   4.457  14.168  0.00  0.00    +0.000 A 
ATOM     24  C   UNL     1       7.188   5.005  14.635  0.00  0.00    +0.000 A 
ATOM     25  C   UNL     1       7.448   5.002  16.004  0.00  0.00    +0.000 A 
ATOM     26  C   UNL     1       6.492   4.505  16.896  0.00  0.00    +0.000 A 
BRANCH  24  27
ATOM     27  O   UNL     1       8.038   5.490  13.679  0.00  0.00    +0.000 OA
ATOM     28  C   UNL     1       7.659   5.202  12.336  0.00  0.00    +0.000 C 
ENDBRANCH  24  27
ENDBRANCH  20  21
ENDBRANCH   5  20
TORSDOF 6
ENDMDL
MODEL 5
REMARK VINA RESULT:      -6.3      2.457     10.064
REMARK  Name = 
REMARK  8 active torsions:
REMARK  status: ('A' for Active; 'I' for Inactive)
REMARK    1  A    between atoms: C_1  and  C_2
REMARK    2  A    between atoms: C_2  and  O_3
REMARK    3  A    between atoms: O_3  and  C_4
REMARK    4  A    between atoms: C_10  and  C_12
REMARK    5  A    between atoms: N_16  and  C_17
REMARK    6  A    between atoms: C_17  and  C_18
REMARK    7  A    between atoms: C_21  and  O_22
REMARK    8  A    between atoms: O_22  and  C_23
REMARK                            x       y       z     vdW  Elec       q    Type
REMARK                         _______ _______ _______ _____ _____    ______ ____
ROOT
ATOM      1  C   UNL     1       1.353   9.280  18.094  0.00  0.00    +0.000 C 
ATOM      2  C   UNL     1       2.287  10.492  18.133  0.00  0.00    +0.000 C 
ATOM      3  C   UNL     1       1.444  11.605  18.699  0.00  0.00    +0.000 C 
ATOM      4  O   UNL     1       1.869  12.714  18.984  0.00  0.00    +0.000 OA
ATOM      5  N   UNL     1       0.127  11.192  18.737  0.00  0.00    +0.000 N 
ATOM      6  C   UNL     1      -0.051   9.866  18.203  0.00  0.00    +0.000 C 
ENDROOT
BRANCH   1  13
ATOM      7  C   UNL     1       5.081   4.165  18.252  0.00  0.00    +0.000 C 
ATOM      8  O   UNL     1       5.335   3.375  19.152  0.00  0.00    +0.000 OA
ATOM      9  N   UNL     1       3.963   4.974  18.226  0.00  0.00    +0.000 N 
ATOM     10  C   UNL     1       3.050   4.987  19.372  0.00  0.00    +0.000 C 
ATOM     11  C   UNL     1       3.004   6.378  20.032  0.00  0.00    +0.000 C 
ATOM     12  N   UNL     1       2.757   7.433  19.033  0.00  0.00    +0.000 N 
ATOM     13  C   UNL     1       1.683   8.296  19.211  0.00  0.00    +0.000 C 
ATOM     14  O   UNL     1       1.009   8.275  20.241  0.00  0.00    +0.000 OA
ATOM     15  C   UNL     1       3.708   7.417  17.907  0.00  0.00    +0.000 C 
ATOM     16  C   UNL     1       3.741   6.030  17.232  0.00  0.00    +0.000 C 
BRANCH   7  17
ATOM     17  O   UNL     1       5.908   4.402  17.198  0.00  0.00    +0.000 OA
BRANCH  17  19
ATOM     18  C   UNL     1       7.433   6.041  18.021  0.00  0.00    +0.000 C 
ATOM     19  C   UNL     1       7.287   4.611  17.532  0.00  0.00    +0.000 C 
ENDBRANCH  17  19
ENDBRANCH   7  17
ENDBRANCH   1  13
BRANCH   5  20
ATOM     20  C   UNL     1      -0.985  12.122  18.882  0.00  0.00    +0.000 C 
BRANCH  20  21
ATOM     21  C   UNL     1      -1.698  12.107  20.212  0.00  0.00    +0.000 A 
ATOM     22  C   UNL     1      -1.087  11.655  21.386  0.00  0.00    +0.000 A 
ATOM     23  C   UNL     1      -1.724  11.796  22.623  0.00  0.00    +0.000 A 
ATOM     24  C   UNL     1      -2.969  12.421  22.716  0.00  0.00    +0.000 A 
ATOM     25  C   UNL     1      -3.604  12.846  21.552  0.00  0.00    +0.000 A 
ATOM     26  C   UNL     1      -2.971  12.695  20.315  0.00  0.00    +0.000 A 
BRANCH  24  27
ATOM     27  O   UNL     1      -3.484  12.543  23.978  0.00  0.00    +0.000 OA
ATOM     28  C   UNL     1      -3.901  13.859  24.332  0.00  0.00    +0.000 C 
ENDBRANCH  24  27
ENDBRANCH  20  21
ENDBRANCH   5  20
TORSDOF 6
ENDMDL
MODEL 6
REMARK VINA RESULT:      -6.2      2.209      9.422
REMARK  Name = 
REMARK  8 active torsions:
REMARK  status: ('A' for Active; 'I' for Inactive)
REMARK    1  A    between atoms: C_1  and  C_2
REMARK    2  A    between atoms: C_2  and  O_3
REMARK    3  A    between atoms: O_3  and  C_4
REMARK    4  A    between atoms: C_10  and  C_12
REMARK    5  A    between atoms: N_16  and  C_17
REMARK    6  A    between atoms: C_17  and  C_18
REMARK    7  A    between atoms: C_21  and  O_22
REMARK    8  A    between atoms: O_22  and  C_23
REMARK                            x       y       z     vdW  Elec       q    Type
REMARK                         _______ _______ _______ _____ _____    ______ ____
ROOT
ATOM      1  C   UNL     1       1.880   8.346  20.670  0.00  0.00    +0.000 C 
ATOM      2  C   UNL     1       1.151   9.056  21.813  0.00  0.00    +0.000 C 
ATOM      3  C   UNL     1       0.129   9.927  21.130  0.00  0.00    +0.000 C 
ATOM      4  O   UNL     1      -0.725  10.575  21.716  0.00  0.00    +0.000 OA
ATOM      5  N   UNL     1       0.390   9.943  19.774  0.00  0.00    +0.000 N 
ATOM      6  C   UNL     1       1.555   9.171  19.429  0.00  0.00    +0.000 C 
ENDROOT
BRANCH   1  13
ATOM      7  C   UNL     1       4.116   3.509  17.251  0.00  0.00    +0.000 C 
ATOM      8  O   UNL     1       3.751   2.343  17.161  0.00  0.00    +0.000 OA
ATOM      9  N   UNL     1       3.313   4.537  17.702  0.00  0.00    +0.000 N 
ATOM     10  C   UNL     1       1.968   4.242  18.202  0.00  0.00    +0.000 C 
ATOM     11  C   UNL     1       1.833   4.612  19.691  0.00  0.00    +0.000 C 
ATOM     12  N   UNL     1       2.297   5.989  19.941  0.00  0.00    +0.000 N 
ATOM     13  C   UNL     1       1.440   6.891  20.557  0.00  0.00    +0.000 C 
ATOM     14  O   UNL     1       0.350   6.534  21.005  0.00  0.00    +0.000 OA
ATOM     15  C   UNL     1       3.664   6.250  19.456  0.00  0.00    +0.000 C 
ATOM     16  C   UNL     1       3.796   5.898  17.960  0.00  0.00    +0.000 C 
BRANCH   7  17
ATOM     17  O   UNL     1       5.384   3.926  16.991  0.00  0.00    +0.000 OA
BRANCH  17  19
ATOM     18  C   UNL     1       6.487   5.010  15.175  0.00  0.00    +0.000 C 
ATOM     19  C   UNL     1       5.837   3.721  15.646  0.00  0.00    +0.000 C 
ENDBRANCH  17  19
ENDBRANCH   7  17
ENDBRANCH   1  13
BRANCH   5  20
ATOM     20  C   UNL     1      -0.164  10.949  18.879  0.00  0.00    +0.000 C 
BRANCH  20  21
ATOM     21  C   UNL     1      -1.656  10.898  18.659  0.00  0.00    +0.000 A 
ATOM     22  C   UNL     1      -2.516  11.900  19.121  0.00  0.00    +0.000 A 
ATOM     23  C   UNL     1      -3.871  11.896  18.770  0.00  0.00    +0.000 A 
ATOM     24  C   UNL     1      -4.385  10.912  17.925  0.00  0.00    +0.000 A 
ATOM     25  C   UNL     1      -3.547   9.889  17.484  0.00  0.00    +0.000 A 
ATOM     26  C   UNL     1      -2.196   9.889  17.844  0.00  0.00    +0.000 A 
BRANCH  24  27
ATOM     27  O   UNL     1      -5.712  11.024  17.612  0.00  0.00    +0.000 OA
ATOM     28  C   UNL     1      -6.608  10.697  18.671  0.00  0.00    +0.000 C 
ENDBRANCH  24  27
ENDBRANCH  20  21
ENDBRANCH   5  20
TORSDOF 6
ENDMDL
MODEL 7
REMARK VINA RESULT:      -6.2      2.281     10.233
REMARK  Name = 
REMARK  8 active torsions:
REMARK  status: ('A' for Active; 'I' for Inactive)
REMARK    1  A    between atoms: C_1  and  C_2
REMARK    2  A    between atoms: C_2  and  O_3
REMARK    3  A    between atoms: O_3  and  C_4
REMARK    4  A    between atoms: C_10  and  C_12
REMARK    5  A    between atoms: N_16  and  C_17
REMARK    6  A    between atoms: C_17  and  C_18
REMARK    7  A    between atoms: C_21  and  O_22
REMARK    8  A    between atoms: O_22  and  C_23
REMARK                            x       y       z     vdW  Elec       q    Type
REMARK                         _______ _______ _______ _____ _____    ______ ____
ROOT
ATOM      1  C   UNL     1       0.966   9.751  18.487  0.00  0.00    +0.000 C 
ATOM      2  C   UNL     1       1.742  11.069  18.532  0.00  0.00    +0.000 C 
ATOM      3  C   UNL     1       0.710  12.107  18.888  0.00  0.00    +0.000 C 
ATOM      4  O   UNL     1       0.964  13.278  19.122  0.00  0.00    +0.000 OA
ATOM      5  N   UNL     1      -0.545  11.537  18.801  0.00  0.00    +0.000 N 
ATOM      6  C   UNL     1      -0.497  10.163  18.370  0.00  0.00    +0.000 C 
ENDROOT
BRANCH   1  13
ATOM      7  C   UNL     1       3.258   3.884  19.130  0.00  0.00    +0.000 C 
ATOM      8  O   UNL     1       3.481   3.205  20.125  0.00  0.00    +0.000 OA
ATOM      9  N   UNL     1       2.395   4.960  19.106  0.00  0.00    +0.000 N 
ATOM     10  C   UNL     1       1.760   5.408  20.347  0.00  0.00    +0.000 C 
ATOM     11  C   UNL     1       2.193   6.842  20.709  0.00  0.00    +0.000 C 
ATOM     12  N   UNL     1       2.023   7.754  19.564  0.00  0.00    +0.000 N 
ATOM     13  C   UNL     1       1.255   8.901  19.720  0.00  0.00    +0.000 C 
ATOM     14  O   UNL     1       0.815   9.232  20.821  0.00  0.00    +0.000 OA
ATOM     15  C   UNL     1       2.697   7.295  18.336  0.00  0.00    +0.000 C 
ATOM     16  C   UNL     1       2.250   5.867  17.962  0.00  0.00    +0.000 C 
BRANCH   7  17
ATOM     17  O   UNL     1       3.893   3.710  17.939  0.00  0.00    +0.000 OA
BRANCH  17  19
ATOM     18  C   UNL     1       5.590   4.601  16.519  0.00  0.00    +0.000 C 
ATOM     19  C   UNL     1       5.274   4.093  17.915  0.00  0.00    +0.000 C 
ENDBRANCH  17  19
ENDBRANCH   7  17
ENDBRANCH   1  13
BRANCH   5  20
ATOM     20  C   UNL     1      -1.765  12.329  18.725  0.00  0.00    +0.000 C 
BRANCH  20  21
ATOM     21  C   UNL     1      -2.596  12.398  19.983  0.00  0.00    +0.000 A 
ATOM     22  C   UNL     1      -2.023  12.506  21.254  0.00  0.00    +0.000 A 
ATOM     23  C   UNL     1      -2.824  12.718  22.382  0.00  0.00    +0.000 A 
ATOM     24  C   UNL     1      -4.207  12.860  22.258  0.00  0.00    +0.000 A 
ATOM     25  C   UNL     1      -4.794  12.722  21.002  0.00  0.00    +0.000 A 
ATOM     26  C   UNL     1      -3.994  12.499  19.877  0.00  0.00    +0.000 A 
BRANCH  24  27
ATOM     27  O   UNL     1      -4.890  13.105  23.418  0.00  0.00    +0.000 OA
ATOM     28  C   UNL     1      -4.388  12.425  24.565  0.00  0.00    +0.000 C 
ENDBRANCH  24  27
ENDBRANCH  20  21
ENDBRANCH   5  20
TORSDOF 6
ENDMDL
MODEL 8
REMARK VINA RESULT:      -6.2      2.974     10.107
REMARK  Name = 
REMARK  8 active torsions:
REMARK  status: ('A' for Active; 'I' for Inactive)
REMARK    1  A    between atoms: C_1  and  C_2
REMARK    2  A    between atoms: C_2  and  O_3
REMARK    3  A    between atoms: O_3  and  C_4
REMARK    4  A    between atoms: C_10  and  C_12
REMARK    5  A    between atoms: N_16  and  C_17
REMARK    6  A    between atoms: C_17  and  C_18
REMARK    7  A    between atoms: C_21  and  O_22
REMARK    8  A    between atoms: O_22  and  C_23
REMARK                            x       y       z     vdW  Elec       q    Type
REMARK                         _______ _______ _______ _____ _____    ______ ____
ROOT
ATOM      1  C   UNL     1       0.800   9.007  18.949  0.00  0.00    +0.000 C 
ATOM      2  C   UNL     1      -0.191   9.905  18.206  0.00  0.00    +0.000 C 
ATOM      3  C   UNL     1       0.011  11.273  18.805  0.00  0.00    +0.000 C 
ATOM      4  O   UNL     1      -0.529  12.289  18.397  0.00  0.00    +0.000 OA
ATOM      5  N   UNL     1       0.809  11.156  19.925  0.00  0.00    +0.000 N 
ATOM      6  C   UNL     1       1.171   9.790  20.203  0.00  0.00    +0.000 C 
ENDROOT
BRANCH   1  13
ATOM      7  C   UNL     1       4.911   4.193  19.077  0.00  0.00    +0.000 C 
ATOM      8  O   UNL     1       5.879   3.935  18.372  0.00  0.00    +0.000 OA
ATOM      9  N   UNL     1       4.360   5.453  19.202  0.00  0.00    +0.000 N 
ATOM     10  C   UNL     1       4.876   6.554  18.386  0.00  0.00    +0.000 C 
ATOM     11  C   UNL     1       3.793   7.097  17.433  0.00  0.00    +0.000 C 
ATOM     12  N   UNL     1       2.547   7.397  18.161  0.00  0.00    +0.000 N 
ATOM     13  C   UNL     1       2.001   8.671  18.071  0.00  0.00    +0.000 C 
ATOM     14  O   UNL     1       2.468   9.515  17.306  0.00  0.00    +0.000 OA
ATOM     15  C   UNL     1       2.034   6.263  18.949  0.00  0.00    +0.000 C 
ATOM     16  C   UNL     1       3.110   5.730  19.917  0.00  0.00    +0.000 C 
BRANCH   7  17
ATOM     17  O   UNL     1       4.208   3.256  19.767  0.00  0.00    +0.000 OA
BRANCH  17  19
ATOM     18  C   UNL     1       2.188   2.174  19.105  0.00  0.00    +0.000 C 
ATOM     19  C   UNL     1       3.701   2.165  18.986  0.00  0.00    +0.000 C 
ENDBRANCH  17  19
ENDBRANCH   7  17
ENDBRANCH   1  13
BRANCH   5  20
ATOM     20  C   UNL     1       0.905  12.201  20.934  0.00  0.00    +0.000 C 
BRANCH  20  21
ATOM     21  C   UNL     1      -0.359  12.508  21.701  0.00  0.00    +0.000 A 
ATOM     22  C   UNL     1      -0.959  11.580  22.558  0.00  0.00    +0.000 A 
ATOM     23  C   UNL     1      -2.041  11.948  23.364  0.00  0.00    +0.000 A 
ATOM     24  C   UNL     1      -2.523  13.258  23.355  0.00  0.00    +0.000 A 
ATOM     25  C   UNL     1      -1.956  14.185  22.482  0.00  0.00    +0.000 A 
ATOM     26  C   UNL     1      -0.881  13.812  21.669  0.00  0.00    +0.000 A 
BRANCH  24  27
ATOM     27  O   UNL     1      -3.557  13.522  24.211  0.00  0.00    +0.000 OA
ATOM     28  C   UNL     1      -4.361  12.394  24.546  0.00  0.00    +0.000 C 
ENDBRANCH  24  27
ENDBRANCH  20  21
ENDBRANCH   5  20
TORSDOF 6
ENDMDL
MODEL 9
REMARK VINA RESULT:      -6.0      2.202      8.861
REMARK  Name = 
REMARK  8 active torsions:
REMARK  status: ('A' for Active; 'I' for Inactive)
REMARK    1  A    between atoms: C_1  and  C_2
REMARK    2  A    between atoms: C_2  and  O_3
REMARK    3  A    between atoms: O_3  and  C_4
REMARK    4  A    between atoms: C_10  and  C_12
REMARK    5  A    between atoms: N_16  and  C_17
REMARK    6  A    between atoms: C_17  and  C_18
REMARK    7  A    between atoms: C_21  and  O_22
REMARK    8  A    between atoms: O_22  and  C_23
REMARK                            x       y       z     vdW  Elec       q    Type
REMARK                         _______ _______ _______ _____ _____    ______ ____
ROOT
ATOM      1  C   UNL     1       1.782   8.681  20.884  0.00  0.00    +0.000 C 
ATOM      2  C   UNL     1       1.527   9.148  22.319  0.00  0.00    +0.000 C 
ATOM      3  C   UNL     1       0.318  10.042  22.220  0.00  0.00    +0.000 C 
ATOM      4  O   UNL     1      -0.259  10.528  23.180  0.00  0.00    +0.000 OA
ATOM      5  N   UNL     1       0.056  10.291  20.887  0.00  0.00    +0.000 N 
ATOM      6  C   UNL     1       1.014   9.667  20.011  0.00  0.00    +0.000 C 
ENDROOT
BRANCH   1  13
ATOM      7  C   UNL     1       3.947   4.071  17.123  0.00  0.00    +0.000 C 
ATOM      8  O   UNL     1       3.582   2.912  16.968  0.00  0.00    +0.000 OA
ATOM      9  N   UNL     1       3.153   5.067  17.654  0.00  0.00    +0.000 N 
ATOM     10  C   UNL     1       1.820   4.739  18.163  0.00  0.00    +0.000 C 
ATOM     11  C   UNL     1       1.717   5.015  19.676  0.00  0.00    +0.000 C 
ATOM     12  N   UNL     1       2.185   6.374  20.001  0.00  0.00    +0.000 N 
ATOM     13  C   UNL     1       1.340   7.234  20.691  0.00  0.00    +0.000 C 
ATOM     14  O   UNL     1       0.261   6.848  21.139  0.00  0.00    +0.000 OA
ATOM     15  C   UNL     1       3.541   6.668  19.504  0.00  0.00    +0.000 C 
ATOM     16  C   UNL     1       3.641   6.410  17.987  0.00  0.00    +0.000 C 
BRANCH   7  17
ATOM     17  O   UNL     1       5.209   4.506  16.862  0.00  0.00    +0.000 OA
BRANCH  17  19
ATOM     18  C   UNL     1       5.776   4.637  14.549  0.00  0.00    +0.000 C 
ATOM     19  C   UNL     1       5.898   3.809  15.815  0.00  0.00    +0.000 C 
ENDBRANCH  17  19
ENDBRANCH   7  17
ENDBRANCH   1  13
BRANCH   5  20
ATOM     20  C   UNL     1      -0.797  11.385  20.445  0.00  0.00    +0.000 C 
BRANCH  20  21
ATOM     21  C   UNL     1      -1.536  11.172  19.146  0.00  0.00    +0.000 A 
ATOM     22  C   UNL     1      -1.090  10.276  18.168  0.00  0.00    +0.000 A 
ATOM     23  C   UNL     1      -1.877   9.995  17.046  0.00  0.00    +0.000 A 
ATOM     24  C   UNL     1      -3.137  10.576  16.896  0.00  0.00    +0.000 A 
ATOM     25  C   UNL     1      -3.580  11.495  17.844  0.00  0.00    +0.000 A 
ATOM     26  C   UNL     1      -2.787  11.784  18.960  0.00  0.00    +0.000 A 
BRANCH  24  27
ATOM     27  O   UNL     1      -3.840  10.201  15.783  0.00  0.00    +0.000 OA
ATOM     28  C   UNL     1      -3.076  10.142  14.581  0.00  0.00    +0.000 C 
ENDBRANCH  24  27
ENDBRANCH  20  21
ENDBRANCH   5  20
TORSDOF 6
ENDMDL
