MODEL 1
REMARK VINA RESULT:      -8.6      0.000      0.000
REMARK  Name = 
REMARK  7 active torsions:
REMARK  status: ('A' for Active; 'I' for Inactive)
REMARK    1  A    between atoms: C_1  and  S_2
REMARK    2  A    between atoms: S_2  and  N_5
REMARK    3  A    between atoms: N_5  and  C_6
REMARK    4  A    between atoms: N_5  and  C_17
REMARK    5  A    between atoms: C_6  and  C_7
REMARK    6  A    between atoms: N_9  and  C_10
REMARK    7  A    between atoms: C_21  and  C_22
REMARK                            x       y       z     vdW  Elec       q    Type
REMARK                         _______ _______ _______ _____ _____    ______ ____
ROOT
ATOM      1  N   UNL     1       5.914   5.015  16.028  0.00  0.00    +0.000 N 
ENDROOT
BRANCH   1   2
ATOM      2  C   UNL     1       6.233   4.738  14.666  0.00  0.00    +0.000 A 
ATOM      3  C   UNL     1       7.497   5.051  14.166  0.00  0.00    +0.000 A 
ATOM      4  C   UNL     1       7.807   4.769  12.836  0.00  0.00    +0.000 A 
ATOM      5  C   UNL     1       6.861   4.159  12.011  0.00  0.00    +0.000 A 
ATOM      6  C   UNL     1       5.592   3.823  12.507  0.00  0.00    +0.000 A 
ATOM      7  C   UNL     1       5.284   4.122  13.846  0.00  0.00    +0.000 A 
BRANCH   6   8
ATOM      8  C   UNL     1       4.571   3.139  11.629  0.00  0.00    +0.000 C 
ATOM      9  F   UNL     1       4.258   3.851  10.508  0.00  0.00    +0.000 F 
ATOM     10  F   UNL     1       5.003   1.927  11.183  0.00  0.00    +0.000 F 
ATOM     11  F   UNL     1       3.391   2.907  12.264  0.00  0.00    +0.000 F 
ENDBRANCH   6   8
ENDBRANCH   1   2
BRANCH   1  13
ATOM     12  C   UNL     1       6.587   7.321  17.362  0.00  0.00    +0.000 C 
ATOM     13  S   UNL     1       5.284   6.515  16.443  0.00  0.00    +0.000 S 
ATOM     14  O   UNL     1       4.177   6.295  17.350  0.00  0.00    +0.000 OA
ATOM     15  O   UNL     1       5.089   7.280  15.225  0.00  0.00    +0.000 OA
ENDBRANCH   1  13
BRANCH   1  16
ATOM     16  C   UNL     1       6.223   4.018  17.064  0.00  0.00    +0.000 C 
BRANCH  16  17
ATOM     17  C   UNL     1       5.504   4.212  18.388  0.00  0.00    +0.000 C 
ATOM     18  O   UNL     1       6.025   4.747  19.366  0.00  0.00    +0.000 OA
ATOM     19  N   UNL     1       4.214   3.704  18.414  0.00  0.00    +0.000 N 
ATOM     20  H   UNL     1       3.786   3.409  17.543  0.00  0.00    +0.000 HD
BRANCH  19  21
ATOM     21  C   UNL     1       3.359   3.893  19.571  0.00  0.00    +0.000 C 
ATOM     22  C   UNL     1       2.926   2.576  20.253  0.00  0.00    +0.000 C 
ATOM     23  C   UNL     1       1.387   2.651  20.203  0.00  0.00    +0.000 C 
ATOM     24  C   UNL     1       0.927   2.466  18.746  0.00  0.00    +0.000 C 
ATOM     25  C   UNL     1       1.295   3.807  18.095  0.00  0.00    +0.000 C 
ATOM     26  C   UNL     1       2.000   4.560  19.237  0.00  0.00    +0.000 C 
ATOM     27  C   UNL     1       1.143   4.142  20.434  0.00  0.00    +0.000 C 
ENDBRANCH  19  21
ENDBRANCH  16  17
ENDBRANCH   1  16
TORSDOF 6
ENDMDL
MODEL 2
REMARK VINA RESULT:      -8.5      1.462      2.081
REMARK  Name = 
REMARK  7 active torsions:
REMARK  status: ('A' for Active; 'I' for Inactive)
REMARK    1  A    between atoms: C_1  and  S_2
REMARK    2  A    between atoms: S_2  and  N_5
REMARK    3  A    between atoms: N_5  and  C_6
REMARK    4  A    between atoms: N_5  and  C_17
REMARK    5  A    between atoms: C_6  and  C_7
REMARK    6  A    between atoms: N_9  and  C_10
REMARK    7  A    between atoms: C_21  and  C_22
REMARK                            x       y       z     vdW  Elec       q    Type
REMARK                         _______ _______ _______ _____ _____    ______ ____
ROOT
ATOM      1  N   UNL     1       5.975   5.258  15.884  0.00  0.00    +0.000 N 
ENDROOT
BRANCH   1   2
ATOM      2  C   UNL     1       6.295   4.911  14.539  0.00  0.00    +0.000 A 
ATOM      3  C   UNL     1       7.552   5.220  14.017  0.00  0.00    +0.000 A 
ATOM      4  C   UNL     1       7.863   4.869  12.704  0.00  0.00    +0.000 A 
ATOM      5  C   UNL     1       6.927   4.194  11.919  0.00  0.00    +0.000 A 
ATOM      6  C   UNL     1       5.666   3.862  12.438  0.00  0.00    +0.000 A 
ATOM      7  C   UNL     1       5.357   4.230  13.759  0.00  0.00    +0.000 A 
BRANCH   6   8
ATOM      8  C   UNL     1       4.657   3.109  11.605  0.00  0.00    +0.000 C 
ATOM      9  F   UNL     1       3.493   2.852  12.268  0.00  0.00    +0.000 F 
ATOM     10  F   UNL     1       4.297   3.795  10.484  0.00  0.00    +0.000 F 
ATOM     11  F   UNL     1       5.114   1.902  11.175  0.00  0.00    +0.000 F 
ENDBRANCH   6   8
ENDBRANCH   1   2
BRANCH   1  13
ATOM     12  C   UNL     1       6.397   5.756  18.553  0.00  0.00    +0.000 C 
ATOM     13  S   UNL     1       7.213   5.573  16.975  0.00  0.00    +0.000 S 
ATOM     14  O   UNL     1       7.792   6.855  16.629  0.00  0.00    +0.000 OA
ATOM     15  O   UNL     1       8.052   4.393  17.066  0.00  0.00    +0.000 OA
ENDBRANCH   1  13
BRANCH   1  16
ATOM     16  C   UNL     1       4.572   5.250  16.323  0.00  0.00    +0.000 C 
BRANCH  16  17
ATOM     17  C   UNL     1       4.138   4.010  17.087  0.00  0.00    +0.000 C 
ATOM     18  O   UNL     1       4.787   2.964  17.100  0.00  0.00    +0.000 OA
ATOM     19  N   UNL     1       2.924   4.143  17.744  0.00  0.00    +0.000 N 
ATOM     20  H   UNL     1       2.508   5.065  17.821  0.00  0.00    +0.000 HD
BRANCH  19  21
ATOM     21  C   UNL     1       2.415   3.085  18.596  0.00  0.00    +0.000 C 
ATOM     22  C   UNL     1       0.876   3.074  18.731  0.00  0.00    +0.000 C 
ATOM     23  C   UNL     1       0.660   3.200  20.252  0.00  0.00    +0.000 C 
ATOM     24  C   UNL     1       1.047   4.623  20.692  0.00  0.00    +0.000 C 
ATOM     25  C   UNL     1       2.580   4.601  20.626  0.00  0.00    +0.000 C 
ATOM     26  C   UNL     1       2.879   3.197  20.071  0.00  0.00    +0.000 C 
ATOM     27  C   UNL     1       1.819   2.366  20.797  0.00  0.00    +0.000 C 
ENDBRANCH  19  21
ENDBRANCH  16  17
ENDBRANCH   1  16
TORSDOF 6
ENDMDL
MODEL 3
REMARK VINA RESULT:      -8.2      4.972      7.777
REMARK  Name = 
REMARK  7 active torsions:
REMARK  status: ('A' for Active; 'I' for Inactive)
REMARK    1  A    between atoms: C_1  and  S_2
REMARK    2  A    between atoms: S_2  and  N_5
REMARK    3  A    between atoms: N_5  and  C_6
REMARK    4  A    between atoms: N_5  and  C_17
REMARK    5  A    between atoms: C_6  and  C_7
REMARK    6  A    between atoms: N_9  and  C_10
REMARK    7  A    between atoms: C_21  and  C_22
REMARK                            x       y       z     vdW  Elec       q    Type
REMARK                         _______ _______ _______ _____ _____    ______ ____
ROOT
ATOM      1  N   UNL     1       2.701   5.134  19.409  0.00  0.00    +0.000 N 
ENDROOT
BRANCH   1   2
ATOM      2  C   UNL     1       2.292   6.498  19.358  0.00  0.00    +0.000 A 
ATOM      3  C   UNL     1       2.423   7.224  18.174  0.00  0.00    +0.000 A 
ATOM      4  C   UNL     1       2.012   8.556  18.126  0.00  0.00    +0.000 A 
ATOM      5  C   UNL     1       1.453   9.156  19.256  0.00  0.00    +0.000 A 
ATOM      6  C   UNL     1       1.299   8.432  20.448  0.00  0.00    +0.000 A 
ATOM      7  C   UNL     1       1.728   7.094  20.490  0.00  0.00    +0.000 A 
BRANCH   6   8
ATOM      8  C   UNL     1       0.672   9.066  21.666  0.00  0.00    +0.000 C 
ATOM      9  F   UNL     1      -0.449   8.417  22.096  0.00  0.00    +0.000 F 
ATOM     10  F   UNL     1       1.518   9.081  22.734  0.00  0.00    +0.000 F 
ATOM     11  F   UNL     1       0.298  10.358  21.464  0.00  0.00    +0.000 F 
ENDBRANCH   6   8
ENDBRANCH   1   2
BRANCH   1  13
ATOM     12  C   UNL     1       2.650   2.454  18.802  0.00  0.00    +0.000 C 
ATOM     13  S   UNL     1       1.653   3.934  18.878  0.00  0.00    +0.000 S 
ATOM     14  O   UNL     1       1.252   4.264  17.526  0.00  0.00    +0.000 OA
ATOM     15  O   UNL     1       0.650   3.717  19.905  0.00  0.00    +0.000 OA
ENDBRANCH   1  13
BRANCH   1  16
ATOM     16  C   UNL     1       3.998   4.786  20.008  0.00  0.00    +0.000 C 
BRANCH  16  17
ATOM     17  C   UNL     1       5.217   5.176  19.189  0.00  0.00    +0.000 C 
ATOM     18  O   UNL     1       6.341   5.308  19.674  0.00  0.00    +0.000 OA
ATOM     19  N   UNL     1       4.951   5.405  17.848  0.00  0.00    +0.000 N 
ATOM     20  H   UNL     1       4.046   5.139  17.476  0.00  0.00    +0.000 HD
BRANCH  19  21
ATOM     21  C   UNL     1       6.022   5.692  16.911  0.00  0.00    +0.000 C 
ATOM     22  C   UNL     1       5.543   6.330  15.588  0.00  0.00    +0.000 C 
ATOM     23  C   UNL     1       6.063   5.346  14.521  0.00  0.00    +0.000 C 
ATOM     24  C   UNL     1       5.246   4.044  14.606  0.00  0.00    +0.000 C 
ATOM     25  C   UNL     1       5.781   3.383  15.884  0.00  0.00    +0.000 C 
ATOM     26  C   UNL     1       6.774   4.429  16.421  0.00  0.00    +0.000 C 
ATOM     27  C   UNL     1       7.405   4.925  15.119  0.00  0.00    +0.000 C 
ENDBRANCH  19  21
ENDBRANCH  16  17
ENDBRANCH   1  16
TORSDOF 6
ENDMDL
MODEL 4
REMARK VINA RESULT:      -8.2      1.373      2.111
REMARK  Name = 
REMARK  7 active torsions:
REMARK  status: ('A' for Active; 'I' for Inactive)
REMARK    1  A    between atoms: C_1  and  S_2
REMARK    2  A    between atoms: S_2  and  N_5
REMARK    3  A    between atoms: N_5  and  C_6
REMARK    4  A    between atoms: N_5  and  C_17
REMARK    5  A    between atoms: C_6  and  C_7
REMARK    6  A    between atoms: N_9  and  C_10
REMARK    7  A    between atoms: C_21  and  C_22
REMARK                            x       y       z     vdW  Elec       q    Type
REMARK                         _______ _______ _______ _____ _____    ______ ____
ROOT
ATOM      1  N   UNL     1       6.116   5.529  16.083  0.00  0.00    +0.000 N 
ENDROOT
BRANCH   1   2
ATOM      2  C   UNL     1       6.427   5.118  14.753  0.00  0.00    +0.000 A 
ATOM      3  C   UNL     1       7.675   5.414  14.203  0.00  0.00    +0.000 A 
ATOM      4  C   UNL     1       7.978   5.000  12.906  0.00  0.00    +0.000 A 
ATOM      5  C   UNL     1       7.041   4.277  12.166  0.00  0.00    +0.000 A 
ATOM      6  C   UNL     1       5.790   3.957  12.714  0.00  0.00    +0.000 A 
ATOM      7  C   UNL     1       5.489   4.389  14.018  0.00  0.00    +0.000 A 
BRANCH   6   8
ATOM      8  C   UNL     1       4.781   3.152  11.931  0.00  0.00    +0.000 C 
ATOM      9  F   UNL     1       3.613   2.946  12.605  0.00  0.00    +0.000 F 
ATOM     10  F   UNL     1       4.428   3.761  10.764  0.00  0.00    +0.000 F 
ATOM     11  F   UNL     1       5.234   1.917  11.588  0.00  0.00    +0.000 F 
ENDBRANCH   6   8
ENDBRANCH   1   2
BRANCH   1  13
ATOM     12  C   UNL     1       7.509   6.253  18.338  0.00  0.00    +0.000 C 
ATOM     13  S   UNL     1       6.952   4.856  17.374  0.00  0.00    +0.000 S 
ATOM     14  O   UNL     1       8.125   4.192  16.845  0.00  0.00    +0.000 OA
ATOM     15  O   UNL     1       6.007   4.124  18.197  0.00  0.00    +0.000 OA
ENDBRANCH   1  13
BRANCH   1  16
ATOM     16  C   UNL     1       5.010   6.470  16.313  0.00  0.00    +0.000 C 
BRANCH  16  17
ATOM     17  C   UNL     1       4.109   6.137  17.490  0.00  0.00    +0.000 C 
ATOM     18  O   UNL     1       3.994   6.864  18.477  0.00  0.00    +0.000 OA
ATOM     19  N   UNL     1       3.449   4.923  17.376  0.00  0.00    +0.000 N 
ATOM     20  H   UNL     1       3.465   4.440  16.485  0.00  0.00    +0.000 HD
BRANCH  19  21
ATOM     21  C   UNL     1       2.478   4.503  18.370  0.00  0.00    +0.000 C 
ATOM     22  C   UNL     1       3.107   4.026  19.698  0.00  0.00    +0.000 C 
ATOM     23  C   UNL     1       2.564   2.590  19.841  0.00  0.00    +0.000 C 
ATOM     24  C   UNL     1       3.239   1.696  18.786  0.00  0.00    +0.000 C 
ATOM     25  C   UNL     1       2.555   2.126  17.480  0.00  0.00    +0.000 C 
ATOM     26  C   UNL     1       1.638   3.275  17.936  0.00  0.00    +0.000 C 
ATOM     27  C   UNL     1       1.149   2.739  19.283  0.00  0.00    +0.000 C 
ENDBRANCH  19  21
ENDBRANCH  16  17
ENDBRANCH   1  16
TORSDOF 6
ENDMDL
MODEL 5
REMARK VINA RESULT:      -8.2      1.559      2.050
REMARK  Name = 
REMARK  7 active torsions:
REMARK  status: ('A' for Active; 'I' for Inactive)
REMARK    1  A    between atoms: C_1  and  S_2
REMARK    2  A    between atoms: S_2  and  N_5
REMARK    3  A    between atoms: N_5  and  C_6
REMARK    4  A    between atoms: N_5  and  C_17
REMARK    5  A    between atoms: C_6  and  C_7
REMARK    6  A    between atoms: N_9  and  C_10
REMARK    7  A    between atoms: C_21  and  C_22
REMARK                            x       y       z     vdW  Elec       q    Type
REMARK                         _______ _______ _______ _____ _____    ______ ____
ROOT
ATOM      1  N   UNL     1       5.924   4.883  16.279  0.00  0.00    +0.000 N 
ENDROOT
BRANCH   1   2
ATOM      2  C   UNL     1       6.277   4.723  14.907  0.00  0.00    +0.000 A 
ATOM      3  C   UNL     1       7.496   5.212  14.437  0.00  0.00    +0.000 A 
ATOM      4  C   UNL     1       7.841   5.044  13.096  0.00  0.00    +0.000 A 
ATOM      5  C   UNL     1       6.977   4.372  12.231  0.00  0.00    +0.000 A 
ATOM      6  C   UNL     1       5.756   3.860  12.695  0.00  0.00    +0.000 A 
ATOM      7  C   UNL     1       5.412   4.044  14.045  0.00  0.00    +0.000 A 
BRANCH   6   8
ATOM      8  C   UNL     1       4.827   3.108  11.772  0.00  0.00    +0.000 C 
ATOM      9  F   UNL     1       3.577   2.933  12.288  0.00  0.00    +0.000 F 
ATOM     10  F   UNL     1       4.646   3.752  10.585  0.00  0.00    +0.000 F 
ATOM     11  F   UNL     1       5.277   1.863  11.459  0.00  0.00    +0.000 F 
ENDBRANCH   6   8
ENDBRANCH   1   2
BRANCH   1  13
ATOM     12  C   UNL     1       7.556   6.622  17.644  0.00  0.00    +0.000 C 
ATOM     13  S   UNL     1       7.130   4.898  17.448  0.00  0.00    +0.000 S 
ATOM     14  O   UNL     1       8.286   4.219  16.900  0.00  0.00    +0.000 OA
ATOM     15  O   UNL     1       6.552   4.459  18.705  0.00  0.00    +0.000 OA
ENDBRANCH   1  13
BRANCH   1  16
ATOM     16  C   UNL     1       4.506   4.944  16.663  0.00  0.00    +0.000 C 
BRANCH  16  17
ATOM     17  C   UNL     1       4.042   3.850  17.610  0.00  0.00    +0.000 C 
ATOM     18  O   UNL     1       3.917   2.673  17.271  0.00  0.00    +0.000 OA
ATOM     19  N   UNL     1       3.734   4.296  18.886  0.00  0.00    +0.000 N 
ATOM     20  H   UNL     1       3.994   5.240  19.150  0.00  0.00    +0.000 HD
BRANCH  19  21
ATOM     21  C   UNL     1       3.368   3.364  19.936  0.00  0.00    +0.000 C 
ATOM     22  C   UNL     1       2.334   2.302  19.500  0.00  0.00    +0.000 C 
ATOM     23  C   UNL     1       1.178   2.515  20.497  0.00  0.00    +0.000 C 
ATOM     24  C   UNL     1       0.480   3.847  20.173  0.00  0.00    +0.000 C 
ATOM     25  C   UNL     1       1.483   4.895  20.677  0.00  0.00    +0.000 C 
ATOM     26  C   UNL     1       2.670   4.034  21.146  0.00  0.00    +0.000 C 
ATOM     27  C   UNL     1       1.937   2.850  21.781  0.00  0.00    +0.000 C 
ENDBRANCH  19  21
ENDBRANCH  16  17
ENDBRANCH   1  16
TORSDOF 6
ENDMDL
MODEL 6
REMARK VINA RESULT:      -8.2      4.293      5.829
REMARK  Name = 
REMARK  7 active torsions:
REMARK  status: ('A' for Active; 'I' for Inactive)
REMARK    1  A    between atoms: C_1  and  S_2
REMARK    2  A    between atoms: S_2  and  N_5
REMARK    3  A    between atoms: N_5  and  C_6
REMARK    4  A    between atoms: N_5  and  C_17
REMARK    5  A    between atoms: C_6  and  C_7
REMARK    6  A    between atoms: N_9  and  C_10
REMARK    7  A    between atoms: C_21  and  C_22
REMARK                            x       y       z     vdW  Elec       q    Type
REMARK                         _______ _______ _______ _____ _____    ______ ____
ROOT
ATOM      1  N   UNL     1       3.215   5.278  18.873  0.00  0.00    +0.000 N 
ENDROOT
BRANCH   1   2
ATOM      2  C   UNL     1       4.539   5.187  18.351  0.00  0.00    +0.000 A 
ATOM      3  C   UNL     1       5.637   5.303  19.205  0.00  0.00    +0.000 A 
ATOM      4  C   UNL     1       6.929   5.204  18.691  0.00  0.00    +0.000 A 
ATOM      5  C   UNL     1       7.124   4.969  17.329  0.00  0.00    +0.000 A 
ATOM      6  C   UNL     1       6.029   4.833  16.463  0.00  0.00    +0.000 A 
ATOM      7  C   UNL     1       4.730   4.947  16.988  0.00  0.00    +0.000 A 
BRANCH   6   8
ATOM      8  C   UNL     1       6.231   4.553  14.993  0.00  0.00    +0.000 C 
ATOM      9  F   UNL     1       7.407   5.042  14.506  0.00  0.00    +0.000 F 
ATOM     10  F   UNL     1       6.248   3.218  14.719  0.00  0.00    +0.000 F 
ATOM     11  F   UNL     1       5.255   5.085  14.209  0.00  0.00    +0.000 F 
ENDBRANCH   6   8
ENDBRANCH   1   2
BRANCH   1  13
ATOM     12  C   UNL     1       1.050   4.040  20.026  0.00  0.00    +0.000 C 
ATOM     13  S   UNL     1       2.131   4.024  18.603  0.00  0.00    +0.000 S 
ATOM     14  O   UNL     1       2.875   2.782  18.631  0.00  0.00    +0.000 OA
ATOM     15  O   UNL     1       1.318   4.364  17.450  0.00  0.00    +0.000 OA
ENDBRANCH   1  13
BRANCH   1  16
ATOM     16  C   UNL     1       2.788   6.505  19.562  0.00  0.00    +0.000 C 
BRANCH  16  17
ATOM     17  C   UNL     1       2.282   7.616  18.657  0.00  0.00    +0.000 C 
ATOM     18  O   UNL     1       2.507   7.655  17.448  0.00  0.00    +0.000 OA
ATOM     19  N   UNL     1       1.570   8.605  19.317  0.00  0.00    +0.000 N 
ATOM     20  H   UNL     1       1.290   8.449  20.279  0.00  0.00    +0.000 HD
BRANCH  19  21
ATOM     21  C   UNL     1       0.938   9.687  18.584  0.00  0.00    +0.000 C 
ATOM     22  C   UNL     1       1.734  11.010  18.606  0.00  0.00    +0.000 C 
ATOM     23  C   UNL     1       0.729  12.009  19.211  0.00  0.00    +0.000 C 
ATOM     24  C   UNL     1       0.539  11.682  20.703  0.00  0.00    +0.000 C 
ATOM     25  C   UNL     1      -0.315  10.407  20.671  0.00  0.00    +0.000 C 
ATOM     26  C   UNL     1      -0.435  10.112  19.165  0.00  0.00    +0.000 C 
ATOM     27  C   UNL     1      -0.588  11.527  18.603  0.00  0.00    +0.000 C 
ENDBRANCH  19  21
ENDBRANCH  16  17
ENDBRANCH   1  16
TORSDOF 6
ENDMDL
MODEL 7
REMARK VINA RESULT:      -8.2      2.143      3.166
REMARK  Name = 
REMARK  7 active torsions:
REMARK  status: ('A' for Active; 'I' for Inactive)
REMARK    1  A    between atoms: C_1  and  S_2
REMARK    2  A    between atoms: S_2  and  N_5
REMARK    3  A    between atoms: N_5  and  C_6
REMARK    4  A    between atoms: N_5  and  C_17
REMARK    5  A    between atoms: C_6  and  C_7
REMARK    6  A    between atoms: N_9  and  C_10
REMARK    7  A    between atoms: C_21  and  C_22
REMARK                            x       y       z     vdW  Elec       q    Type
REMARK                         _______ _______ _______ _____ _____    ______ ____
ROOT
ATOM      1  N   UNL     1       6.094   5.929  17.180  0.00  0.00    +0.000 N 
ENDROOT
BRANCH   1   2
ATOM      2  C   UNL     1       6.093   5.188  15.962  0.00  0.00    +0.000 A 
ATOM      3  C   UNL     1       5.210   4.121  15.793  0.00  0.00    +0.000 A 
ATOM      4  C   UNL     1       5.206   3.406  14.596  0.00  0.00    +0.000 A 
ATOM      5  C   UNL     1       6.071   3.767  13.562  0.00  0.00    +0.000 A 
ATOM      6  C   UNL     1       6.952   4.849  13.713  0.00  0.00    +0.000 A 
ATOM      7  C   UNL     1       6.957   5.557  14.928  0.00  0.00    +0.000 A 
BRANCH   6   8
ATOM      8  C   UNL     1       7.873   5.263  12.590  0.00  0.00    +0.000 C 
ATOM      9  F   UNL     1       9.186   5.306  12.956  0.00  0.00    +0.000 F 
ATOM     10  F   UNL     1       7.816   4.407  11.532  0.00  0.00    +0.000 F 
ATOM     11  F   UNL     1       7.586   6.496  12.092  0.00  0.00    +0.000 F 
ENDBRANCH   6   8
ENDBRANCH   1   2
BRANCH   1  13
ATOM     12  C   UNL     1       8.115   6.788  18.832  0.00  0.00    +0.000 C 
ATOM     13  S   UNL     1       7.041   5.409  18.465  0.00  0.00    +0.000 S 
ATOM     14  O   UNL     1       7.871   4.320  17.991  0.00  0.00    +0.000 OA
ATOM     15  O   UNL     1       6.181   5.223  19.619  0.00  0.00    +0.000 OA
ENDBRANCH   1  13
BRANCH   1  16
ATOM     16  C   UNL     1       5.200   7.088  17.327  0.00  0.00    +0.000 C 
BRANCH  16  17
ATOM     17  C   UNL     1       3.792   6.766  17.798  0.00  0.00    +0.000 C 
ATOM     18  O   UNL     1       2.892   7.603  17.853  0.00  0.00    +0.000 OA
ATOM     19  N   UNL     1       3.613   5.450  18.197  0.00  0.00    +0.000 N 
ATOM     20  H   UNL     1       4.341   4.774  17.993  0.00  0.00    +0.000 HD
BRANCH  19  21
ATOM     21  C   UNL     1       2.304   4.957  18.583  0.00  0.00    +0.000 C 
ATOM     22  C   UNL     1       2.016   5.061  20.097  0.00  0.00    +0.000 C 
ATOM     23  C   UNL     1       1.710   3.603  20.493  0.00  0.00    +0.000 C 
ATOM     24  C   UNL     1       3.013   2.788  20.432  0.00  0.00    +0.000 C 
ATOM     25  C   UNL     1       3.251   2.627  18.924  0.00  0.00    +0.000 C 
ATOM     26  C   UNL     1       2.103   3.445  18.307  0.00  0.00    +0.000 C 
ATOM     27  C   UNL     1       0.956   3.102  19.260  0.00  0.00    +0.000 C 
ENDBRANCH  19  21
ENDBRANCH  16  17
ENDBRANCH   1  16
TORSDOF 6
ENDMDL
MODEL 8
REMARK VINA RESULT:      -8.1      1.221      1.681
REMARK  Name = 
REMARK  7 active torsions:
REMARK  status: ('A' for Active; 'I' for Inactive)
REMARK    1  A    between atoms: C_1  and  S_2
REMARK    2  A    between atoms: S_2  and  N_5
REMARK    3  A    between atoms: N_5  and  C_6
REMARK    4  A    between atoms: N_5  and  C_17
REMARK    5  A    between atoms: C_6  and  C_7
REMARK    6  A    between atoms: N_9  and  C_10
REMARK    7  A    between atoms: C_21  and  C_22
REMARK                            x       y       z     vdW  Elec       q    Type
REMARK                         _______ _______ _______ _____ _____    ______ ____
ROOT
ATOM      1  N   UNL     1       6.045   4.705  16.119  0.00  0.00    +0.000 N 
ENDROOT
BRANCH   1   2
ATOM      2  C   UNL     1       6.323   4.589  14.726  0.00  0.00    +0.000 A 
ATOM      3  C   UNL     1       7.538   5.046  14.214  0.00  0.00    +0.000 A 
ATOM      4  C   UNL     1       7.809   4.922  12.852  0.00  0.00    +0.000 A 
ATOM      5  C   UNL     1       6.874   4.324  12.005  0.00  0.00    +0.000 A 
ATOM      6  C   UNL     1       5.656   3.845  12.509  0.00  0.00    +0.000 A 
ATOM      7  C   UNL     1       5.386   3.986  13.882  0.00  0.00    +0.000 A 
BRANCH   6   8
ATOM      8  C   UNL     1       4.650   3.174  11.605  0.00  0.00    +0.000 C 
ATOM      9  F   UNL     1       4.354   3.904  10.491  0.00  0.00    +0.000 F 
ATOM     10  F   UNL     1       5.091   1.969  11.146  0.00  0.00    +0.000 F 
ATOM     11  F   UNL     1       3.460   2.931  12.217  0.00  0.00    +0.000 F 
ENDBRANCH   6   8
ENDBRANCH   1   2
BRANCH   1  13
ATOM     12  C   UNL     1       7.135   5.460  18.526  0.00  0.00    +0.000 C 
ATOM     13  S   UNL     1       6.549   6.072  16.953  0.00  0.00    +0.000 S 
ATOM     14  O   UNL     1       5.382   6.891  17.207  0.00  0.00    +0.000 OA
ATOM     15  O   UNL     1       7.697   6.631  16.262  0.00  0.00    +0.000 OA
ENDBRANCH   1  13
BRANCH   1  16
ATOM     16  C   UNL     1       5.401   3.589  16.828  0.00  0.00    +0.000 C 
BRANCH  16  17
ATOM     17  C   UNL     1       3.948   3.815  17.211  0.00  0.00    +0.000 C 
ATOM     18  O   UNL     1       3.007   3.586  16.452  0.00  0.00    +0.000 OA
ATOM     19  N   UNL     1       3.771   4.335  18.484  0.00  0.00    +0.000 N 
ATOM     20  H   UNL     1       4.564   4.365  19.115  0.00  0.00    +0.000 HD
BRANCH  19  21
ATOM     21  C   UNL     1       2.443   4.520  19.039  0.00  0.00    +0.000 C 
ATOM     22  C   UNL     1       2.436   5.104  20.469  0.00  0.00    +0.000 C 
ATOM     23  C   UNL     1       1.666   4.038  21.274  0.00  0.00    +0.000 C 
ATOM     24  C   UNL     1       2.546   2.783  21.405  0.00  0.00    +0.000 C 
ATOM     25  C   UNL     1       2.487   2.170  19.999  0.00  0.00    +0.000 C 
ATOM     26  C   UNL     1       1.653   3.198  19.213  0.00  0.00    +0.000 C 
ATOM     27  C   UNL     1       0.611   3.591  20.262  0.00  0.00    +0.000 C 
ENDBRANCH  19  21
ENDBRANCH  16  17
ENDBRANCH   1  16
TORSDOF 6
ENDMDL
MODEL 9
REMARK VINA RESULT:      -8.0      3.700      5.106
REMARK  Name = 
REMARK  7 active torsions:
REMARK  status: ('A' for Active; 'I' for Inactive)
REMARK    1  A    between atoms: C_1  and  S_2
REMARK    2  A    between atoms: S_2  and  N_5
REMARK    3  A    between atoms: N_5  and  C_6
REMARK    4  A    between atoms: N_5  and  C_17
REMARK    5  A    between atoms: C_6  and  C_7
REMARK    6  A    between atoms: N_9  and  C_10
REMARK    7  A    between atoms: C_21  and  C_22
REMARK                            x       y       z     vdW  Elec       q    Type
REMARK                         _______ _______ _______ _____ _____    ______ ____
ROOT
ATOM      1  N   UNL     1       3.277   4.114  18.210  0.00  0.00    +0.000 N 
ENDROOT
BRANCH   1   2
ATOM      2  C   UNL     1       4.571   4.286  17.637  0.00  0.00    +0.000 A 
ATOM      3  C   UNL     1       5.681   4.475  18.461  0.00  0.00    +0.000 A 
ATOM      4  C   UNL     1       6.946   4.632  17.895  0.00  0.00    +0.000 A 
ATOM      5  C   UNL     1       7.104   4.582  16.509  0.00  0.00    +0.000 A 
ATOM      6  C   UNL     1       5.998   4.374  15.671  0.00  0.00    +0.000 A 
ATOM      7  C   UNL     1       4.725   4.229  16.249  0.00  0.00    +0.000 A 
BRANCH   6   8
ATOM      8  C   UNL     1       6.164   4.292  14.173  0.00  0.00    +0.000 C 
ATOM      9  F   UNL     1       5.025   4.594  13.486  0.00  0.00    +0.000 F 
ATOM     10  F   UNL     1       7.111   5.155  13.709  0.00  0.00    +0.000 F 
ATOM     11  F   UNL     1       6.539   3.057  13.744  0.00  0.00    +0.000 F 
ENDBRANCH   6   8
ENDBRANCH   1   2
BRANCH   1  13
ATOM     12  C   UNL     1       1.128   2.506  18.801  0.00  0.00    +0.000 C 
ATOM     13  S   UNL     1       2.898   2.672  18.983  0.00  0.00    +0.000 S 
ATOM     14  O   UNL     1       3.180   2.839  20.394  0.00  0.00    +0.000 OA
ATOM     15  O   UNL     1       3.504   1.584  18.240  0.00  0.00    +0.000 OA
ENDBRANCH   1  13
BRANCH   1  16
ATOM     16  C   UNL     1       2.262   5.165  18.041  0.00  0.00    +0.000 C 
BRANCH  16  17
ATOM     17  C   UNL     1       2.427   6.379  18.940  0.00  0.00    +0.000 C 
ATOM     18  O   UNL     1       3.056   6.354  19.997  0.00  0.00    +0.000 OA
ATOM     19  N   UNL     1       1.779   7.516  18.484  0.00  0.00    +0.000 N 
ATOM     20  H   UNL     1       1.403   7.521  17.542  0.00  0.00    +0.000 HD
BRANCH  19  21
ATOM     21  C   UNL     1       1.917   8.784  19.175  0.00  0.00    +0.000 C 
ATOM     22  C   UNL     1       1.046   8.904  20.446  0.00  0.00    +0.000 C 
ATOM     23  C   UNL     1       0.191  10.155  20.163  0.00  0.00    +0.000 C 
ATOM     24  C   UNL     1      -0.830   9.820  19.061  0.00  0.00    +0.000 C 
ATOM     25  C   UNL     1       0.033   9.776  17.792  0.00  0.00    +0.000 C 
ATOM     26  C   UNL     1       1.455  10.003  18.336  0.00  0.00    +0.000 C 
ATOM     27  C   UNL     1       1.187  11.047  19.422  0.00  0.00    +0.000 C 
ENDBRANCH  19  21
ENDBRANCH  16  17
ENDBRANCH   1  16
TORSDOF 6
ENDMDL
