MODEL 1
REMARK VINA RESULT:      -7.9      0.000      0.000
REMARK  Name = 
REMARK  8 active torsions:
REMARK  status: ('A' for Active; 'I' for Inactive)
REMARK    1  A    between atoms: S_2  and  C_4
REMARK    2  A    between atoms: S_2  and  C_23
REMARK    3  A    between atoms: C_4  and  C_5
REMARK    4  A    between atoms: C_11  and  C_12
REMARK    5  A    between atoms: C_12  and  S_13
REMARK    6  A    between atoms: S_13  and  C_16
REMARK    7  A    between atoms: C_20  and  O_21
REMARK    8  A    between atoms: C_27  and  O_28
REMARK                            x       y       z     vdW  Elec       q    Type
REMARK                         _______ _______ _______ _____ _____    ______ ____
ROOT
ATOM      1  C   UNL     1       2.273   5.279  19.390  0.00  0.00    +0.000 A 
ATOM      2  C   UNL     1       1.415   4.875  20.437  0.00  0.00    +0.000 A 
ATOM      3  C   UNL     1       0.767   3.638  20.421  0.00  0.00    +0.000 A 
ATOM      4  C   UNL     1       0.983   2.759  19.370  0.00  0.00    +0.000 A 
ATOM      5  C   UNL     1       1.827   3.135  18.335  0.00  0.00    +0.000 A 
ATOM      6  F   UNL     1       2.013   2.273  17.325  0.00  0.00    +0.000 F 
ATOM      7  C   UNL     1       2.473   4.383  18.307  0.00  0.00    +0.000 A 
ENDROOT
BRANCH   1   8
ATOM      8  C   UNL     1       2.994   6.617  19.504  0.00  0.00    +0.000 C 
BRANCH   8  10
ATOM      9  O   UNL     1       3.164   8.733  17.949  0.00  0.00    +0.000 OA
ATOM     10  S   UNL     1       2.156   7.888  18.566  0.00  0.00    +0.000 S 
ATOM     11  O   UNL     1       1.111   7.267  17.772  0.00  0.00    +0.000 OA
BRANCH  10  12
ATOM     12  C   UNL     1       1.298   8.947  19.717  0.00  0.00    +0.000 A 
ATOM     13  C   UNL     1       0.494   9.957  19.165  0.00  0.00    +0.000 A 
ATOM     14  C   UNL     1      -0.196  10.836  19.998  0.00  0.00    +0.000 A 
ATOM     15  C   UNL     1      -0.083  10.715  21.382  0.00  0.00    +0.000 A 
ATOM     16  C   UNL     1       0.713   9.705  21.918  0.00  0.00    +0.000 A 
ATOM     17  C   UNL     1       1.405   8.812  21.102  0.00  0.00    +0.000 A 
BRANCH  16  18
ATOM     18  O   UNL     1       0.847   9.558  23.267  0.00  0.00    +0.000 OA
ATOM     19  H   UNL     1       0.757  10.430  23.690  0.00  0.00    +0.000 HD
ENDBRANCH  16  18
ENDBRANCH  10  12
ENDBRANCH   8  10
ENDBRANCH   1   8
BRANCH   7  20
ATOM     20  C   UNL     1       3.313   4.699  17.094  0.00  0.00    +0.000 C 
BRANCH  20  21
ATOM     21  S   UNL     1       4.892   3.871  17.135  0.00  0.00    +0.000 S 
ATOM     22  O   UNL     1       4.814   2.838  18.153  0.00  0.00    +0.000 OA
ATOM     23  O   UNL     1       5.264   3.505  15.778  0.00  0.00    +0.000 OA
BRANCH  21  24
ATOM     24  C   UNL     1       6.074   5.053  17.731  0.00  0.00    +0.000 A 
ATOM     25  C   UNL     1       6.460   6.131  16.930  0.00  0.00    +0.000 A 
ATOM     26  C   UNL     1       7.423   7.026  17.402  0.00  0.00    +0.000 A 
ATOM     27  C   UNL     1       7.993   6.845  18.664  0.00  0.00    +0.000 A 
ATOM     28  C   UNL     1       7.606   5.758  19.442  0.00  0.00    +0.000 A 
ATOM     29  C   UNL     1       6.659   4.850  18.983  0.00  0.00    +0.000 A 
BRANCH  28  30
ATOM     30  O   UNL     1       8.140   5.538  20.676  0.00  0.00    +0.000 OA
ATOM     31  H   UNL     1       7.441   5.216  21.270  0.00  0.00    +0.000 HD
ENDBRANCH  28  30
ENDBRANCH  21  24
ENDBRANCH  20  21
ENDBRANCH   7  20
TORSDOF 8
ENDMDL
MODEL 2
REMARK VINA RESULT:      -7.4      2.584      7.779
REMARK  Name = 
REMARK  8 active torsions:
REMARK  status: ('A' for Active; 'I' for Inactive)
REMARK    1  A    between atoms: S_2  and  C_4
REMARK    2  A    between atoms: S_2  and  C_23
REMARK    3  A    between atoms: C_4  and  C_5
REMARK    4  A    between atoms: C_11  and  C_12
REMARK    5  A    between atoms: C_12  and  S_13
REMARK    6  A    between atoms: S_13  and  C_16
REMARK    7  A    between atoms: C_20  and  O_21
REMARK    8  A    between atoms: C_27  and  O_28
REMARK                            x       y       z     vdW  Elec       q    Type
REMARK                         _______ _______ _______ _____ _____    ______ ____
ROOT
ATOM      1  C   UNL     1       3.958   5.103  17.267  0.00  0.00    +0.000 A 
ATOM      2  C   UNL     1       3.795   3.761  16.856  0.00  0.00    +0.000 A 
ATOM      3  C   UNL     1       2.965   2.876  17.547  0.00  0.00    +0.000 A 
ATOM      4  C   UNL     1       2.250   3.319  18.649  0.00  0.00    +0.000 A 
ATOM      5  C   UNL     1       2.391   4.635  19.065  0.00  0.00    +0.000 A 
ATOM      6  F   UNL     1       1.698   5.037  20.140  0.00  0.00    +0.000 F 
ATOM      7  C   UNL     1       3.240   5.544  18.409  0.00  0.00    +0.000 A 
ENDROOT
BRANCH   1   8
ATOM      8  C   UNL     1       4.834   6.028  16.429  0.00  0.00    +0.000 C 
BRANCH   8  10
ATOM      9  O   UNL     1       7.425   6.489  16.459  0.00  0.00    +0.000 OA
ATOM     10  S   UNL     1       6.496   5.386  16.278  0.00  0.00    +0.000 S 
ATOM     11  O   UNL     1       6.603   4.179  17.078  0.00  0.00    +0.000 OA
BRANCH  10  12
ATOM     12  C   UNL     1       6.728   4.850  14.593  0.00  0.00    +0.000 A 
ATOM     13  C   UNL     1       7.659   5.569  13.825  0.00  0.00    +0.000 A 
ATOM     14  C   UNL     1       7.885   5.222  12.494  0.00  0.00    +0.000 A 
ATOM     15  C   UNL     1       7.183   4.161  11.924  0.00  0.00    +0.000 A 
ATOM     16  C   UNL     1       6.267   3.451  12.697  0.00  0.00    +0.000 A 
ATOM     17  C   UNL     1       6.032   3.779  14.032  0.00  0.00    +0.000 A 
BRANCH  16  18
ATOM     18  O   UNL     1       5.562   2.410  12.171  0.00  0.00    +0.000 OA
ATOM     19  H   UNL     1       6.024   2.083  11.379  0.00  0.00    +0.000 HD
ENDBRANCH  16  18
ENDBRANCH  10  12
ENDBRANCH   8  10
ENDBRANCH   1   8
BRANCH   7  20
ATOM     20  C   UNL     1       3.356   6.927  18.998  0.00  0.00    +0.000 C 
BRANCH  20  21
ATOM     21  S   UNL     1       2.201   8.071  18.264  0.00  0.00    +0.000 S 
ATOM     22  O   UNL     1       2.976   9.141  17.660  0.00  0.00    +0.000 OA
ATOM     23  O   UNL     1       1.260   7.325  17.445  0.00  0.00    +0.000 OA
BRANCH  21  24
ATOM     24  C   UNL     1       1.300   8.816  19.599  0.00  0.00    +0.000 A 
ATOM     25  C   UNL     1       1.386   8.288  20.890  0.00  0.00    +0.000 A 
ATOM     26  C   UNL     1       0.636   8.863  21.918  0.00  0.00    +0.000 A 
ATOM     27  C   UNL     1      -0.189   9.960  21.658  0.00  0.00    +0.000 A 
ATOM     28  C   UNL     1      -0.271  10.465  20.363  0.00  0.00    +0.000 A 
ATOM     29  C   UNL     1       0.457   9.896  19.326  0.00  0.00    +0.000 A 
BRANCH  28  30
ATOM     30  O   UNL     1      -1.068  11.529  20.062  0.00  0.00    +0.000 OA
ATOM     31  H   UNL     1      -0.766  11.922  19.226  0.00  0.00    +0.000 HD
ENDBRANCH  28  30
ENDBRANCH  21  24
ENDBRANCH  20  21
ENDBRANCH   7  20
TORSDOF 8
ENDMDL
MODEL 3
REMARK VINA RESULT:      -7.4      1.690      6.464
REMARK  Name = 
REMARK  8 active torsions:
REMARK  status: ('A' for Active; 'I' for Inactive)
REMARK    1  A    between atoms: S_2  and  C_4
REMARK    2  A    between atoms: S_2  and  C_23
REMARK    3  A    between atoms: C_4  and  C_5
REMARK    4  A    between atoms: C_11  and  C_12
REMARK    5  A    between atoms: C_12  and  S_13
REMARK    6  A    between atoms: S_13  and  C_16
REMARK    7  A    between atoms: C_20  and  O_21
REMARK    8  A    between atoms: C_27  and  O_28
REMARK                            x       y       z     vdW  Elec       q    Type
REMARK                         _______ _______ _______ _____ _____    ______ ____
ROOT
ATOM      1  C   UNL     1       3.928   4.214  17.436  0.00  0.00    +0.000 A 
ATOM      2  C   UNL     1       3.736   2.815  17.419  0.00  0.00    +0.000 A 
ATOM      3  C   UNL     1       3.272   2.122  18.539  0.00  0.00    +0.000 A 
ATOM      4  C   UNL     1       2.957   2.816  19.697  0.00  0.00    +0.000 A 
ATOM      5  C   UNL     1       3.131   4.192  19.732  0.00  0.00    +0.000 A 
ATOM      6  F   UNL     1       2.830   4.840  20.867  0.00  0.00    +0.000 F 
ATOM      7  C   UNL     1       3.623   4.916  18.632  0.00  0.00    +0.000 A 
ENDROOT
BRANCH   1   8
ATOM      8  C   UNL     1       4.380   4.911  16.158  0.00  0.00    +0.000 C 
BRANCH   8  10
ATOM      9  O   UNL     1       6.476   3.320  16.126  0.00  0.00    +0.000 OA
ATOM     10  S   UNL     1       6.137   4.715  15.899  0.00  0.00    +0.000 S 
ATOM     11  O   UNL     1       6.503   5.381  14.661  0.00  0.00    +0.000 OA
BRANCH  10  12
ATOM     12  C   UNL     1       6.987   5.618  17.181  0.00  0.00    +0.000 A 
ATOM     13  C   UNL     1       7.300   6.960  16.907  0.00  0.00    +0.000 A 
ATOM     14  C   UNL     1       7.979   7.728  17.851  0.00  0.00    +0.000 A 
ATOM     15  C   UNL     1       8.351   7.161  19.069  0.00  0.00    +0.000 A 
ATOM     16  C   UNL     1       8.030   5.831  19.333  0.00  0.00    +0.000 A 
ATOM     17  C   UNL     1       7.346   5.049  18.404  0.00  0.00    +0.000 A 
BRANCH  16  18
ATOM     18  O   UNL     1       8.380   5.245  20.512  0.00  0.00    +0.000 OA
ATOM     19  H   UNL     1       8.336   5.910  21.222  0.00  0.00    +0.000 HD
ENDBRANCH  16  18
ENDBRANCH  10  12
ENDBRANCH   8  10
ENDBRANCH   1   8
BRANCH   7  20
ATOM     20  C   UNL     1       3.830   6.398  18.818  0.00  0.00    +0.000 C 
BRANCH  20  21
ATOM     21  S   UNL     1       2.533   7.360  18.060  0.00  0.00    +0.000 S 
ATOM     22  O   UNL     1       3.168   8.322  17.177  0.00  0.00    +0.000 OA
ATOM     23  O   UNL     1       1.532   6.454  17.523  0.00  0.00    +0.000 OA
BRANCH  21  24
ATOM     24  C   UNL     1       1.779   8.312  19.354  0.00  0.00    +0.000 A 
ATOM     25  C   UNL     1       1.782   7.841  20.670  0.00  0.00    +0.000 A 
ATOM     26  C   UNL     1       1.146   8.585  21.667  0.00  0.00    +0.000 A 
ATOM     27  C   UNL     1       0.515   9.791  21.349  0.00  0.00    +0.000 A 
ATOM     28  C   UNL     1       0.512  10.237  20.031  0.00  0.00    +0.000 A 
ATOM     29  C   UNL     1       1.128   9.502  19.025  0.00  0.00    +0.000 A 
BRANCH  28  30
ATOM     30  O   UNL     1      -0.097  11.403  19.675  0.00  0.00    +0.000 OA
ATOM     31  H   UNL     1      -0.081  12.011  20.433  0.00  0.00    +0.000 HD
ENDBRANCH  28  30
ENDBRANCH  21  24
ENDBRANCH  20  21
ENDBRANCH   7  20
TORSDOF 8
ENDMDL
MODEL 4
REMARK VINA RESULT:      -7.3      1.677      6.310
REMARK  Name = 
REMARK  8 active torsions:
REMARK  status: ('A' for Active; 'I' for Inactive)
REMARK    1  A    between atoms: S_2  and  C_4
REMARK    2  A    between atoms: S_2  and  C_23
REMARK    3  A    between atoms: C_4  and  C_5
REMARK    4  A    between atoms: C_11  and  C_12
REMARK    5  A    between atoms: C_12  and  S_13
REMARK    6  A    between atoms: S_13  and  C_16
REMARK    7  A    between atoms: C_20  and  O_21
REMARK    8  A    between atoms: C_27  and  O_28
REMARK                            x       y       z     vdW  Elec       q    Type
REMARK                         _______ _______ _______ _____ _____    ______ ____
ROOT
ATOM      1  C   UNL     1       3.444   3.787  17.176  0.00  0.00    +0.000 A 
ATOM      2  C   UNL     1       3.912   2.473  17.395  0.00  0.00    +0.000 A 
ATOM      3  C   UNL     1       3.392   1.666  18.410  0.00  0.00    +0.000 A 
ATOM      4  C   UNL     1       2.367   2.143  19.213  0.00  0.00    +0.000 A 
ATOM      5  C   UNL     1       1.889   3.430  19.009  0.00  0.00    +0.000 A 
ATOM      6  F   UNL     1       0.905   3.873  19.805  0.00  0.00    +0.000 F 
ATOM      7  C   UNL     1       2.409   4.277  18.015  0.00  0.00    +0.000 A 
ENDROOT
BRANCH   1   8
ATOM      8  C   UNL     1       4.016   4.587  16.011  0.00  0.00    +0.000 C 
BRANCH   8  10
ATOM      9  O   UNL     1       6.047   2.927  16.225  0.00  0.00    +0.000 OA
ATOM     10  S   UNL     1       5.770   4.296  15.824  0.00  0.00    +0.000 S 
ATOM     11  O   UNL     1       6.188   4.795  14.526  0.00  0.00    +0.000 OA
BRANCH  10  12
ATOM     12  C   UNL     1       6.628   5.314  17.011  0.00  0.00    +0.000 A 
ATOM     13  C   UNL     1       6.981   6.608  16.594  0.00  0.00    +0.000 A 
ATOM     14  C   UNL     1       7.669   7.458  17.458  0.00  0.00    +0.000 A 
ATOM     15  C   UNL     1       8.009   7.022  18.737  0.00  0.00    +0.000 A 
ATOM     16  C   UNL     1       7.647   5.739  19.142  0.00  0.00    +0.000 A 
ATOM     17  C   UNL     1       6.954   4.876  18.295  0.00  0.00    +0.000 A 
BRANCH  16  18
ATOM     18  O   UNL     1       7.964   5.280  20.386  0.00  0.00    +0.000 OA
ATOM     19  H   UNL     1       7.144   5.136  20.889  0.00  0.00    +0.000 HD
ENDBRANCH  16  18
ENDBRANCH  10  12
ENDBRANCH   8  10
ENDBRANCH   1   8
BRANCH   7  20
ATOM     20  C   UNL     1       1.849   5.675  17.937  0.00  0.00    +0.000 C 
BRANCH  20  21
ATOM     21  S   UNL     1       2.936   6.878  18.679  0.00  0.00    +0.000 S 
ATOM     22  O   UNL     1       3.596   6.233  19.801  0.00  0.00    +0.000 OA
ATOM     23  O   UNL     1       3.743   7.487  17.634  0.00  0.00    +0.000 OA
BRANCH  21  24
ATOM     24  C   UNL     1       1.903   8.138  19.382  0.00  0.00    +0.000 A 
ATOM     25  C   UNL     1       1.469   8.036  20.707  0.00  0.00    +0.000 A 
ATOM     26  C   UNL     1       0.621   9.016  21.228  0.00  0.00    +0.000 A 
ATOM     27  C   UNL     1       0.214  10.090  20.432  0.00  0.00    +0.000 A 
ATOM     28  C   UNL     1       0.647  10.167  19.112  0.00  0.00    +0.000 A 
ATOM     29  C   UNL     1       1.479   9.194  18.573  0.00  0.00    +0.000 A 
BRANCH  28  30
ATOM     30  O   UNL     1       0.269  11.193  18.297  0.00  0.00    +0.000 OA
ATOM     31  H   UNL     1       0.484  10.961  17.378  0.00  0.00    +0.000 HD
ENDBRANCH  28  30
ENDBRANCH  21  24
ENDBRANCH  20  21
ENDBRANCH   7  20
TORSDOF 8
ENDMDL
MODEL 5
REMARK VINA RESULT:      -7.3      3.006      6.836
REMARK  Name = 
REMARK  8 active torsions:
REMARK  status: ('A' for Active; 'I' for Inactive)
REMARK    1  A    between atoms: S_2  and  C_4
REMARK    2  A    between atoms: S_2  and  C_23
REMARK    3  A    between atoms: C_4  and  C_5
REMARK    4  A    between atoms: C_11  and  C_12
REMARK    5  A    between atoms: C_12  and  S_13
REMARK    6  A    between atoms: S_13  and  C_16
REMARK    7  A    between atoms: C_20  and  O_21
REMARK    8  A    between atoms: C_27  and  O_28
REMARK                            x       y       z     vdW  Elec       q    Type
REMARK                         _______ _______ _______ _____ _____    ______ ____
ROOT
ATOM      1  C   UNL     1       4.008   6.036  18.821  0.00  0.00    +0.000 A 
ATOM      2  C   UNL     1       4.036   6.839  17.659  0.00  0.00    +0.000 A 
ATOM      3  C   UNL     1       3.119   7.872  17.458  0.00  0.00    +0.000 A 
ATOM      4  C   UNL     1       2.169   8.151  18.428  0.00  0.00    +0.000 A 
ATOM      5  C   UNL     1       2.129   7.377  19.580  0.00  0.00    +0.000 A 
ATOM      6  F   UNL     1       1.194   7.658  20.499  0.00  0.00    +0.000 F 
ATOM      7  C   UNL     1       3.020   6.312  19.801  0.00  0.00    +0.000 A 
ENDROOT
BRANCH   1   8
ATOM      8  C   UNL     1       5.079   4.965  19.000  0.00  0.00    +0.000 C 
BRANCH   8  10
ATOM      9  O   UNL     1       6.683   6.903  18.227  0.00  0.00    +0.000 OA
ATOM     10  S   UNL     1       6.618   5.451  18.234  0.00  0.00    +0.000 S 
ATOM     11  O   UNL     1       7.693   4.657  18.803  0.00  0.00    +0.000 OA
BRANCH  10  12
ATOM     12  C   UNL     1       6.552   4.978  16.515  0.00  0.00    +0.000 A 
ATOM     13  C   UNL     1       5.603   4.004  16.165  0.00  0.00    +0.000 A 
ATOM     14  C   UNL     1       5.500   3.569  14.845  0.00  0.00    +0.000 A 
ATOM     15  C   UNL     1       6.344   4.100  13.871  0.00  0.00    +0.000 A 
ATOM     16  C   UNL     1       7.278   5.070  14.229  0.00  0.00    +0.000 A 
ATOM     17  C   UNL     1       7.391   5.523  15.542  0.00  0.00    +0.000 A 
BRANCH  16  18
ATOM     18  O   UNL     1       8.120   5.609  13.302  0.00  0.00    +0.000 OA
ATOM     19  H   UNL     1       8.219   6.561  13.481  0.00  0.00    +0.000 HD
ENDBRANCH  16  18
ENDBRANCH  10  12
ENDBRANCH   8  10
ENDBRANCH   1   8
BRANCH   7  20
ATOM     20  C   UNL     1       2.832   5.506  21.062  0.00  0.00    +0.000 C 
BRANCH  20  21
ATOM     21  S   UNL     1       1.706   4.143  20.829  0.00  0.00    +0.000 S 
ATOM     22  O   UNL     1       1.872   3.246  21.960  0.00  0.00    +0.000 OA
ATOM     23  O   UNL     1       0.385   4.672  20.529  0.00  0.00    +0.000 OA
BRANCH  21  24
ATOM     24  C   UNL     1       2.275   3.245  19.409  0.00  0.00    +0.000 A 
ATOM     25  C   UNL     1       1.778   3.545  18.137  0.00  0.00    +0.000 A 
ATOM     26  C   UNL     1       2.208   2.798  17.038  0.00  0.00    +0.000 A 
ATOM     27  C   UNL     1       3.129   1.761  17.209  0.00  0.00    +0.000 A 
ATOM     28  C   UNL     1       3.603   1.469  18.485  0.00  0.00    +0.000 A 
ATOM     29  C   UNL     1       3.176   2.193  19.591  0.00  0.00    +0.000 A 
BRANCH  28  30
ATOM     30  O   UNL     1       4.497   0.462  18.699  0.00  0.00    +0.000 OA
ATOM     31  H   UNL     1       4.756   0.466  19.636  0.00  0.00    +0.000 HD
ENDBRANCH  28  30
ENDBRANCH  21  24
ENDBRANCH  20  21
ENDBRANCH   7  20
TORSDOF 8
ENDMDL
MODEL 6
REMARK VINA RESULT:      -7.3      2.982      8.393
REMARK  Name = 
REMARK  8 active torsions:
REMARK  status: ('A' for Active; 'I' for Inactive)
REMARK    1  A    between atoms: S_2  and  C_4
REMARK    2  A    between atoms: S_2  and  C_23
REMARK    3  A    between atoms: C_4  and  C_5
REMARK    4  A    between atoms: C_11  and  C_12
REMARK    5  A    between atoms: C_12  and  S_13
REMARK    6  A    between atoms: S_13  and  C_16
REMARK    7  A    between atoms: C_20  and  O_21
REMARK    8  A    between atoms: C_27  and  O_28
REMARK                            x       y       z     vdW  Elec       q    Type
REMARK                         _______ _______ _______ _____ _____    ______ ____
ROOT
ATOM      1  C   UNL     1       1.828   7.569  19.983  0.00  0.00    +0.000 A 
ATOM      2  C   UNL     1       2.513   7.523  18.749  0.00  0.00    +0.000 A 
ATOM      3  C   UNL     1       2.217   8.409  17.710  0.00  0.00    +0.000 A 
ATOM      4  C   UNL     1       1.248   9.385  17.891  0.00  0.00    +0.000 A 
ATOM      5  C   UNL     1       0.568   9.450  19.100  0.00  0.00    +0.000 A 
ATOM      6  F   UNL     1      -0.371  10.395  19.247  0.00  0.00    +0.000 F 
ATOM      7  C   UNL     1       0.823   8.556  20.154  0.00  0.00    +0.000 A 
ENDROOT
BRANCH   1   8
ATOM      8  C   UNL     1       2.247   6.609  21.092  0.00  0.00    +0.000 C 
BRANCH   8  10
ATOM      9  O   UNL     1       2.264   4.067  21.773  0.00  0.00    +0.000 OA
ATOM     10  S   UNL     1       1.867   4.916  20.662  0.00  0.00    +0.000 S 
ATOM     11  O   UNL     1       0.519   4.863  20.124  0.00  0.00    +0.000 OA
BRANCH  10  12
ATOM     12  C   UNL     1       2.926   4.440  19.308  0.00  0.00    +0.000 A 
ATOM     13  C   UNL     1       2.292   4.022  18.127  0.00  0.00    +0.000 A 
ATOM     14  C   UNL     1       3.050   3.618  17.030  0.00  0.00    +0.000 A 
ATOM     15  C   UNL     1       4.442   3.625  17.107  0.00  0.00    +0.000 A 
ATOM     16  C   UNL     1       5.061   4.048  18.281  0.00  0.00    +0.000 A 
ATOM     17  C   UNL     1       4.320   4.462  19.387  0.00  0.00    +0.000 A 
BRANCH  16  18
ATOM     18  O   UNL     1       6.419   4.067  18.392  0.00  0.00    +0.000 OA
ATOM     19  H   UNL     1       6.733   4.982  18.285  0.00  0.00    +0.000 HD
ENDBRANCH  16  18
ENDBRANCH  10  12
ENDBRANCH   8  10
ENDBRANCH   1   8
BRANCH   7  20
ATOM     20  C   UNL     1      -0.028   8.689  21.392  0.00  0.00    +0.000 C 
BRANCH  20  21
ATOM     21  S   UNL     1       0.534  10.002  22.459  0.00  0.00    +0.000 S 
ATOM     22  O   UNL     1       0.530   9.488  23.818  0.00  0.00    +0.000 OA
ATOM     23  O   UNL     1       1.763  10.556  21.913  0.00  0.00    +0.000 OA
BRANCH  21  24
ATOM     24  C   UNL     1      -0.709  11.267  22.413  0.00  0.00    +0.000 A 
ATOM     25  C   UNL     1      -0.530  12.405  21.621  0.00  0.00    +0.000 A 
ATOM     26  C   UNL     1      -1.501  13.408  21.632  0.00  0.00    +0.000 A 
ATOM     27  C   UNL     1      -2.643  13.274  22.426  0.00  0.00    +0.000 A 
ATOM     28  C   UNL     1      -2.797  12.139  23.218  0.00  0.00    +0.000 A 
ATOM     29  C   UNL     1      -1.835  11.138  23.230  0.00  0.00    +0.000 A 
BRANCH  28  30
ATOM     30  O   UNL     1      -3.891  11.970  24.013  0.00  0.00    +0.000 OA
ATOM     31  H   UNL     1      -4.370  11.175  23.725  0.00  0.00    +0.000 HD
ENDBRANCH  28  30
ENDBRANCH  21  24
ENDBRANCH  20  21
ENDBRANCH   7  20
TORSDOF 8
ENDMDL
MODEL 7
REMARK VINA RESULT:      -7.3      0.902      1.284
REMARK  Name = 
REMARK  8 active torsions:
REMARK  status: ('A' for Active; 'I' for Inactive)
REMARK    1  A    between atoms: S_2  and  C_4
REMARK    2  A    between atoms: S_2  and  C_23
REMARK    3  A    between atoms: C_4  and  C_5
REMARK    4  A    between atoms: C_11  and  C_12
REMARK    5  A    between atoms: C_12  and  S_13
REMARK    6  A    between atoms: S_13  and  C_16
REMARK    7  A    between atoms: C_20  and  O_21
REMARK    8  A    between atoms: C_27  and  O_28
REMARK                            x       y       z     vdW  Elec       q    Type
REMARK                         _______ _______ _______ _____ _____    ______ ____
ROOT
ATOM      1  C   UNL     1       2.284   5.410  19.363  0.00  0.00    +0.000 A 
ATOM      2  C   UNL     1       1.356   5.005  20.347  0.00  0.00    +0.000 A 
ATOM      3  C   UNL     1       0.723   3.761  20.293  0.00  0.00    +0.000 A 
ATOM      4  C   UNL     1       1.025   2.877  19.269  0.00  0.00    +0.000 A 
ATOM      5  C   UNL     1       1.940   3.254  18.295  0.00  0.00    +0.000 A 
ATOM      6  F   UNL     1       2.209   2.386  17.309  0.00  0.00    +0.000 F 
ATOM      7  C   UNL     1       2.574   4.509  18.305  0.00  0.00    +0.000 A 
ENDROOT
BRANCH   1   8
ATOM      8  C   UNL     1       2.981   6.757  19.520  0.00  0.00    +0.000 C 
BRANCH   8  10
ATOM      9  O   UNL     1       3.136   8.933  18.048  0.00  0.00    +0.000 OA
ATOM     10  S   UNL     1       2.136   8.036  18.601  0.00  0.00    +0.000 S 
ATOM     11  O   UNL     1       1.136   7.415  17.751  0.00  0.00    +0.000 OA
BRANCH  10  12
ATOM     12  C   UNL     1       1.210   9.027  19.760  0.00  0.00    +0.000 A 
ATOM     13  C   UNL     1       0.333   9.980  19.217  0.00  0.00    +0.000 A 
ATOM     14  C   UNL     1      -0.413  10.804  20.056  0.00  0.00    +0.000 A 
ATOM     15  C   UNL     1      -0.286  10.685  21.439  0.00  0.00    +0.000 A 
ATOM     16  C   UNL     1       0.582   9.732  21.968  0.00  0.00    +0.000 A 
ATOM     17  C   UNL     1       1.331   8.893  21.144  0.00  0.00    +0.000 A 
BRANCH  16  18
ATOM     18  O   UNL     1       0.732   9.588  23.315  0.00  0.00    +0.000 OA
ATOM     19  H   UNL     1      -0.038   9.981  23.762  0.00  0.00    +0.000 HD
ENDBRANCH  16  18
ENDBRANCH  10  12
ENDBRANCH   8  10
ENDBRANCH   1   8
BRANCH   7  20
ATOM     20  C   UNL     1       3.498   4.824  17.156  0.00  0.00    +0.000 C 
BRANCH  20  21
ATOM     21  S   UNL     1       5.053   3.961  17.285  0.00  0.00    +0.000 S 
ATOM     22  O   UNL     1       4.934   3.017  18.383  0.00  0.00    +0.000 OA
ATOM     23  O   UNL     1       5.430   3.476  15.968  0.00  0.00    +0.000 OA
BRANCH  21  24
ATOM     24  C   UNL     1       6.260   5.155  17.800  0.00  0.00    +0.000 A 
ATOM     25  C   UNL     1       7.121   4.874  18.865  0.00  0.00    +0.000 A 
ATOM     26  C   UNL     1       8.036   5.843  19.282  0.00  0.00    +0.000 A 
ATOM     27  C   UNL     1       8.091   7.082  18.638  0.00  0.00    +0.000 A 
ATOM     28  C   UNL     1       7.217   7.347  17.587  0.00  0.00    +0.000 A 
ATOM     29  C   UNL     1       6.292   6.400  17.169  0.00  0.00    +0.000 A 
BRANCH  28  30
ATOM     30  O   UNL     1       7.232   8.544  16.935  0.00  0.00    +0.000 OA
ATOM     31  H   UNL     1       7.372   9.255  17.583  0.00  0.00    +0.000 HD
ENDBRANCH  28  30
ENDBRANCH  21  24
ENDBRANCH  20  21
ENDBRANCH   7  20
TORSDOF 8
ENDMDL
MODEL 8
REMARK VINA RESULT:      -7.2      2.079      6.133
REMARK  Name = 
REMARK  8 active torsions:
REMARK  status: ('A' for Active; 'I' for Inactive)
REMARK    1  A    between atoms: S_2  and  C_4
REMARK    2  A    between atoms: S_2  and  C_23
REMARK    3  A    between atoms: C_4  and  C_5
REMARK    4  A    between atoms: C_11  and  C_12
REMARK    5  A    between atoms: C_12  and  S_13
REMARK    6  A    between atoms: S_13  and  C_16
REMARK    7  A    between atoms: C_20  and  O_21
REMARK    8  A    between atoms: C_27  and  O_28
REMARK                            x       y       z     vdW  Elec       q    Type
REMARK                         _______ _______ _______ _____ _____    ______ ____
ROOT
ATOM      1  C   UNL     1       3.969   3.697  17.633  0.00  0.00    +0.000 A 
ATOM      2  C   UNL     1       4.023   2.364  17.170  0.00  0.00    +0.000 A 
ATOM      3  C   UNL     1       3.911   1.278  18.040  0.00  0.00    +0.000 A 
ATOM      4  C   UNL     1       3.711   1.497  19.395  0.00  0.00    +0.000 A 
ATOM      5  C   UNL     1       3.649   2.800  19.869  0.00  0.00    +0.000 A 
ATOM      6  F   UNL     1       3.465   2.987  21.184  0.00  0.00    +0.000 F 
ATOM      7  C   UNL     1       3.785   3.915  19.023  0.00  0.00    +0.000 A 
ENDROOT
BRANCH   1   8
ATOM      8  C   UNL     1       4.038   4.833  16.617  0.00  0.00    +0.000 C 
BRANCH   8  10
ATOM      9  O   UNL     1       6.248   3.662  15.798  0.00  0.00    +0.000 OA
ATOM     10  S   UNL     1       5.681   4.994  15.935  0.00  0.00    +0.000 S 
ATOM     11  O   UNL     1       5.629   5.904  14.804  0.00  0.00    +0.000 OA
BRANCH  10  12
ATOM     12  C   UNL     1       6.703   5.815  17.145  0.00  0.00    +0.000 A 
ATOM     13  C   UNL     1       6.990   7.170  16.913  0.00  0.00    +0.000 A 
ATOM     14  C   UNL     1       7.795   7.877  17.804  0.00  0.00    +0.000 A 
ATOM     15  C   UNL     1       8.320   7.236  18.925  0.00  0.00    +0.000 A 
ATOM     16  C   UNL     1       8.024   5.893  19.148  0.00  0.00    +0.000 A 
ATOM     17  C   UNL     1       7.215   5.171  18.272  0.00  0.00    +0.000 A 
BRANCH  16  18
ATOM     18  O   UNL     1       8.521   5.235  20.233  0.00  0.00    +0.000 OA
ATOM     19  H   UNL     1       8.389   4.278  20.110  0.00  0.00    +0.000 HD
ENDBRANCH  16  18
ENDBRANCH  10  12
ENDBRANCH   8  10
ENDBRANCH   1   8
BRANCH   7  20
ATOM     20  C   UNL     1       3.765   5.277  19.670  0.00  0.00    +0.000 C 
BRANCH  20  21
ATOM     21  S   UNL     1       2.113   5.796  20.096  0.00  0.00    +0.000 S 
ATOM     22  O   UNL     1       1.190   4.941  19.370  0.00  0.00    +0.000 OA
ATOM     23  O   UNL     1       2.009   5.886  21.544  0.00  0.00    +0.000 OA
BRANCH  21  24
ATOM     24  C   UNL     1       1.898   7.425  19.425  0.00  0.00    +0.000 A 
ATOM     25  C   UNL     1       2.349   7.722  18.137  0.00  0.00    +0.000 A 
ATOM     26  C   UNL     1       2.208   9.021  17.643  0.00  0.00    +0.000 A 
ATOM     27  C   UNL     1       1.618  10.013  18.431  0.00  0.00    +0.000 A 
ATOM     28  C   UNL     1       1.186   9.700  19.717  0.00  0.00    +0.000 A 
ATOM     29  C   UNL     1       1.331   8.417  20.228  0.00  0.00    +0.000 A 
BRANCH  28  30
ATOM     30  O   UNL     1       0.611  10.637  20.522  0.00  0.00    +0.000 OA
ATOM     31  H   UNL     1       0.222  11.334  19.967  0.00  0.00    +0.000 HD
ENDBRANCH  28  30
ENDBRANCH  21  24
ENDBRANCH  20  21
ENDBRANCH   7  20
TORSDOF 8
ENDMDL
MODEL 9
REMARK VINA RESULT:      -7.2      3.872      7.926
REMARK  Name = 
REMARK  8 active torsions:
REMARK  status: ('A' for Active; 'I' for Inactive)
REMARK    1  A    between atoms: S_2  and  C_4
REMARK    2  A    between atoms: S_2  and  C_23
REMARK    3  A    between atoms: C_4  and  C_5
REMARK    4  A    between atoms: C_11  and  C_12
REMARK    5  A    between atoms: C_12  and  S_13
REMARK    6  A    between atoms: S_13  and  C_16
REMARK    7  A    between atoms: C_20  and  O_21
REMARK    8  A    between atoms: C_27  and  O_28
REMARK                            x       y       z     vdW  Elec       q    Type
REMARK                         _______ _______ _______ _____ _____    ______ ____
ROOT
ATOM      1  C   UNL     1       6.586   4.461  17.086  0.00  0.00    +0.000 A 
ATOM      2  C   UNL     1       7.796   4.730  17.765  0.00  0.00    +0.000 A 
ATOM      3  C   UNL     1       7.819   5.403  18.988  0.00  0.00    +0.000 A 
ATOM      4  C   UNL     1       6.629   5.799  19.580  0.00  0.00    +0.000 A 
ATOM      5  C   UNL     1       5.429   5.539  18.932  0.00  0.00    +0.000 A 
ATOM      6  F   UNL     1       4.293   5.940  19.519  0.00  0.00    +0.000 F 
ATOM      7  C   UNL     1       5.374   4.888  17.687  0.00  0.00    +0.000 A 
ENDROOT
BRANCH   1   8
ATOM      8  C   UNL     1       6.634   3.668  15.785  0.00  0.00    +0.000 C 
BRANCH   8  10
ATOM      9  O   UNL     1       5.514   5.752  14.631  0.00  0.00    +0.000 OA
ATOM     10  S   UNL     1       6.529   4.747  14.364  0.00  0.00    +0.000 S 
ATOM     11  O   UNL     1       7.873   5.129  13.968  0.00  0.00    +0.000 OA
BRANCH  10  12
ATOM     12  C   UNL     1       5.895   3.796  12.995  0.00  0.00    +0.000 A 
ATOM     13  C   UNL     1       4.644   4.180  12.485  0.00  0.00    +0.000 A 
ATOM     14  C   UNL     1       4.073   3.475  11.426  0.00  0.00    +0.000 A 
ATOM     15  C   UNL     1       4.744   2.385  10.875  0.00  0.00    +0.000 A 
ATOM     16  C   UNL     1       5.987   2.017  11.385  0.00  0.00    +0.000 A 
ATOM     17  C   UNL     1       6.577   2.713  12.439  0.00  0.00    +0.000 A 
BRANCH  16  18
ATOM     18  O   UNL     1       6.670   0.955  10.871  0.00  0.00    +0.000 OA
ATOM     19  H   UNL     1       6.357   0.786   9.965  0.00  0.00    +0.000 HD
ENDBRANCH  16  18
ENDBRANCH  10  12
ENDBRANCH   8  10
ENDBRANCH   1   8
BRANCH   7  20
ATOM     20  C   UNL     1       4.014   4.723  17.056  0.00  0.00    +0.000 C 
BRANCH  20  21
ATOM     21  S   UNL     1       3.295   3.131  17.412  0.00  0.00    +0.000 S 
ATOM     22  O   UNL     1       2.207   2.926  16.471  0.00  0.00    +0.000 OA
ATOM     23  O   UNL     1       4.358   2.143  17.495  0.00  0.00    +0.000 OA
BRANCH  21  24
ATOM     24  C   UNL     1       2.535   3.258  19.011  0.00  0.00    +0.000 A 
ATOM     25  C   UNL     1       1.438   4.101  19.206  0.00  0.00    +0.000 A 
ATOM     26  C   UNL     1       0.880   4.219  20.481  0.00  0.00    +0.000 A 
ATOM     27  C   UNL     1       1.415   3.497  21.552  0.00  0.00    +0.000 A 
ATOM     28  C   UNL     1       2.516   2.673  21.340  0.00  0.00    +0.000 A 
ATOM     29  C   UNL     1       3.091   2.554  20.082  0.00  0.00    +0.000 A 
BRANCH  28  30
ATOM     30  O   UNL     1       3.074   1.956  22.357  0.00  0.00    +0.000 OA
ATOM     31  H   UNL     1       3.819   1.440  22.006  0.00  0.00    +0.000 HD
ENDBRANCH  28  30
ENDBRANCH  21  24
ENDBRANCH  20  21
ENDBRANCH   7  20
TORSDOF 8
ENDMDL
