MODEL 1
REMARK VINA RESULT:      -7.9      0.000      0.000
REMARK  Name = 
REMARK  11 active torsions:
REMARK  status: ('A' for Active; 'I' for Inactive)
REMARK    1  A    between atoms: C_2  and  C_30
REMARK    2  A    between atoms: N_3  and  C_4
REMARK    3  A    between atoms: N_7  and  C_8
REMARK    4  A    between atoms: C_8  and  C_9
REMARK    5  A    between atoms: C_9  and  O_10
REMARK    6  A    between atoms: C_9  and  C_11
REMARK    7  A    between atoms: C_11  and  N_12
REMARK    8  A    between atoms: N_12  and  C_13
REMARK    9  A    between atoms: N_12  and  S_20
REMARK   10  A    between atoms: C_13  and  C_14
REMARK   11  A    between atoms: S_20  and  C_23
REMARK                            x       y       z     vdW  Elec       q    Type
REMARK                         _______ _______ _______ _____ _____    ______ ____
ROOT
ATOM      1  C   UNL     1       2.313   7.448  18.313  0.00  0.00    +0.000 C 
ENDROOT
BRANCH   1   2
ATOM      2  O   UNL     1       2.910   8.213  17.245  0.00  0.00    +0.000 OA
ATOM      3  H   UNL     1       3.136   9.090  17.603  0.00  0.00    +0.000 HD
ENDBRANCH   1   2
BRANCH   1   4
ATOM      4  C   UNL     1       2.203   8.329  19.583  0.00  0.00    +0.000 C 
BRANCH   4   8
ATOM      5  C   UNL     1       0.528  10.992  20.984  0.00  0.00    +0.000 C 
ATOM      6  C   UNL     1       1.027  11.227  19.568  0.00  0.00    +0.000 C 
ATOM      7  C   UNL     1       0.543   9.978  18.857  0.00  0.00    +0.000 C 
ATOM      8  N   UNL     1       0.837   8.880  19.797  0.00  0.00    +0.000 NA
ATOM      9  C   UNL     1       0.657   9.468  21.150  0.00  0.00    +0.000 C 
BRANCH   5  12
ATOM     10  O   UNL     1      -0.728  11.671  23.404  0.00  0.00    +0.000 OA
ATOM     11  C   UNL     1      -1.366  11.803  22.364  0.00  0.00    +0.000 C 
ATOM     12  N   UNL     1      -0.852  11.452  21.134  0.00  0.00    +0.000 N 
ATOM     13  H   UNL     1      -1.336  11.740  20.294  0.00  0.00    +0.000 HD
BRANCH  11  14
ATOM     14  C   UNL     1      -2.730  12.355  22.367  0.00  0.00    +0.000 A 
ATOM     15  C   UNL     1      -3.510  12.538  23.567  0.00  0.00    +0.000 A 
ATOM     16  C   UNL     1      -4.773  13.032  23.328  0.00  0.00    +0.000 A 
ATOM     17  S   UNL     1      -5.038  13.312  21.667  0.00  0.00    +0.000 S 
ATOM     18  C   UNL     1      -3.467  12.757  21.266  0.00  0.00    +0.000 A 
ENDBRANCH  11  14
ENDBRANCH   5  12
ENDBRANCH   4   8
ENDBRANCH   1   4
BRANCH   1  19
ATOM     19  C   UNL     1       3.172   6.185  18.474  0.00  0.00    +0.000 C 
BRANCH  19  20
ATOM     20  N   UNL     1       3.310   5.219  17.330  0.00  0.00    +0.000 NA
BRANCH  20  21
ATOM     21  S   UNL     1       2.167   3.899  17.484  0.00  0.00    +0.000 S 
ATOM     22  O   UNL     1       0.836   4.436  17.276  0.00  0.00    +0.000 OA
ATOM     23  O   UNL     1       2.623   2.796  16.669  0.00  0.00    +0.000 OA
BRANCH  21  24
ATOM     24  C   UNL     1       2.258   3.403  19.196  0.00  0.00    +0.000 A 
ATOM     25  C   UNL     1       3.462   2.930  19.734  0.00  0.00    +0.000 A 
ATOM     26  C   UNL     1       3.493   2.469  21.050  0.00  0.00    +0.000 A 
ATOM     27  C   UNL     1       2.347   2.532  21.840  0.00  0.00    +0.000 A 
ATOM     28  C   UNL     1       1.164   3.056  21.321  0.00  0.00    +0.000 A 
ATOM     29  C   UNL     1       1.116   3.492  19.996  0.00  0.00    +0.000 A 
ENDBRANCH  21  24
ENDBRANCH  20  21
BRANCH  20  30
ATOM     30  C   UNL     1       4.715   4.848  16.956  0.00  0.00    +0.000 C 
BRANCH  30  31
ATOM     31  C   UNL     1       5.846   5.650  17.571  0.00  0.00    +0.000 A 
ATOM     32  C   UNL     1       6.235   6.892  17.046  0.00  0.00    +0.000 A 
ATOM     33  C   UNL     1       7.373   7.543  17.526  0.00  0.00    +0.000 A 
ATOM     34  C   UNL     1       8.103   6.996  18.579  0.00  0.00    +0.000 A 
ATOM     35  C   UNL     1       7.671   5.817  19.179  0.00  0.00    +0.000 A 
ATOM     36  C   UNL     1       6.543   5.153  18.685  0.00  0.00    +0.000 A 
ENDBRANCH  30  31
ENDBRANCH  20  30
ENDBRANCH  19  20
ENDBRANCH   1  19
TORSDOF 11
ENDMDL
MODEL 2
REMARK VINA RESULT:      -7.5      1.500      4.255
REMARK  Name = 
REMARK  11 active torsions:
REMARK  status: ('A' for Active; 'I' for Inactive)
REMARK    1  A    between atoms: C_2  and  C_30
REMARK    2  A    between atoms: N_3  and  C_4
REMARK    3  A    between atoms: N_7  and  C_8
REMARK    4  A    between atoms: C_8  and  C_9
REMARK    5  A    between atoms: C_9  and  O_10
REMARK    6  A    between atoms: C_9  and  C_11
REMARK    7  A    between atoms: C_11  and  N_12
REMARK    8  A    between atoms: N_12  and  C_13
REMARK    9  A    between atoms: N_12  and  S_20
REMARK   10  A    between atoms: C_13  and  C_14
REMARK   11  A    between atoms: S_20  and  C_23
REMARK                            x       y       z     vdW  Elec       q    Type
REMARK                         _______ _______ _______ _____ _____    ______ ____
ROOT
ATOM      1  C   UNL     1       1.908   8.741  17.967  0.00  0.00    +0.000 C 
ENDROOT
BRANCH   1   2
ATOM      2  O   UNL     1       1.883  10.001  17.264  0.00  0.00    +0.000 OA
ATOM      3  H   UNL     1       1.307   9.892  16.487  0.00  0.00    +0.000 HD
ENDBRANCH   1   2
BRANCH   1   4
ATOM      4  C   UNL     1       1.662   8.985  19.477  0.00  0.00    +0.000 C 
BRANCH   4   8
ATOM      5  C   UNL     1      -0.050  11.455  21.161  0.00  0.00    +0.000 C 
ATOM      6  C   UNL     1       0.403  11.835  19.760  0.00  0.00    +0.000 C 
ATOM      7  C   UNL     1      -0.065  10.642  18.948  0.00  0.00    +0.000 C 
ATOM      8  N   UNL     1       0.286   9.471  19.775  0.00  0.00    +0.000 NA
ATOM      9  C   UNL     1       0.127   9.926  21.181  0.00  0.00    +0.000 C 
BRANCH   5  12
ATOM     10  O   UNL     1      -1.338  11.597  23.653  0.00  0.00    +0.000 OA
ATOM     11  C   UNL     1      -1.968  11.936  22.656  0.00  0.00    +0.000 C 
ATOM     12  N   UNL     1      -1.438  11.856  21.386  0.00  0.00    +0.000 N 
ATOM     13  H   UNL     1      -1.918  12.307  20.620  0.00  0.00    +0.000 HD
BRANCH  11  14
ATOM     14  C   UNL     1      -3.340  12.458  22.759  0.00  0.00    +0.000 A 
ATOM     15  C   UNL     1      -4.210  12.635  21.622  0.00  0.00    +0.000 A 
ATOM     16  C   UNL     1      -5.434  13.174  21.949  0.00  0.00    +0.000 A 
ATOM     17  S   UNL     1      -5.576  13.452  23.625  0.00  0.00    +0.000 S 
ATOM     18  C   UNL     1      -3.991  12.865  23.912  0.00  0.00    +0.000 A 
ENDBRANCH  11  14
ENDBRANCH   5  12
ENDBRANCH   4   8
ENDBRANCH   1   4
BRANCH   1  19
ATOM     19  C   UNL     1       3.254   8.083  17.630  0.00  0.00    +0.000 C 
BRANCH  19  20
ATOM     20  N   UNL     1       3.422   6.596  17.781  0.00  0.00    +0.000 NA
BRANCH  20  21
ATOM     21  S   UNL     1       4.718   6.005  16.761  0.00  0.00    +0.000 S 
ATOM     22  O   UNL     1       4.573   4.567  16.646  0.00  0.00    +0.000 OA
ATOM     23  O   UNL     1       4.766   6.811  15.562  0.00  0.00    +0.000 OA
BRANCH  21  24
ATOM     24  C   UNL     1       6.212   6.298  17.691  0.00  0.00    +0.000 A 
ATOM     25  C   UNL     1       6.595   5.420  18.712  0.00  0.00    +0.000 A 
ATOM     26  C   UNL     1       7.721   5.711  19.483  0.00  0.00    +0.000 A 
ATOM     27  C   UNL     1       8.490   6.838  19.201  0.00  0.00    +0.000 A 
ATOM     28  C   UNL     1       8.140   7.681  18.147  0.00  0.00    +0.000 A 
ATOM     29  C   UNL     1       6.999   7.414  17.390  0.00  0.00    +0.000 A 
ENDBRANCH  21  24
ENDBRANCH  20  21
BRANCH  20  30
ATOM     30  C   UNL     1       2.154   5.794  17.787  0.00  0.00    +0.000 C 
BRANCH  30  31
ATOM     31  C   UNL     1       1.951   4.800  18.914  0.00  0.00    +0.000 A 
ATOM     32  C   UNL     1       1.250   3.600  18.719  0.00  0.00    +0.000 A 
ATOM     33  C   UNL     1       0.940   2.772  19.799  0.00  0.00    +0.000 A 
ATOM     34  C   UNL     1       1.378   3.096  21.081  0.00  0.00    +0.000 A 
ATOM     35  C   UNL     1       2.162   4.229  21.276  0.00  0.00    +0.000 A 
ATOM     36  C   UNL     1       2.456   5.071  20.197  0.00  0.00    +0.000 A 
ENDBRANCH  30  31
ENDBRANCH  20  30
ENDBRANCH  19  20
ENDBRANCH   1  19
TORSDOF 11
ENDMDL
MODEL 3
REMARK VINA RESULT:      -7.4      2.052      4.229
REMARK  Name = 
REMARK  11 active torsions:
REMARK  status: ('A' for Active; 'I' for Inactive)
REMARK    1  A    between atoms: C_2  and  C_30
REMARK    2  A    between atoms: N_3  and  C_4
REMARK    3  A    between atoms: N_7  and  C_8
REMARK    4  A    between atoms: C_8  and  C_9
REMARK    5  A    between atoms: C_9  and  O_10
REMARK    6  A    between atoms: C_9  and  C_11
REMARK    7  A    between atoms: C_11  and  N_12
REMARK    8  A    between atoms: N_12  and  C_13
REMARK    9  A    between atoms: N_12  and  S_20
REMARK   10  A    between atoms: C_13  and  C_14
REMARK   11  A    between atoms: S_20  and  C_23
REMARK                            x       y       z     vdW  Elec       q    Type
REMARK                         _______ _______ _______ _____ _____    ______ ____
ROOT
ATOM      1  C   UNL     1       1.745   8.966  17.950  0.00  0.00    +0.000 C 
ENDROOT
BRANCH   1   2
ATOM      2  O   UNL     1       2.168  10.267  17.494  0.00  0.00    +0.000 OA
ATOM      3  H   UNL     1       2.811  10.610  18.139  0.00  0.00    +0.000 HD
ENDBRANCH   1   2
BRANCH   1   4
ATOM      4  C   UNL     1       1.615   8.975  19.495  0.00  0.00    +0.000 C 
BRANCH   4   8
ATOM      5  C   UNL     1      -0.146  11.203  21.444  0.00  0.00    +0.000 C 
ATOM      6  C   UNL     1       0.093  11.659  20.013  0.00  0.00    +0.000 C 
ATOM      7  C   UNL     1      -0.333  10.436  19.223  0.00  0.00    +0.000 C 
ATOM      8  N   UNL     1       0.240   9.297  19.965  0.00  0.00    +0.000 NA
ATOM      9  C   UNL     1       0.199   9.705  21.394  0.00  0.00    +0.000 C 
BRANCH   5  12
ATOM     10  O   UNL     1      -1.004  12.979  23.444  0.00  0.00    +0.000 OA
ATOM     11  C   UNL     1      -1.857  12.368  22.809  0.00  0.00    +0.000 C 
ATOM     12  N   UNL     1      -1.533  11.441  21.841  0.00  0.00    +0.000 N 
ATOM     13  H   UNL     1      -2.255  11.095  21.225  0.00  0.00    +0.000 HD
BRANCH  11  14
ATOM     14  C   UNL     1      -3.293  12.594  23.040  0.00  0.00    +0.000 A 
ATOM     15  C   UNL     1      -3.914  12.493  24.338  0.00  0.00    +0.000 A 
ATOM     16  C   UNL     1      -5.274  12.707  24.312  0.00  0.00    +0.000 A 
ATOM     17  S   UNL     1      -5.828  13.059  22.738  0.00  0.00    +0.000 S 
ATOM     18  C   UNL     1      -4.249  12.910  22.089  0.00  0.00    +0.000 A 
ENDBRANCH  11  14
ENDBRANCH   5  12
ENDBRANCH   4   8
ENDBRANCH   1   4
BRANCH   1  19
ATOM     19  C   UNL     1       2.761   7.959  17.393  0.00  0.00    +0.000 C 
BRANCH  19  20
ATOM     20  N   UNL     1       3.033   6.678  18.133  0.00  0.00    +0.000 NA
BRANCH  20  21
ATOM     21  S   UNL     1       4.755   6.363  18.228  0.00  0.00    +0.000 S 
ATOM     22  O   UNL     1       5.447   7.627  18.066  0.00  0.00    +0.000 OA
ATOM     23  O   UNL     1       5.012   5.558  19.400  0.00  0.00    +0.000 OA
BRANCH  21  24
ATOM     24  C   UNL     1       5.128   5.384  16.785  0.00  0.00    +0.000 A 
ATOM     25  C   UNL     1       5.230   3.990  16.881  0.00  0.00    +0.000 A 
ATOM     26  C   UNL     1       5.604   3.250  15.760  0.00  0.00    +0.000 A 
ATOM     27  C   UNL     1       5.820   3.887  14.540  0.00  0.00    +0.000 A 
ATOM     28  C   UNL     1       5.661   5.268  14.432  0.00  0.00    +0.000 A 
ATOM     29  C   UNL     1       5.317   6.021  15.555  0.00  0.00    +0.000 A 
ENDBRANCH  21  24
ENDBRANCH  20  21
BRANCH  20  30
ATOM     30  C   UNL     1       2.159   5.515  17.767  0.00  0.00    +0.000 C 
BRANCH  30  31
ATOM     31  C   UNL     1       1.871   4.482  18.840  0.00  0.00    +0.000 A 
ATOM     32  C   UNL     1       1.734   4.841  20.189  0.00  0.00    +0.000 A 
ATOM     33  C   UNL     1       1.623   3.863  21.179  0.00  0.00    +0.000 A 
ATOM     34  C   UNL     1       1.584   2.515  20.833  0.00  0.00    +0.000 A 
ATOM     35  C   UNL     1       1.615   2.145  19.491  0.00  0.00    +0.000 A 
ATOM     36  C   UNL     1       1.747   3.123  18.499  0.00  0.00    +0.000 A 
ENDBRANCH  30  31
ENDBRANCH  20  30
ENDBRANCH  19  20
ENDBRANCH   1  19
TORSDOF 11
ENDMDL
MODEL 4
REMARK VINA RESULT:      -7.4      1.622      4.217
REMARK  Name = 
REMARK  11 active torsions:
REMARK  status: ('A' for Active; 'I' for Inactive)
REMARK    1  A    between atoms: C_2  and  C_30
REMARK    2  A    between atoms: N_3  and  C_4
REMARK    3  A    between atoms: N_7  and  C_8
REMARK    4  A    between atoms: C_8  and  C_9
REMARK    5  A    between atoms: C_9  and  O_10
REMARK    6  A    between atoms: C_9  and  C_11
REMARK    7  A    between atoms: C_11  and  N_12
REMARK    8  A    between atoms: N_12  and  C_13
REMARK    9  A    between atoms: N_12  and  S_20
REMARK   10  A    between atoms: C_13  and  C_14
REMARK   11  A    between atoms: S_20  and  C_23
REMARK                            x       y       z     vdW  Elec       q    Type
REMARK                         _______ _______ _______ _____ _____    ______ ____
ROOT
ATOM      1  C   UNL     1       2.484   8.260  18.736  0.00  0.00    +0.000 C 
ENDROOT
BRANCH   1   2
ATOM      2  O   UNL     1       1.950   7.475  19.822  0.00  0.00    +0.000 OA
ATOM      3  H   UNL     1       2.700   7.047  20.271  0.00  0.00    +0.000 HD
ENDBRANCH   1   2
BRANCH   1   4
ATOM      4  C   UNL     1       1.581   9.497  18.498  0.00  0.00    +0.000 C 
BRANCH   4   8
ATOM      5  C   UNL     1      -0.208  11.882  20.222  0.00  0.00    +0.000 C 
ATOM      6  C   UNL     1      -0.782  11.514  18.864  0.00  0.00    +0.000 C 
ATOM      7  C   UNL     1      -0.779   9.998  18.926  0.00  0.00    +0.000 C 
ATOM      8  N   UNL     1       0.521   9.655  19.532  0.00  0.00    +0.000 NA
ATOM      9  C   UNL     1       0.808  10.757  20.487  0.00  0.00    +0.000 C 
BRANCH   5  12
ATOM     10  O   UNL     1      -1.981  14.018  20.654  0.00  0.00    +0.000 OA
ATOM     11  C   UNL     1      -2.110  13.011  21.342  0.00  0.00    +0.000 C 
ATOM     12  N   UNL     1      -1.260  11.931  21.236  0.00  0.00    +0.000 N 
ATOM     13  H   UNL     1      -1.505  11.061  21.689  0.00  0.00    +0.000 HD
BRANCH  11  14
ATOM     14  C   UNL     1      -3.196  12.892  22.329  0.00  0.00    +0.000 A 
ATOM     15  C   UNL     1      -4.571  13.218  22.041  0.00  0.00    +0.000 A 
ATOM     16  C   UNL     1      -5.407  13.069  23.125  0.00  0.00    +0.000 A 
ATOM     17  S   UNL     1      -4.567  12.509  24.499  0.00  0.00    +0.000 S 
ATOM     18  C   UNL     1      -3.080  12.482  23.647  0.00  0.00    +0.000 A 
ENDBRANCH  11  14
ENDBRANCH   5  12
ENDBRANCH   4   8
ENDBRANCH   1   4
BRANCH   1  19
ATOM     19  C   UNL     1       2.611   7.311  17.536  0.00  0.00    +0.000 C 
BRANCH  19  20
ATOM     20  N   UNL     1       3.281   5.975  17.702  0.00  0.00    +0.000 NA
BRANCH  20  21
ATOM     21  S   UNL     1       4.673   5.837  16.647  0.00  0.00    +0.000 S 
ATOM     22  O   UNL     1       4.782   4.452  16.232  0.00  0.00    +0.000 OA
ATOM     23  O   UNL     1       4.597   6.874  15.643  0.00  0.00    +0.000 OA
BRANCH  21  24
ATOM     24  C   UNL     1       6.081   6.172  17.690  0.00  0.00    +0.000 A 
ATOM     25  C   UNL     1       6.935   7.245  17.406  0.00  0.00    +0.000 A 
ATOM     26  C   UNL     1       8.076   7.441  18.184  0.00  0.00    +0.000 A 
ATOM     27  C   UNL     1       8.334   6.608  19.270  0.00  0.00    +0.000 A 
ATOM     28  C   UNL     1       7.453   5.574  19.587  0.00  0.00    +0.000 A 
ATOM     29  C   UNL     1       6.324   5.352  18.796  0.00  0.00    +0.000 A 
ENDBRANCH  21  24
ENDBRANCH  20  21
BRANCH  20  30
ATOM     30  C   UNL     1       2.364   4.789  17.759  0.00  0.00    +0.000 C 
BRANCH  30  31
ATOM     31  C   UNL     1       2.332   3.981  19.042  0.00  0.00    +0.000 A 
ATOM     32  C   UNL     1       1.184   3.924  19.847  0.00  0.00    +0.000 A 
ATOM     33  C   UNL     1       1.220   3.304  21.098  0.00  0.00    +0.000 A 
ATOM     34  C   UNL     1       2.383   2.677  21.537  0.00  0.00    +0.000 A 
ATOM     35  C   UNL     1       3.501   2.635  20.707  0.00  0.00    +0.000 A 
ATOM     36  C   UNL     1       3.472   3.273  19.462  0.00  0.00    +0.000 A 
ENDBRANCH  30  31
ENDBRANCH  20  30
ENDBRANCH  19  20
ENDBRANCH   1  19
TORSDOF 11
ENDMDL
MODEL 5
REMARK VINA RESULT:      -7.4      3.138     10.604
REMARK  Name = 
REMARK  11 active torsions:
REMARK  status: ('A' for Active; 'I' for Inactive)
REMARK    1  A    between atoms: C_2  and  C_30
REMARK    2  A    between atoms: N_3  and  C_4
REMARK    3  A    between atoms: N_7  and  C_8
REMARK    4  A    between atoms: C_8  and  C_9
REMARK    5  A    between atoms: C_9  and  O_10
REMARK    6  A    between atoms: C_9  and  C_11
REMARK    7  A    between atoms: C_11  and  N_12
REMARK    8  A    between atoms: N_12  and  C_13
REMARK    9  A    between atoms: N_12  and  S_20
REMARK   10  A    between atoms: C_13  and  C_14
REMARK   11  A    between atoms: S_20  and  C_23
REMARK                            x       y       z     vdW  Elec       q    Type
REMARK                         _______ _______ _______ _____ _____    ______ ____
ROOT
ATOM      1  C   UNL     1       1.879   9.175  19.023  0.00  0.00    +0.000 C 
ENDROOT
BRANCH   1   2
ATOM      2  O   UNL     1       1.431   9.472  17.684  0.00  0.00    +0.000 OA
ATOM      3  H   UNL     1       0.461   9.398  17.676  0.00  0.00    +0.000 HD
ENDBRANCH   1   2
BRANCH   1   4
ATOM      4  C   UNL     1       2.220   7.667  19.134  0.00  0.00    +0.000 C 
BRANCH   4   8
ATOM      5  C   UNL     1       4.718   5.895  17.557  0.00  0.00    +0.000 C 
ATOM      6  C   UNL     1       3.728   5.045  18.337  0.00  0.00    +0.000 C 
ATOM      7  C   UNL     1       2.399   5.589  17.848  0.00  0.00    +0.000 C 
ATOM      8  N   UNL     1       2.583   7.052  17.827  0.00  0.00    +0.000 NA
ATOM      9  C   UNL     1       4.011   7.259  17.469  0.00  0.00    +0.000 C 
BRANCH   5  12
ATOM     10  O   UNL     1       7.086   6.176  16.071  0.00  0.00    +0.000 OA
ATOM     11  C   UNL     1       6.190   5.477  15.607  0.00  0.00    +0.000 C 
ATOM     12  N   UNL     1       4.976   5.318  16.239  0.00  0.00    +0.000 N 
ATOM     13  H   UNL     1       4.340   4.601  15.917  0.00  0.00    +0.000 HD
BRANCH  11  14
ATOM     14  C   UNL     1       6.364   4.755  14.336  0.00  0.00    +0.000 A 
ATOM     15  C   UNL     1       7.469   4.983  13.437  0.00  0.00    +0.000 A 
ATOM     16  C   UNL     1       7.407   4.224  12.290  0.00  0.00    +0.000 A 
ATOM     17  S   UNL     1       6.039   3.205  12.280  0.00  0.00    +0.000 S 
ATOM     18  C   UNL     1       5.522   3.792  13.805  0.00  0.00    +0.000 A 
ENDBRANCH  11  14
ENDBRANCH   5  12
ENDBRANCH   4   8
ENDBRANCH   1   4
BRANCH   1  19
ATOM     19  C   UNL     1       0.771   9.658  19.969  0.00  0.00    +0.000 C 
BRANCH  19  20
ATOM     20  N   UNL     1      -0.257  10.643  19.482  0.00  0.00    +0.000 NA
BRANCH  20  21
ATOM     21  S   UNL     1      -0.050  12.200  20.259  0.00  0.00    +0.000 S 
ATOM     22  O   UNL     1       1.118  12.118  21.115  0.00  0.00    +0.000 OA
ATOM     23  O   UNL     1      -0.120  13.232  19.250  0.00  0.00    +0.000 OA
BRANCH  21  24
ATOM     24  C   UNL     1      -1.463  12.373  21.335  0.00  0.00    +0.000 A 
ATOM     25  C   UNL     1      -2.578  13.115  20.926  0.00  0.00    +0.000 A 
ATOM     26  C   UNL     1      -3.638  13.308  21.812  0.00  0.00    +0.000 A 
ATOM     27  C   UNL     1      -3.610  12.720  23.075  0.00  0.00    +0.000 A 
ATOM     28  C   UNL     1      -2.524  11.934  23.460  0.00  0.00    +0.000 A 
ATOM     29  C   UNL     1      -1.446  11.760  22.591  0.00  0.00    +0.000 A 
ENDBRANCH  21  24
ENDBRANCH  20  21
BRANCH  20  30
ATOM     30  C   UNL     1      -1.661  10.125  19.383  0.00  0.00    +0.000 C 
BRANCH  30  31
ATOM     31  C   UNL     1      -2.407  10.346  18.081  0.00  0.00    +0.000 A 
ATOM     32  C   UNL     1      -1.959   9.789  16.874  0.00  0.00    +0.000 A 
ATOM     33  C   UNL     1      -2.567  10.128  15.664  0.00  0.00    +0.000 A 
ATOM     34  C   UNL     1      -3.672  10.977  15.646  0.00  0.00    +0.000 A 
ATOM     35  C   UNL     1      -4.193  11.456  16.845  0.00  0.00    +0.000 A 
ATOM     36  C   UNL     1      -3.571  11.134  18.057  0.00  0.00    +0.000 A 
ENDBRANCH  30  31
ENDBRANCH  20  30
ENDBRANCH  19  20
ENDBRANCH   1  19
TORSDOF 11
ENDMDL
MODEL 6
REMARK VINA RESULT:      -7.4      2.144      3.626
REMARK  Name = 
REMARK  11 active torsions:
REMARK  status: ('A' for Active; 'I' for Inactive)
REMARK    1  A    between atoms: C_2  and  C_30
REMARK    2  A    between atoms: N_3  and  C_4
REMARK    3  A    between atoms: N_7  and  C_8
REMARK    4  A    between atoms: C_8  and  C_9
REMARK    5  A    between atoms: C_9  and  O_10
REMARK    6  A    between atoms: C_9  and  C_11
REMARK    7  A    between atoms: C_11  and  N_12
REMARK    8  A    between atoms: N_12  and  C_13
REMARK    9  A    between atoms: N_12  and  S_20
REMARK   10  A    between atoms: C_13  and  C_14
REMARK   11  A    between atoms: S_20  and  C_23
REMARK                            x       y       z     vdW  Elec       q    Type
REMARK                         _______ _______ _______ _____ _____    ______ ____
ROOT
ATOM      1  C   UNL     1       1.909   8.737  18.181  0.00  0.00    +0.000 C 
ENDROOT
BRANCH   1   2
ATOM      2  O   UNL     1       1.973   9.840  17.254  0.00  0.00    +0.000 OA
ATOM      3  H   UNL     1       2.691  10.428  17.547  0.00  0.00    +0.000 HD
ENDBRANCH   1   2
BRANCH   1   4
ATOM      4  C   UNL     1       1.703   9.278  19.618  0.00  0.00    +0.000 C 
BRANCH   4   8
ATOM      5  C   UNL     1      -0.122  11.141  21.868  0.00  0.00    +0.000 C 
ATOM      6  C   UNL     1       0.739  11.956  20.916  0.00  0.00    +0.000 C 
ATOM      7  C   UNL     1       0.385  11.343  19.575  0.00  0.00    +0.000 C 
ATOM      8  N   UNL     1       0.362   9.890  19.826  0.00  0.00    +0.000 NA
ATOM      9  C   UNL     1      -0.128   9.745  21.222  0.00  0.00    +0.000 C 
BRANCH   5  12
ATOM     10  O   UNL     1      -0.891  13.247  23.561  0.00  0.00    +0.000 OA
ATOM     11  C   UNL     1      -1.734  12.775  22.805  0.00  0.00    +0.000 C 
ATOM     12  N   UNL     1      -1.465  11.711  21.972  0.00  0.00    +0.000 N 
ATOM     13  H   UNL     1      -2.126  11.471  21.246  0.00  0.00    +0.000 HD
BRANCH  11  14
ATOM     14  C   UNL     1      -3.097  13.328  22.738  0.00  0.00    +0.000 A 
ATOM     15  C   UNL     1      -3.480  14.575  23.355  0.00  0.00    +0.000 A 
ATOM     16  C   UNL     1      -4.814  14.875  23.197  0.00  0.00    +0.000 A 
ATOM     17  S   UNL     1      -5.627  13.685  22.285  0.00  0.00    +0.000 S 
ATOM     18  C   UNL     1      -4.194  12.759  22.115  0.00  0.00    +0.000 A 
ENDBRANCH  11  14
ENDBRANCH   5  12
ENDBRANCH   4   8
ENDBRANCH   1   4
BRANCH   1  19
ATOM     19  C   UNL     1       3.195   7.922  17.975  0.00  0.00    +0.000 C 
BRANCH  19  20
ATOM     20  N   UNL     1       3.260   6.492  18.434  0.00  0.00    +0.000 NA
BRANCH  20  21
ATOM     21  S   UNL     1       4.654   5.678  17.752  0.00  0.00    +0.000 S 
ATOM     22  O   UNL     1       4.595   5.827  16.311  0.00  0.00    +0.000 OA
ATOM     23  O   UNL     1       5.835   6.111  18.463  0.00  0.00    +0.000 OA
BRANCH  21  24
ATOM     24  C   UNL     1       4.396   3.947  18.099  0.00  0.00    +0.000 A 
ATOM     25  C   UNL     1       3.755   3.124  17.165  0.00  0.00    +0.000 A 
ATOM     26  C   UNL     1       3.489   1.793  17.489  0.00  0.00    +0.000 A 
ATOM     27  C   UNL     1       3.909   1.273  18.711  0.00  0.00    +0.000 A 
ATOM     28  C   UNL     1       4.599   2.078  19.617  0.00  0.00    +0.000 A 
ATOM     29  C   UNL     1       4.843   3.418  19.314  0.00  0.00    +0.000 A 
ENDBRANCH  21  24
ENDBRANCH  20  21
BRANCH  20  30
ATOM     30  C   UNL     1       1.963   5.738  18.405  0.00  0.00    +0.000 C 
BRANCH  30  31
ATOM     31  C   UNL     1       1.702   4.735  19.512  0.00  0.00    +0.000 A 
ATOM     32  C   UNL     1       2.235   4.906  20.799  0.00  0.00    +0.000 A 
ATOM     33  C   UNL     1       2.115   3.900  21.760  0.00  0.00    +0.000 A 
ATOM     34  C   UNL     1       1.407   2.735  21.472  0.00  0.00    +0.000 A 
ATOM     35  C   UNL     1       0.785   2.593  20.234  0.00  0.00    +0.000 A 
ATOM     36  C   UNL     1       0.923   3.592  19.264  0.00  0.00    +0.000 A 
ENDBRANCH  30  31
ENDBRANCH  20  30
ENDBRANCH  19  20
ENDBRANCH   1  19
TORSDOF 11
ENDMDL
MODEL 7
REMARK VINA RESULT:      -7.4      1.432      1.694
REMARK  Name = 
REMARK  11 active torsions:
REMARK  status: ('A' for Active; 'I' for Inactive)
REMARK    1  A    between atoms: C_2  and  C_30
REMARK    2  A    between atoms: N_3  and  C_4
REMARK    3  A    between atoms: N_7  and  C_8
REMARK    4  A    between atoms: C_8  and  C_9
REMARK    5  A    between atoms: C_9  and  O_10
REMARK    6  A    between atoms: C_9  and  C_11
REMARK    7  A    between atoms: C_11  and  N_12
REMARK    8  A    between atoms: N_12  and  C_13
REMARK    9  A    between atoms: N_12  and  S_20
REMARK   10  A    between atoms: C_13  and  C_14
REMARK   11  A    between atoms: S_20  and  C_23
REMARK                            x       y       z     vdW  Elec       q    Type
REMARK                         _______ _______ _______ _____ _____    ______ ____
ROOT
ATOM      1  C   UNL     1       2.182   7.694  19.563  0.00  0.00    +0.000 C 
ENDROOT
BRANCH   1   2
ATOM      2  O   UNL     1       1.666   7.282  20.846  0.00  0.00    +0.000 OA
ATOM      3  H   UNL     1       0.712   7.474  20.854  0.00  0.00    +0.000 HD
ENDBRANCH   1   2
BRANCH   1   4
ATOM      4  C   UNL     1       1.693   9.129  19.244  0.00  0.00    +0.000 C 
BRANCH   4   8
ATOM      5  C   UNL     1       0.116  11.875  20.600  0.00  0.00    +0.000 C 
ATOM      6  C   UNL     1      -0.224  11.600  19.144  0.00  0.00    +0.000 C 
ATOM      7  C   UNL     1      -0.548  10.118  19.176  0.00  0.00    +0.000 C 
ATOM      8  N   UNL     1       0.496   9.529  20.035  0.00  0.00    +0.000 NA
ATOM      9  C   UNL     1       0.798  10.571  21.051  0.00  0.00    +0.000 C 
BRANCH   5  12
ATOM     10  O   UNL     1      -0.004  13.386  22.966  0.00  0.00    +0.000 OA
ATOM     11  C   UNL     1      -1.054  12.955  22.500  0.00  0.00    +0.000 C 
ATOM     12  N   UNL     1      -1.092  12.165  21.371  0.00  0.00    +0.000 N 
ATOM     13  H   UNL     1      -1.980  11.981  20.925  0.00  0.00    +0.000 HD
BRANCH  11  14
ATOM     14  C   UNL     1      -2.351  13.264  23.124  0.00  0.00    +0.000 A 
ATOM     15  C   UNL     1      -2.560  14.381  24.013  0.00  0.00    +0.000 A 
ATOM     16  C   UNL     1      -3.843  14.453  24.509  0.00  0.00    +0.000 A 
ATOM     17  S   UNL     1      -4.828  13.201  23.899  0.00  0.00    +0.000 S 
ATOM     18  C   UNL     1      -3.532  12.554  22.982  0.00  0.00    +0.000 A 
ENDBRANCH  11  14
ENDBRANCH   5  12
ENDBRANCH   4   8
ENDBRANCH   1   4
BRANCH   1  19
ATOM     19  C   UNL     1       1.743   6.623  18.555  0.00  0.00    +0.000 C 
BRANCH  19  20
ATOM     20  N   UNL     1       2.776   5.832  17.800  0.00  0.00    +0.000 NA
BRANCH  20  21
ATOM     21  S   UNL     1       2.287   4.157  17.638  0.00  0.00    +0.000 S 
ATOM     22  O   UNL     1       0.904   4.137  17.202  0.00  0.00    +0.000 OA
ATOM     23  O   UNL     1       3.286   3.457  16.862  0.00  0.00    +0.000 OA
BRANCH  21  24
ATOM     24  C   UNL     1       2.311   3.503  19.298  0.00  0.00    +0.000 A 
ATOM     25  C   UNL     1       3.497   2.995  19.843  0.00  0.00    +0.000 A 
ATOM     26  C   UNL     1       3.477   2.413  21.110  0.00  0.00    +0.000 A 
ATOM     27  C   UNL     1       2.298   2.389  21.851  0.00  0.00    +0.000 A 
ATOM     28  C   UNL     1       1.131   2.948  21.331  0.00  0.00    +0.000 A 
ATOM     29  C   UNL     1       1.134   3.505  20.052  0.00  0.00    +0.000 A 
ENDBRANCH  21  24
ENDBRANCH  20  21
BRANCH  20  30
ATOM     30  C   UNL     1       4.202   6.078  18.195  0.00  0.00    +0.000 C 
BRANCH  30  31
ATOM     31  C   UNL     1       5.287   5.668  17.218  0.00  0.00    +0.000 A 
ATOM     32  C   UNL     1       5.184   5.943  15.846  0.00  0.00    +0.000 A 
ATOM     33  C   UNL     1       6.114   5.424  14.943  0.00  0.00    +0.000 A 
ATOM     34  C   UNL     1       7.197   4.677  15.402  0.00  0.00    +0.000 A 
ATOM     35  C   UNL     1       7.371   4.482  16.769  0.00  0.00    +0.000 A 
ATOM     36  C   UNL     1       6.428   4.983  17.673  0.00  0.00    +0.000 A 
ENDBRANCH  30  31
ENDBRANCH  20  30
ENDBRANCH  19  20
ENDBRANCH   1  19
TORSDOF 11
ENDMDL
MODEL 8
REMARK VINA RESULT:      -7.3      3.362     10.413
REMARK  Name = 
REMARK  11 active torsions:
REMARK  status: ('A' for Active; 'I' for Inactive)
REMARK    1  A    between atoms: C_2  and  C_30
REMARK    2  A    between atoms: N_3  and  C_4
REMARK    3  A    between atoms: N_7  and  C_8
REMARK    4  A    between atoms: C_8  and  C_9
REMARK    5  A    between atoms: C_9  and  O_10
REMARK    6  A    between atoms: C_9  and  C_11
REMARK    7  A    between atoms: C_11  and  N_12
REMARK    8  A    between atoms: N_12  and  C_13
REMARK    9  A    between atoms: N_12  and  S_20
REMARK   10  A    between atoms: C_13  and  C_14
REMARK   11  A    between atoms: S_20  and  C_23
REMARK                            x       y       z     vdW  Elec       q    Type
REMARK                         _______ _______ _______ _____ _____    ______ ____
ROOT
ATOM      1  C   UNL     1       1.178   8.371  19.576  0.00  0.00    +0.000 C 
ENDROOT
BRANCH   1   2
ATOM      2  O   UNL     1       0.755   8.538  20.945  0.00  0.00    +0.000 OA
ATOM      3  H   UNL     1       0.192   9.332  20.984  0.00  0.00    +0.000 HD
ENDBRANCH   1   2
BRANCH   1   4
ATOM      4  C   UNL     1       2.444   7.477  19.531  0.00  0.00    +0.000 C 
BRANCH   4   8
ATOM      5  C   UNL     1       4.845   5.793  17.725  0.00  0.00    +0.000 C 
ATOM      6  C   UNL     1       3.879   4.901  18.488  0.00  0.00    +0.000 C 
ATOM      7  C   UNL     1       2.537   5.492  18.099  0.00  0.00    +0.000 C 
ATOM      8  N   UNL     1       2.740   6.951  18.170  0.00  0.00    +0.000 NA
ATOM      9  C   UNL     1       4.153   7.167  17.764  0.00  0.00    +0.000 C 
BRANCH   5  12
ATOM     10  O   UNL     1       7.207   6.002  16.219  0.00  0.00    +0.000 OA
ATOM     11  C   UNL     1       6.251   5.418  15.718  0.00  0.00    +0.000 C 
ATOM     12  N   UNL     1       5.036   5.306  16.360  0.00  0.00    +0.000 N 
ATOM     13  H   UNL     1       4.340   4.672  15.994  0.00  0.00    +0.000 HD
BRANCH  11  14
ATOM     14  C   UNL     1       6.348   4.791  14.390  0.00  0.00    +0.000 A 
ATOM     15  C   UNL     1       5.334   3.920  13.847  0.00  0.00    +0.000 A 
ATOM     16  C   UNL     1       5.654   3.417  12.605  0.00  0.00    +0.000 A 
ATOM     17  S   UNL     1       7.159   3.999  12.055  0.00  0.00    +0.000 S 
ATOM     18  C   UNL     1       7.390   4.914  13.487  0.00  0.00    +0.000 A 
ENDBRANCH  11  14
ENDBRANCH   5  12
ENDBRANCH   4   8
ENDBRANCH   1   4
BRANCH   1  19
ATOM     19  C   UNL     1       1.365   9.784  19.004  0.00  0.00    +0.000 C 
BRANCH  19  20
ATOM     20  N   UNL     1       0.163  10.624  18.670  0.00  0.00    +0.000 NA
BRANCH  20  21
ATOM     21  S   UNL     1       0.271  12.201  19.427  0.00  0.00    +0.000 S 
ATOM     22  O   UNL     1       1.614  12.351  19.953  0.00  0.00    +0.000 OA
ATOM     23  O   UNL     1      -0.246  13.190  18.509  0.00  0.00    +0.000 OA
BRANCH  21  24
ATOM     24  C   UNL     1      -0.825  12.118  20.832  0.00  0.00    +0.000 A 
ATOM     25  C   UNL     1      -2.051  12.795  20.817  0.00  0.00    +0.000 A 
ATOM     26  C   UNL     1      -2.856  12.786  21.956  0.00  0.00    +0.000 A 
ATOM     27  C   UNL     1      -2.468  12.062  23.081  0.00  0.00    +0.000 A 
ATOM     28  C   UNL     1      -1.275  11.340  23.075  0.00  0.00    +0.000 A 
ATOM     29  C   UNL     1      -0.449  11.368  21.951  0.00  0.00    +0.000 A 
ENDBRANCH  21  24
ENDBRANCH  20  21
BRANCH  20  30
ATOM     30  C   UNL     1      -1.164   9.928  18.758  0.00  0.00    +0.000 C 
BRANCH  30  31
ATOM     31  C   UNL     1      -2.196  10.237  17.691  0.00  0.00    +0.000 A 
ATOM     32  C   UNL     1      -2.057   9.767  16.376  0.00  0.00    +0.000 A 
ATOM     33  C   UNL     1      -2.932  10.187  15.372  0.00  0.00    +0.000 A 
ATOM     34  C   UNL     1      -3.997  11.031  15.678  0.00  0.00    +0.000 A 
ATOM     35  C   UNL     1      -4.210  11.424  16.996  0.00  0.00    +0.000 A 
ATOM     36  C   UNL     1      -3.322  11.021  17.999  0.00  0.00    +0.000 A 
ENDBRANCH  30  31
ENDBRANCH  20  30
ENDBRANCH  19  20
ENDBRANCH   1  19
TORSDOF 11
ENDMDL
MODEL 9
REMARK VINA RESULT:      -7.3      3.137     10.531
REMARK  Name = 
REMARK  11 active torsions:
REMARK  status: ('A' for Active; 'I' for Inactive)
REMARK    1  A    between atoms: C_2  and  C_30
REMARK    2  A    between atoms: N_3  and  C_4
REMARK    3  A    between atoms: N_7  and  C_8
REMARK    4  A    between atoms: C_8  and  C_9
REMARK    5  A    between atoms: C_9  and  O_10
REMARK    6  A    between atoms: C_9  and  C_11
REMARK    7  A    between atoms: C_11  and  N_12
REMARK    8  A    between atoms: N_12  and  C_13
REMARK    9  A    between atoms: N_12  and  S_20
REMARK   10  A    between atoms: C_13  and  C_14
REMARK   11  A    between atoms: S_20  and  C_23
REMARK                            x       y       z     vdW  Elec       q    Type
REMARK                         _______ _______ _______ _____ _____    ______ ____
ROOT
ATOM      1  C   UNL     1       1.868   8.947  19.282  0.00  0.00    +0.000 C 
ENDROOT
BRANCH   1   2
ATOM      2  O   UNL     1       1.629   9.350  17.918  0.00  0.00    +0.000 OA
ATOM      3  H   UNL     1       1.021  10.110  17.938  0.00  0.00    +0.000 HD
ENDBRANCH   1   2
BRANCH   1   4
ATOM      4  C   UNL     1       2.206   7.435  19.324  0.00  0.00    +0.000 C 
BRANCH   4   8
ATOM      5  C   UNL     1       4.679   5.692  17.679  0.00  0.00    +0.000 C 
ATOM      6  C   UNL     1       3.666   4.825  18.408  0.00  0.00    +0.000 C 
ATOM      7  C   UNL     1       2.352   5.421  17.937  0.00  0.00    +0.000 C 
ATOM      8  N   UNL     1       2.567   6.879  17.991  0.00  0.00    +0.000 NA
ATOM      9  C   UNL     1       4.002   7.073  17.655  0.00  0.00    +0.000 C 
BRANCH   5  12
ATOM     10  O   UNL     1       6.961   6.213  16.124  0.00  0.00    +0.000 OA
ATOM     11  C   UNL     1       6.110   5.455  15.668  0.00  0.00    +0.000 C 
ATOM     12  N   UNL     1       4.936   5.176  16.335  0.00  0.00    +0.000 N 
ATOM     13  H   UNL     1       4.351   4.418  16.012  0.00  0.00    +0.000 HD
BRANCH  11  14
ATOM     14  C   UNL     1       6.297   4.787  14.369  0.00  0.00    +0.000 A 
ATOM     15  C   UNL     1       5.341   3.867  13.804  0.00  0.00    +0.000 A 
ATOM     16  C   UNL     1       5.742   3.333  12.600  0.00  0.00    +0.000 A 
ATOM     17  S   UNL     1       7.256   3.944  12.111  0.00  0.00    +0.000 S 
ATOM     18  C   UNL     1       7.382   4.912  13.519  0.00  0.00    +0.000 A 
ENDBRANCH  11  14
ENDBRANCH   5  12
ENDBRANCH   4   8
ENDBRANCH   1   4
BRANCH   1  19
ATOM     19  C   UNL     1       0.620   9.353  20.080  0.00  0.00    +0.000 C 
BRANCH  19  20
ATOM     20  N   UNL     1      -0.258  10.470  19.586  0.00  0.00    +0.000 NA
BRANCH  20  21
ATOM     21  S   UNL     1       0.118  11.972  20.406  0.00  0.00    +0.000 S 
ATOM     22  O   UNL     1       1.216  11.718  21.318  0.00  0.00    +0.000 OA
ATOM     23  O   UNL     1       0.245  13.018  19.417  0.00  0.00    +0.000 OA
BRANCH  21  24
ATOM     24  C   UNL     1      -1.313  12.323  21.411  0.00  0.00    +0.000 A 
ATOM     25  C   UNL     1      -1.457  11.732  22.672  0.00  0.00    +0.000 A 
ATOM     26  C   UNL     1      -2.622  11.953  23.406  0.00  0.00    +0.000 A 
ATOM     27  C   UNL     1      -3.610  12.802  22.913  0.00  0.00    +0.000 A 
ATOM     28  C   UNL     1      -3.440  13.436  21.682  0.00  0.00    +0.000 A 
ATOM     29  C   UNL     1      -2.292  13.197  20.926  0.00  0.00    +0.000 A 
ENDBRANCH  21  24
ENDBRANCH  20  21
BRANCH  20  30
ATOM     30  C   UNL     1      -1.712  10.136  19.432  0.00  0.00    +0.000 C 
BRANCH  30  31
ATOM     31  C   UNL     1      -2.376  10.457  18.107  0.00  0.00    +0.000 A 
ATOM     32  C   UNL     1      -3.471  11.331  18.026  0.00  0.00    +0.000 A 
ATOM     33  C   UNL     1      -4.164  11.496  16.825  0.00  0.00    +0.000 A 
ATOM     34  C   UNL     1      -3.737  10.840  15.672  0.00  0.00    +0.000 A 
ATOM     35  C   UNL     1      -2.592  10.050  15.711  0.00  0.00    +0.000 A 
ATOM     36  C   UNL     1      -1.908   9.868  16.919  0.00  0.00    +0.000 A 
ENDBRANCH  30  31
ENDBRANCH  20  30
ENDBRANCH  19  20
ENDBRANCH   1  19
TORSDOF 11
ENDMDL
