MODEL 1
REMARK VINA RESULT:      -7.3      0.000      0.000
REMARK  Name = 
REMARK  11 active torsions:
REMARK  status: ('A' for Active; 'I' for Inactive)
REMARK    1  A    between atoms: C_2  and  C_3
REMARK    2  A    between atoms: C_3  and  O_4
REMARK    3  A    between atoms: O_4  and  C_5
REMARK    4  A    between atoms: N_7  and  C_8
REMARK    5  A    between atoms: C_8  and  C_9
REMARK    6  A    between atoms: C_9  and  S_10
REMARK    7  A    between atoms: S_10  and  C_11
REMARK    8  A    between atoms: C_16  and  N_17
REMARK    9  A    between atoms: C_18  and  C_20
REMARK   10  A    between atoms: C_20  and  C_21
REMARK   11  A    between atoms: C_24  and  N_25
REMARK                            x       y       z     vdW  Elec       q    Type
REMARK                         _______ _______ _______ _____ _____    ______ ____
ROOT
ATOM      1  C   UNL     1       2.873   5.796  19.464  0.00  0.00    +0.000 A 
ATOM      2  N   UNL     1       3.040   6.558  18.408  0.00  0.00    +0.000 NA
ATOM      3  C   UNL     1       2.423   7.783  18.613  0.00  0.00    +0.000 A 
ATOM      4  C   UNL     1       2.407   8.865  17.711  0.00  0.00    +0.000 A 
ATOM      5  C   UNL     1       1.781  10.069  18.073  0.00  0.00    +0.000 A 
ATOM      6  C   UNL     1       1.131  10.194  19.301  0.00  0.00    +0.000 A 
ATOM      7  C   UNL     1       1.088   9.111  20.188  0.00  0.00    +0.000 A 
ATOM      8  C   UNL     1       1.767   7.928  19.837  0.00  0.00    +0.000 A 
ATOM      9  S   UNL     1       1.965   6.476  20.746  0.00  0.00    +0.000 S 
ENDROOT
BRANCH   6  10
ATOM     10  N   UNL     1       0.477  11.390  19.672  0.00  0.00    +0.000 N 
ATOM     11  C   UNL     1      -0.871  11.618  19.421  0.00  0.00    +0.000 C 
ATOM     12  O   UNL     1      -1.614  10.840  18.825  0.00  0.00    +0.000 OA
ATOM     13  H   UNL     1       1.053  12.217  19.765  0.00  0.00    +0.000 HD
BRANCH  11  14
ATOM     14  C   UNL     1      -1.375  12.973  19.908  0.00  0.00    +0.000 C 
BRANCH  14  15
ATOM     15  C   UNL     1      -2.494  12.887  20.924  0.00  0.00    +0.000 A 
ATOM     16  C   UNL     1      -3.818  13.186  20.564  0.00  0.00    +0.000 A 
ATOM     17  C   UNL     1      -4.845  13.147  21.512  0.00  0.00    +0.000 A 
ATOM     18  C   UNL     1      -4.553  12.788  22.833  0.00  0.00    +0.000 A 
ATOM     19  C   UNL     1      -3.250  12.430  23.196  0.00  0.00    +0.000 A 
ATOM     20  C   UNL     1      -2.227  12.476  22.241  0.00  0.00    +0.000 A 
BRANCH  18  21
ATOM     21  N   UNL     1      -5.614  12.808  23.849  0.00  0.00    +0.000 N 
ATOM     22  O   UNL     1      -5.621  11.903  24.695  0.00  0.00    +0.000 OA
ATOM     23  O   UNL     1      -6.451  13.721  23.789  0.00  0.00    +0.000 OA
ENDBRANCH  18  21
ENDBRANCH  14  15
ENDBRANCH  11  14
ENDBRANCH   6  10
BRANCH   1  24
ATOM     24  S   UNL     1       3.560   4.187  19.561  0.00  0.00    +0.000 S 
BRANCH  24  25
ATOM     25  C   UNL     1       4.374   4.024  17.940  0.00  0.00    +0.000 C 
BRANCH  25  26
ATOM     26  C   UNL     1       5.847   4.426  17.993  0.00  0.00    +0.000 C 
BRANCH  26  29
ATOM     27  C   UNL     1       6.602   5.245  15.792  0.00  0.00    +0.000 C 
ATOM     28  O   UNL     1       6.289   6.410  16.000  0.00  0.00    +0.000 OA
ATOM     29  N   UNL     1       6.519   4.248  16.721  0.00  0.00    +0.000 N 
ATOM     30  H   UNL     1       6.728   3.317  16.385  0.00  0.00    +0.000 HD
BRANCH  27  31
ATOM     31  O   UNL     1       6.985   4.730  14.604  0.00  0.00    +0.000 OA
BRANCH  31  32
ATOM     32  C   UNL     1       6.217   3.604  14.156  0.00  0.00    +0.000 C 
BRANCH  32  34
ATOM     33  C   UNL     1       4.871   3.442  12.046  0.00  0.00    +0.000 C 
ATOM     34  C   UNL     1       6.043   3.634  12.668  0.00  0.00    +0.000 C 
ENDBRANCH  32  34
ENDBRANCH  31  32
ENDBRANCH  27  31
ENDBRANCH  26  29
ENDBRANCH  25  26
ENDBRANCH  24  25
ENDBRANCH   1  24
TORSDOF 11
ENDMDL
MODEL 2
REMARK VINA RESULT:      -7.2      1.800      2.605
REMARK  Name = 
REMARK  11 active torsions:
REMARK  status: ('A' for Active; 'I' for Inactive)
REMARK    1  A    between atoms: C_2  and  C_3
REMARK    2  A    between atoms: C_3  and  O_4
REMARK    3  A    between atoms: O_4  and  C_5
REMARK    4  A    between atoms: N_7  and  C_8
REMARK    5  A    between atoms: C_8  and  C_9
REMARK    6  A    between atoms: C_9  and  S_10
REMARK    7  A    between atoms: S_10  and  C_11
REMARK    8  A    between atoms: C_16  and  N_17
REMARK    9  A    between atoms: C_18  and  C_20
REMARK   10  A    between atoms: C_20  and  C_21
REMARK   11  A    between atoms: C_24  and  N_25
REMARK                            x       y       z     vdW  Elec       q    Type
REMARK                         _______ _______ _______ _____ _____    ______ ____
ROOT
ATOM      1  C   UNL     1       2.784   6.053  19.376  0.00  0.00    +0.000 A 
ATOM      2  N   UNL     1       2.986   6.836  18.342  0.00  0.00    +0.000 NA
ATOM      3  C   UNL     1       2.352   8.052  18.545  0.00  0.00    +0.000 A 
ATOM      4  C   UNL     1       2.363   9.151  17.664  0.00  0.00    +0.000 A 
ATOM      5  C   UNL     1       1.714  10.343  18.023  0.00  0.00    +0.000 A 
ATOM      6  C   UNL     1       1.015  10.441  19.226  0.00  0.00    +0.000 A 
ATOM      7  C   UNL     1       0.944   9.342  20.090  0.00  0.00    +0.000 A 
ATOM      8  C   UNL     1       1.646   8.169  19.745  0.00  0.00    +0.000 A 
ATOM      9  S   UNL     1       1.819   6.703  20.633  0.00  0.00    +0.000 S 
ENDROOT
BRANCH   6  10
ATOM     10  N   UNL     1       0.337  11.626  19.592  0.00  0.00    +0.000 N 
ATOM     11  C   UNL     1       0.870  12.553  20.480  0.00  0.00    +0.000 C 
ATOM     12  O   UNL     1       1.947  12.426  21.062  0.00  0.00    +0.000 OA
ATOM     13  H   UNL     1      -0.673  11.616  19.520  0.00  0.00    +0.000 HD
BRANCH  11  14
ATOM     14  C   UNL     1      -0.026  13.761  20.732  0.00  0.00    +0.000 C 
BRANCH  14  15
ATOM     15  C   UNL     1      -1.303  13.438  21.479  0.00  0.00    +0.000 A 
ATOM     16  C   UNL     1      -1.262  12.840  22.749  0.00  0.00    +0.000 A 
ATOM     17  C   UNL     1      -2.442  12.504  23.421  0.00  0.00    +0.000 A 
ATOM     18  C   UNL     1      -3.678  12.783  22.828  0.00  0.00    +0.000 A 
ATOM     19  C   UNL     1      -3.738  13.432  21.590  0.00  0.00    +0.000 A 
ATOM     20  C   UNL     1      -2.552  13.761  20.923  0.00  0.00    +0.000 A 
BRANCH  18  21
ATOM     21  N   UNL     1      -4.920  12.374  23.498  0.00  0.00    +0.000 N 
ATOM     22  O   UNL     1      -4.851  12.038  24.689  0.00  0.00    +0.000 OA
ATOM     23  O   UNL     1      -5.963  12.371  22.826  0.00  0.00    +0.000 OA
ENDBRANCH  18  21
ENDBRANCH  14  15
ENDBRANCH  11  14
ENDBRANCH   6  10
BRANCH   1  24
ATOM     24  S   UNL     1       3.478   4.447  19.471  0.00  0.00    +0.000 S 
BRANCH  24  25
ATOM     25  C   UNL     1       3.240   3.831  17.774  0.00  0.00    +0.000 C 
BRANCH  25  26
ATOM     26  C   UNL     1       4.548   3.350  17.147  0.00  0.00    +0.000 C 
BRANCH  26  29
ATOM     27  C   UNL     1       6.730   4.453  16.822  0.00  0.00    +0.000 C 
ATOM     28  O   UNL     1       6.705   4.378  15.600  0.00  0.00    +0.000 OA
ATOM     29  N   UNL     1       5.701   4.078  17.638  0.00  0.00    +0.000 N 
ATOM     30  H   UNL     1       5.893   4.114  18.630  0.00  0.00    +0.000 HD
BRANCH  27  31
ATOM     31  O   UNL     1       7.792   4.822  17.570  0.00  0.00    +0.000 OA
BRANCH  31  32
ATOM     32  C   UNL     1       7.572   5.960  18.415  0.00  0.00    +0.000 C 
BRANCH  32  34
ATOM     33  C   UNL     1       8.041   8.319  17.704  0.00  0.00    +0.000 C 
ATOM     34  C   UNL     1       7.323   7.192  17.599  0.00  0.00    +0.000 C 
ENDBRANCH  32  34
ENDBRANCH  31  32
ENDBRANCH  27  31
ENDBRANCH  26  29
ENDBRANCH  25  26
ENDBRANCH  24  25
ENDBRANCH   1  24
TORSDOF 11
ENDMDL
MODEL 3
REMARK VINA RESULT:      -7.1      2.301     12.289
REMARK  Name = 
REMARK  11 active torsions:
REMARK  status: ('A' for Active; 'I' for Inactive)
REMARK    1  A    between atoms: C_2  and  C_3
REMARK    2  A    between atoms: C_3  and  O_4
REMARK    3  A    between atoms: O_4  and  C_5
REMARK    4  A    between atoms: N_7  and  C_8
REMARK    5  A    between atoms: C_8  and  C_9
REMARK    6  A    between atoms: C_9  and  S_10
REMARK    7  A    between atoms: S_10  and  C_11
REMARK    8  A    between atoms: C_16  and  N_17
REMARK    9  A    between atoms: C_18  and  C_20
REMARK   10  A    between atoms: C_20  and  C_21
REMARK   11  A    between atoms: C_24  and  N_25
REMARK                            x       y       z     vdW  Elec       q    Type
REMARK                         _______ _______ _______ _____ _____    ______ ____
ROOT
ATOM      1  C   UNL     1       0.215  10.108  21.098  0.00  0.00    +0.000 A 
ATOM      2  N   UNL     1       0.617  10.438  19.892  0.00  0.00    +0.000 NA
ATOM      3  C   UNL     1       1.325   9.385  19.332  0.00  0.00    +0.000 A 
ATOM      4  C   UNL     1       1.893   9.360  18.043  0.00  0.00    +0.000 A 
ATOM      5  C   UNL     1       2.543   8.203  17.586  0.00  0.00    +0.000 A 
ATOM      6  C   UNL     1       2.677   7.087  18.412  0.00  0.00    +0.000 A 
ATOM      7  C   UNL     1       2.169   7.111  19.716  0.00  0.00    +0.000 A 
ATOM      8  C   UNL     1       1.470   8.258  20.143  0.00  0.00    +0.000 A 
ATOM      9  S   UNL     1       0.666   8.548  21.640  0.00  0.00    +0.000 S 
ENDROOT
BRANCH   6  10
ATOM     10  N   UNL     1       3.349   5.922  17.977  0.00  0.00    +0.000 N 
ATOM     11  C   UNL     1       4.354   5.313  18.719  0.00  0.00    +0.000 C 
ATOM     12  O   UNL     1       4.788   5.735  19.789  0.00  0.00    +0.000 OA
ATOM     13  H   UNL     1       3.376   5.755  16.979  0.00  0.00    +0.000 HD
BRANCH  11  14
ATOM     14  C   UNL     1       4.941   4.065  18.066  0.00  0.00    +0.000 C 
BRANCH  14  15
ATOM     15  C   UNL     1       5.586   4.318  16.720  0.00  0.00    +0.000 A 
ATOM     16  C   UNL     1       4.905   4.022  15.528  0.00  0.00    +0.000 A 
ATOM     17  C   UNL     1       5.517   4.217  14.285  0.00  0.00    +0.000 A 
ATOM     18  C   UNL     1       6.818   4.729  14.229  0.00  0.00    +0.000 A 
ATOM     19  C   UNL     1       7.490   5.084  15.404  0.00  0.00    +0.000 A 
ATOM     20  C   UNL     1       6.871   4.882  16.643  0.00  0.00    +0.000 A 
BRANCH  18  21
ATOM     21  N   UNL     1       7.492   4.874  12.931  0.00  0.00    +0.000 N 
ATOM     22  O   UNL     1       8.342   5.769  12.818  0.00  0.00    +0.000 OA
ATOM     23  O   UNL     1       7.157   4.103  12.019  0.00  0.00    +0.000 OA
ENDBRANCH  18  21
ENDBRANCH  14  15
ENDBRANCH  11  14
ENDBRANCH   6  10
BRANCH   1  24
ATOM     24  S   UNL     1      -0.745  11.195  22.082  0.00  0.00    +0.000 S 
BRANCH  24  25
ATOM     25  C   UNL     1      -1.720  12.081  20.825  0.00  0.00    +0.000 C 
BRANCH  25  26
ATOM     26  C   UNL     1      -2.496  13.255  21.421  0.00  0.00    +0.000 C 
BRANCH  26  29
ATOM     27  C   UNL     1      -4.909  12.761  21.543  0.00  0.00    +0.000 C 
ATOM     28  O   UNL     1      -4.860  12.272  22.664  0.00  0.00    +0.000 OA
ATOM     29  N   UNL     1      -3.849  13.345  20.911  0.00  0.00    +0.000 N 
ATOM     30  H   UNL     1      -4.011  13.628  19.954  0.00  0.00    +0.000 HD
BRANCH  27  31
ATOM     31  O   UNL     1      -5.972  12.725  20.711  0.00  0.00    +0.000 OA
BRANCH  31  32
ATOM     32  C   UNL     1      -7.035  11.855  21.126  0.00  0.00    +0.000 C 
BRANCH  32  34
ATOM     33  C   UNL     1      -6.648  10.681  18.943  0.00  0.00    +0.000 C 
ATOM     34  C   UNL     1      -7.197  10.716  20.166  0.00  0.00    +0.000 C 
ENDBRANCH  32  34
ENDBRANCH  31  32
ENDBRANCH  27  31
ENDBRANCH  26  29
ENDBRANCH  25  26
ENDBRANCH  24  25
ENDBRANCH   1  24
TORSDOF 11
ENDMDL
MODEL 4
REMARK VINA RESULT:      -7.1      2.320      3.331
REMARK  Name = 
REMARK  11 active torsions:
REMARK  status: ('A' for Active; 'I' for Inactive)
REMARK    1  A    between atoms: C_2  and  C_3
REMARK    2  A    between atoms: C_3  and  O_4
REMARK    3  A    between atoms: O_4  and  C_5
REMARK    4  A    between atoms: N_7  and  C_8
REMARK    5  A    between atoms: C_8  and  C_9
REMARK    6  A    between atoms: C_9  and  S_10
REMARK    7  A    between atoms: S_10  and  C_11
REMARK    8  A    between atoms: C_16  and  N_17
REMARK    9  A    between atoms: C_18  and  C_20
REMARK   10  A    between atoms: C_20  and  C_21
REMARK   11  A    between atoms: C_24  and  N_25
REMARK                            x       y       z     vdW  Elec       q    Type
REMARK                         _______ _______ _______ _____ _____    ______ ____
ROOT
ATOM      1  C   UNL     1       3.378   5.196  19.110  0.00  0.00    +0.000 A 
ATOM      2  N   UNL     1       3.223   6.262  18.360  0.00  0.00    +0.000 NA
ATOM      3  C   UNL     1       2.408   7.177  19.010  0.00  0.00    +0.000 A 
ATOM      4  C   UNL     1       2.035   8.446  18.526  0.00  0.00    +0.000 A 
ATOM      5  C   UNL     1       1.240   9.291  19.318  0.00  0.00    +0.000 A 
ATOM      6  C   UNL     1       0.774   8.872  20.564  0.00  0.00    +0.000 A 
ATOM      7  C   UNL     1       1.087   7.592  21.038  0.00  0.00    +0.000 A 
ATOM      8  C   UNL     1       1.931   6.775  20.260  0.00  0.00    +0.000 A 
ATOM      9  S   UNL     1       2.557   5.208  20.613  0.00  0.00    +0.000 S 
ENDROOT
BRANCH   6  10
ATOM     10  N   UNL     1      -0.045   9.700  21.363  0.00  0.00    +0.000 N 
ATOM     11  C   UNL     1       0.289  11.013  21.673  0.00  0.00    +0.000 C 
ATOM     12  O   UNL     1       1.330  11.571  21.329  0.00  0.00    +0.000 OA
ATOM     13  H   UNL     1      -0.664   9.238  22.017  0.00  0.00    +0.000 HD
BRANCH  11  14
ATOM     14  C   UNL     1      -0.738  11.728  22.545  0.00  0.00    +0.000 C 
BRANCH  14  15
ATOM     15  C   UNL     1      -2.003  12.124  21.812  0.00  0.00    +0.000 A 
ATOM     16  C   UNL     1      -2.033  12.181  20.409  0.00  0.00    +0.000 A 
ATOM     17  C   UNL     1      -3.190  12.585  19.733  0.00  0.00    +0.000 A 
ATOM     18  C   UNL     1      -4.335  12.921  20.464  0.00  0.00    +0.000 A 
ATOM     19  C   UNL     1      -4.340  12.813  21.859  0.00  0.00    +0.000 A 
ATOM     20  C   UNL     1      -3.178  12.410  22.527  0.00  0.00    +0.000 A 
BRANCH  18  21
ATOM     21  N   UNL     1      -5.531  13.409  19.766  0.00  0.00    +0.000 N 
ATOM     22  O   UNL     1      -6.245  14.238  20.351  0.00  0.00    +0.000 OA
ATOM     23  O   UNL     1      -5.767  12.951  18.638  0.00  0.00    +0.000 OA
ENDBRANCH  18  21
ENDBRANCH  14  15
ENDBRANCH  11  14
ENDBRANCH   6  10
BRANCH   1  24
ATOM     24  S   UNL     1       4.384   3.851  18.610  0.00  0.00    +0.000 S 
BRANCH  24  25
ATOM     25  C   UNL     1       3.954   3.693  16.847  0.00  0.00    +0.000 C 
BRANCH  25  26
ATOM     26  C   UNL     1       5.120   4.071  15.934  0.00  0.00    +0.000 C 
BRANCH  26  29
ATOM     27  C   UNL     1       6.752   5.855  16.420  0.00  0.00    +0.000 C 
ATOM     28  O   UNL     1       7.713   5.101  16.498  0.00  0.00    +0.000 OA
ATOM     29  N   UNL     1       5.495   5.466  16.059  0.00  0.00    +0.000 N 
ATOM     30  H   UNL     1       4.780   6.178  16.121  0.00  0.00    +0.000 HD
BRANCH  27  31
ATOM     31  O   UNL     1       6.743   7.161  16.764  0.00  0.00    +0.000 OA
BRANCH  31  32
ATOM     32  C   UNL     1       7.690   7.526  17.779  0.00  0.00    +0.000 C 
BRANCH  32  34
ATOM     33  C   UNL     1       8.839   9.622  18.540  0.00  0.00    +0.000 C 
ATOM     34  C   UNL     1       7.900   9.010  17.804  0.00  0.00    +0.000 C 
ENDBRANCH  32  34
ENDBRANCH  31  32
ENDBRANCH  27  31
ENDBRANCH  26  29
ENDBRANCH  25  26
ENDBRANCH  24  25
ENDBRANCH   1  24
TORSDOF 11
ENDMDL
MODEL 5
REMARK VINA RESULT:      -7.1      1.824      2.341
REMARK  Name = 
REMARK  11 active torsions:
REMARK  status: ('A' for Active; 'I' for Inactive)
REMARK    1  A    between atoms: C_2  and  C_3
REMARK    2  A    between atoms: C_3  and  O_4
REMARK    3  A    between atoms: O_4  and  C_5
REMARK    4  A    between atoms: N_7  and  C_8
REMARK    5  A    between atoms: C_8  and  C_9
REMARK    6  A    between atoms: C_9  and  S_10
REMARK    7  A    between atoms: S_10  and  C_11
REMARK    8  A    between atoms: C_16  and  N_17
REMARK    9  A    between atoms: C_18  and  C_20
REMARK   10  A    between atoms: C_20  and  C_21
REMARK   11  A    between atoms: C_24  and  N_25
REMARK                            x       y       z     vdW  Elec       q    Type
REMARK                         _______ _______ _______ _____ _____    ______ ____
ROOT
ATOM      1  C   UNL     1       2.795   6.747  18.689  0.00  0.00    +0.000 A 
ATOM      2  N   UNL     1       2.358   6.652  19.923  0.00  0.00    +0.000 NA
ATOM      3  C   UNL     1       1.668   7.805  20.264  0.00  0.00    +0.000 A 
ATOM      4  C   UNL     1       1.037   8.060  21.498  0.00  0.00    +0.000 A 
ATOM      5  C   UNL     1       0.329   9.257  21.688  0.00  0.00    +0.000 A 
ATOM      6  C   UNL     1       0.280  10.225  20.684  0.00  0.00    +0.000 A 
ATOM      7  C   UNL     1       0.948  10.015  19.472  0.00  0.00    +0.000 A 
ATOM      8  C   UNL     1       1.608   8.786  19.272  0.00  0.00    +0.000 A 
ATOM      9  S   UNL     1       2.432   8.208  17.873  0.00  0.00    +0.000 S 
ENDROOT
BRANCH   6  10
ATOM     10  N   UNL     1      -0.408  11.445  20.867  0.00  0.00    +0.000 N 
ATOM     11  C   UNL     1       0.235  12.623  21.228  0.00  0.00    +0.000 C 
ATOM     12  O   UNL     1       1.438  12.721  21.463  0.00  0.00    +0.000 OA
ATOM     13  H   UNL     1      -1.388  11.386  21.114  0.00  0.00    +0.000 HD
BRANCH  11  14
ATOM     14  C   UNL     1      -0.696  13.824  21.367  0.00  0.00    +0.000 C 
BRANCH  14  15
ATOM     15  C   UNL     1      -2.167  13.464  21.403  0.00  0.00    +0.000 A 
ATOM     16  C   UNL     1      -2.888  13.503  22.607  0.00  0.00    +0.000 A 
ATOM     17  C   UNL     1      -4.237  13.131  22.647  0.00  0.00    +0.000 A 
ATOM     18  C   UNL     1      -4.878  12.732  21.469  0.00  0.00    +0.000 A 
ATOM     19  C   UNL     1      -4.190  12.744  20.250  0.00  0.00    +0.000 A 
ATOM     20  C   UNL     1      -2.841  13.115  20.220  0.00  0.00    +0.000 A 
BRANCH  18  21
ATOM     21  N   UNL     1      -6.274  12.277  21.514  0.00  0.00    +0.000 N 
ATOM     22  O   UNL     1      -6.547  11.192  20.982  0.00  0.00    +0.000 OA
ATOM     23  O   UNL     1      -7.103  13.016  22.068  0.00  0.00    +0.000 OA
ENDBRANCH  18  21
ENDBRANCH  14  15
ENDBRANCH  11  14
ENDBRANCH   6  10
BRANCH   1  24
ATOM     24  S   UNL     1       3.679   5.445  17.917  0.00  0.00    +0.000 S 
BRANCH  24  25
ATOM     25  C   UNL     1       5.209   6.285  17.395  0.00  0.00    +0.000 C 
BRANCH  25  26
ATOM     26  C   UNL     1       5.369   6.294  15.875  0.00  0.00    +0.000 C 
BRANCH  26  29
ATOM     27  C   UNL     1       6.602   4.654  14.506  0.00  0.00    +0.000 C 
ATOM     28  O   UNL     1       7.560   5.388  14.299  0.00  0.00    +0.000 OA
ATOM     29  N   UNL     1       5.557   4.965  15.327  0.00  0.00    +0.000 N 
ATOM     30  H   UNL     1       4.793   4.302  15.336  0.00  0.00    +0.000 HD
BRANCH  27  31
ATOM     31  O   UNL     1       6.367   3.471  13.898  0.00  0.00    +0.000 OA
BRANCH  31  32
ATOM     32  C   UNL     1       6.167   3.550  12.479  0.00  0.00    +0.000 C 
BRANCH  32  34
ATOM     33  C   UNL     1       4.155   3.012  11.081  0.00  0.00    +0.000 C 
ATOM     34  C   UNL     1       4.706   3.608  12.148  0.00  0.00    +0.000 C 
ENDBRANCH  32  34
ENDBRANCH  31  32
ENDBRANCH  27  31
ENDBRANCH  26  29
ENDBRANCH  25  26
ENDBRANCH  24  25
ENDBRANCH   1  24
TORSDOF 11
ENDMDL
MODEL 6
REMARK VINA RESULT:      -7.0      1.002      1.346
REMARK  Name = 
REMARK  11 active torsions:
REMARK  status: ('A' for Active; 'I' for Inactive)
REMARK    1  A    between atoms: C_2  and  C_3
REMARK    2  A    between atoms: C_3  and  O_4
REMARK    3  A    between atoms: O_4  and  C_5
REMARK    4  A    between atoms: N_7  and  C_8
REMARK    5  A    between atoms: C_8  and  C_9
REMARK    6  A    between atoms: C_9  and  S_10
REMARK    7  A    between atoms: S_10  and  C_11
REMARK    8  A    between atoms: C_16  and  N_17
REMARK    9  A    between atoms: C_18  and  C_20
REMARK   10  A    between atoms: C_20  and  C_21
REMARK   11  A    between atoms: C_24  and  N_25
REMARK                            x       y       z     vdW  Elec       q    Type
REMARK                         _______ _______ _______ _____ _____    ______ ____
ROOT
ATOM      1  C   UNL     1       2.734   5.084  18.807  0.00  0.00    +0.000 A 
ATOM      2  N   UNL     1       2.726   5.952  17.823  0.00  0.00    +0.000 NA
ATOM      3  C   UNL     1       2.314   7.190  18.295  0.00  0.00    +0.000 A 
ATOM      4  C   UNL     1       2.201   8.371  17.536  0.00  0.00    +0.000 A 
ATOM      5  C   UNL     1       1.816   9.570  18.158  0.00  0.00    +0.000 A 
ATOM      6  C   UNL     1       1.497   9.598  19.516  0.00  0.00    +0.000 A 
ATOM      7  C   UNL     1       1.549   8.423  20.276  0.00  0.00    +0.000 A 
ATOM      8  C   UNL     1       1.990   7.239  19.652  0.00  0.00    +0.000 A 
ATOM      9  S   UNL     1       2.240   5.676  20.336  0.00  0.00    +0.000 S 
ENDROOT
BRANCH   6  10
ATOM     10  N   UNL     1       1.086  10.790  20.153  0.00  0.00    +0.000 N 
ATOM     11  C   UNL     1      -0.234  11.032  20.515  0.00  0.00    +0.000 C 
ATOM     12  O   UNL     1      -1.173  10.271  20.287  0.00  0.00    +0.000 OA
ATOM     13  H   UNL     1       1.658  11.611  20.001  0.00  0.00    +0.000 HD
BRANCH  11  14
ATOM     14  C   UNL     1      -0.457  12.379  21.195  0.00  0.00    +0.000 C 
BRANCH  14  15
ATOM     15  C   UNL     1      -1.854  12.570  21.745  0.00  0.00    +0.000 A 
ATOM     16  C   UNL     1      -2.160  12.222  23.070  0.00  0.00    +0.000 A 
ATOM     17  C   UNL     1      -3.461  12.360  23.566  0.00  0.00    +0.000 A 
ATOM     18  C   UNL     1      -4.466  12.868  22.735  0.00  0.00    +0.000 A 
ATOM     19  C   UNL     1      -4.166  13.276  21.431  0.00  0.00    +0.000 A 
ATOM     20  C   UNL     1      -2.862  13.131  20.942  0.00  0.00    +0.000 A 
BRANCH  18  21
ATOM     21  N   UNL     1      -5.848  12.955  23.227  0.00  0.00    +0.000 N 
ATOM     22  O   UNL     1      -6.212  12.129  24.077  0.00  0.00    +0.000 OA
ATOM     23  O   UNL     1      -6.574  13.839  22.750  0.00  0.00    +0.000 OA
ENDBRANCH  18  21
ENDBRANCH  14  15
ENDBRANCH  11  14
ENDBRANCH   6  10
BRANCH   1  24
ATOM     24  S   UNL     1       3.244   3.424  18.573  0.00  0.00    +0.000 S 
BRANCH  24  25
ATOM     25  C   UNL     1       4.949   3.458  19.213  0.00  0.00    +0.000 C 
BRANCH  25  26
ATOM     26  C   UNL     1       5.768   4.597  18.606  0.00  0.00    +0.000 C 
BRANCH  26  29
ATOM     27  C   UNL     1       6.681   4.684  16.316  0.00  0.00    +0.000 C 
ATOM     28  O   UNL     1       7.831   4.428  16.651  0.00  0.00    +0.000 OA
ATOM     29  N   UNL     1       5.614   4.688  17.168  0.00  0.00    +0.000 N 
ATOM     30  H   UNL     1       4.739   5.003  16.772  0.00  0.00    +0.000 HD
BRANCH  27  31
ATOM     31  O   UNL     1       6.288   5.094  15.091  0.00  0.00    +0.000 OA
BRANCH  31  32
ATOM     32  C   UNL     1       6.874   4.375  13.996  0.00  0.00    +0.000 C 
BRANCH  32  34
ATOM     33  C   UNL     1       6.031   2.983  12.087  0.00  0.00    +0.000 C 
ATOM     34  C   UNL     1       5.817   3.893  13.048  0.00  0.00    +0.000 C 
ENDBRANCH  32  34
ENDBRANCH  31  32
ENDBRANCH  27  31
ENDBRANCH  26  29
ENDBRANCH  25  26
ENDBRANCH  24  25
ENDBRANCH   1  24
TORSDOF 11
ENDMDL
MODEL 7
REMARK VINA RESULT:      -7.0      1.758      2.857
REMARK  Name = 
REMARK  11 active torsions:
REMARK  status: ('A' for Active; 'I' for Inactive)
REMARK    1  A    between atoms: C_2  and  C_3
REMARK    2  A    between atoms: C_3  and  O_4
REMARK    3  A    between atoms: O_4  and  C_5
REMARK    4  A    between atoms: N_7  and  C_8
REMARK    5  A    between atoms: C_8  and  C_9
REMARK    6  A    between atoms: C_9  and  S_10
REMARK    7  A    between atoms: S_10  and  C_11
REMARK    8  A    between atoms: C_16  and  N_17
REMARK    9  A    between atoms: C_18  and  C_20
REMARK   10  A    between atoms: C_20  and  C_21
REMARK   11  A    between atoms: C_24  and  N_25
REMARK                            x       y       z     vdW  Elec       q    Type
REMARK                         _______ _______ _______ _____ _____    ______ ____
ROOT
ATOM      1  C   UNL     1       2.734   4.943  18.927  0.00  0.00    +0.000 A 
ATOM      2  N   UNL     1       2.688   5.851  17.981  0.00  0.00    +0.000 NA
ATOM      3  C   UNL     1       2.256   7.057  18.511  0.00  0.00    +0.000 A 
ATOM      4  C   UNL     1       2.103   8.266  17.804  0.00  0.00    +0.000 A 
ATOM      5  C   UNL     1       1.700   9.428  18.483  0.00  0.00    +0.000 A 
ATOM      6  C   UNL     1       1.404   9.391  19.846  0.00  0.00    +0.000 A 
ATOM      7  C   UNL     1       1.496   8.187  20.554  0.00  0.00    +0.000 A 
ATOM      8  C   UNL     1       1.954   7.041  19.874  0.00  0.00    +0.000 A 
ATOM      9  S   UNL     1       2.252   5.458  20.488  0.00  0.00    +0.000 S 
ENDROOT
BRANCH   6  10
ATOM     10  N   UNL     1       0.977  10.546  20.540  0.00  0.00    +0.000 N 
ATOM     11  C   UNL     1      -0.095  10.536  21.425  0.00  0.00    +0.000 C 
ATOM     12  O   UNL     1      -0.797   9.555  21.664  0.00  0.00    +0.000 OA
ATOM     13  H   UNL     1       1.188  11.440  20.115  0.00  0.00    +0.000 HD
BRANCH  11  14
ATOM     14  C   UNL     1      -0.383  11.889  22.068  0.00  0.00    +0.000 C 
BRANCH  14  15
ATOM     15  C   UNL     1      -1.855  12.234  22.147  0.00  0.00    +0.000 A 
ATOM     16  C   UNL     1      -2.535  12.211  23.376  0.00  0.00    +0.000 A 
ATOM     17  C   UNL     1      -3.904  12.490  23.443  0.00  0.00    +0.000 A 
ATOM     18  C   UNL     1      -4.602  12.812  22.274  0.00  0.00    +0.000 A 
ATOM     19  C   UNL     1      -3.928  12.897  21.050  0.00  0.00    +0.000 A 
ATOM     20  C   UNL     1      -2.559  12.614  20.992  0.00  0.00    +0.000 A 
BRANCH  18  21
ATOM     21  N   UNL     1      -6.052  13.041  22.326  0.00  0.00    +0.000 N 
ATOM     22  O   UNL     1      -6.498  14.053  21.765  0.00  0.00    +0.000 OA
ATOM     23  O   UNL     1      -6.743  12.218  22.945  0.00  0.00    +0.000 OA
ENDBRANCH  18  21
ENDBRANCH  14  15
ENDBRANCH  11  14
ENDBRANCH   6  10
BRANCH   1  24
ATOM     24  S   UNL     1       3.278   3.306  18.615  0.00  0.00    +0.000 S 
BRANCH  24  25
ATOM     25  C   UNL     1       5.004   3.574  18.097  0.00  0.00    +0.000 C 
BRANCH  25  26
ATOM     26  C   UNL     1       5.105   4.010  16.636  0.00  0.00    +0.000 C 
BRANCH  26  29
ATOM     27  C   UNL     1       7.066   5.427  16.158  0.00  0.00    +0.000 C 
ATOM     28  O   UNL     1       7.779   4.500  15.793  0.00  0.00    +0.000 OA
ATOM     29  N   UNL     1       5.747   5.300  16.483  0.00  0.00    +0.000 N 
ATOM     30  H   UNL     1       5.304   6.132  16.851  0.00  0.00    +0.000 HD
BRANCH  27  31
ATOM     31  O   UNL     1       7.474   6.693  16.390  0.00  0.00    +0.000 OA
BRANCH  31  32
ATOM     32  C   UNL     1       7.155   7.202  17.693  0.00  0.00    +0.000 C 
BRANCH  32  34
ATOM     33  C   UNL     1       8.257   9.443  17.926  0.00  0.00    +0.000 C 
ATOM     34  C   UNL     1       8.228   8.127  18.182  0.00  0.00    +0.000 C 
ENDBRANCH  32  34
ENDBRANCH  31  32
ENDBRANCH  27  31
ENDBRANCH  26  29
ENDBRANCH  25  26
ENDBRANCH  24  25
ENDBRANCH   1  24
TORSDOF 11
ENDMDL
MODEL 8
REMARK VINA RESULT:      -6.9      3.270      5.015
REMARK  Name = 
REMARK  11 active torsions:
REMARK  status: ('A' for Active; 'I' for Inactive)
REMARK    1  A    between atoms: C_2  and  C_3
REMARK    2  A    between atoms: C_3  and  O_4
REMARK    3  A    between atoms: O_4  and  C_5
REMARK    4  A    between atoms: N_7  and  C_8
REMARK    5  A    between atoms: C_8  and  C_9
REMARK    6  A    between atoms: C_9  and  S_10
REMARK    7  A    between atoms: S_10  and  C_11
REMARK    8  A    between atoms: C_16  and  N_17
REMARK    9  A    between atoms: C_18  and  C_20
REMARK   10  A    between atoms: C_20  and  C_21
REMARK   11  A    between atoms: C_24  and  N_25
REMARK                            x       y       z     vdW  Elec       q    Type
REMARK                         _______ _______ _______ _____ _____    ______ ____
ROOT
ATOM      1  C   UNL     1       3.450   5.100  19.128  0.00  0.00    +0.000 A 
ATOM      2  N   UNL     1       2.777   5.348  20.227  0.00  0.00    +0.000 NA
ATOM      3  C   UNL     1       2.160   6.586  20.127  0.00  0.00    +0.000 A 
ATOM      4  C   UNL     1       1.334   7.182  21.101  0.00  0.00    +0.000 A 
ATOM      5  C   UNL     1       0.734   8.425  20.844  0.00  0.00    +0.000 A 
ATOM      6  C   UNL     1       0.981   9.103  19.651  0.00  0.00    +0.000 A 
ATOM      7  C   UNL     1       1.843   8.554  18.694  0.00  0.00    +0.000 A 
ATOM      8  C   UNL     1       2.395   7.281  18.939  0.00  0.00    +0.000 A 
ATOM      9  S   UNL     1       3.407   6.320  17.927  0.00  0.00    +0.000 S 
ENDROOT
BRANCH   6  10
ATOM     10  N   UNL     1       0.403  10.366  19.386  0.00  0.00    +0.000 N 
ATOM     11  C   UNL     1       0.515  11.441  20.258  0.00  0.00    +0.000 C 
ATOM     12  O   UNL     1       1.079  11.402  21.351  0.00  0.00    +0.000 OA
ATOM     13  H   UNL     1      -0.399  10.381  18.769  0.00  0.00    +0.000 HD
BRANCH  11  14
ATOM     14  C   UNL     1      -0.180  12.710  19.775  0.00  0.00    +0.000 C 
BRANCH  14  15
ATOM     15  C   UNL     1       0.767  13.787  19.290  0.00  0.00    +0.000 A 
ATOM     16  C   UNL     1       0.512  15.142  19.553  0.00  0.00    +0.000 A 
ATOM     17  C   UNL     1       1.365  16.140  19.069  0.00  0.00    +0.000 A 
ATOM     18  C   UNL     1       2.497  15.781  18.328  0.00  0.00    +0.000 A 
ATOM     19  C   UNL     1       2.799  14.433  18.108  0.00  0.00    +0.000 A 
ATOM     20  C   UNL     1       1.937  13.442  18.592  0.00  0.00    +0.000 A 
BRANCH  18  21
ATOM     21  N   UNL     1       3.362  16.825  17.761  0.00  0.00    +0.000 N 
ATOM     22  O   UNL     1       4.421  17.082  18.352  0.00  0.00    +0.000 OA
ATOM     23  O   UNL     1       2.972  17.400  16.734  0.00  0.00    +0.000 OA
ENDBRANCH  18  21
ENDBRANCH  14  15
ENDBRANCH  11  14
ENDBRANCH   6  10
BRANCH   1  24
ATOM     24  S   UNL     1       4.323   3.598  18.896  0.00  0.00    +0.000 S 
BRANCH  24  25
ATOM     25  C   UNL     1       5.287   3.949  17.391  0.00  0.00    +0.000 C 
BRANCH  25  26
ATOM     26  C   UNL     1       6.678   4.496  17.713  0.00  0.00    +0.000 C 
BRANCH  26  29
ATOM     27  C   UNL     1       7.098   5.456  15.481  0.00  0.00    +0.000 C 
ATOM     28  O   UNL     1       6.130   6.206  15.505  0.00  0.00    +0.000 OA
ATOM     29  N   UNL     1       7.493   4.676  16.529  0.00  0.00    +0.000 N 
ATOM     30  H   UNL     1       8.257   4.041  16.339  0.00  0.00    +0.000 HD
BRANCH  27  31
ATOM     31  O   UNL     1       7.872   5.200  14.405  0.00  0.00    +0.000 OA
BRANCH  31  32
ATOM     32  C   UNL     1       7.155   4.985  13.180  0.00  0.00    +0.000 C 
BRANCH  32  34
ATOM     33  C   UNL     1       5.552   3.288  12.263  0.00  0.00    +0.000 C 
ATOM     34  C   UNL     1       6.296   3.760  13.273  0.00  0.00    +0.000 C 
ENDBRANCH  32  34
ENDBRANCH  31  32
ENDBRANCH  27  31
ENDBRANCH  26  29
ENDBRANCH  25  26
ENDBRANCH  24  25
ENDBRANCH   1  24
TORSDOF 11
ENDMDL
MODEL 9
REMARK VINA RESULT:      -6.9      5.954      8.910
REMARK  Name = 
REMARK  11 active torsions:
REMARK  status: ('A' for Active; 'I' for Inactive)
REMARK    1  A    between atoms: C_2  and  C_3
REMARK    2  A    between atoms: C_3  and  O_4
REMARK    3  A    between atoms: O_4  and  C_5
REMARK    4  A    between atoms: N_7  and  C_8
REMARK    5  A    between atoms: C_8  and  C_9
REMARK    6  A    between atoms: C_9  and  S_10
REMARK    7  A    between atoms: S_10  and  C_11
REMARK    8  A    between atoms: C_16  and  N_17
REMARK    9  A    between atoms: C_18  and  C_20
REMARK   10  A    between atoms: C_20  and  C_21
REMARK   11  A    between atoms: C_24  and  N_25
REMARK                            x       y       z     vdW  Elec       q    Type
REMARK                         _______ _______ _______ _____ _____    ______ ____
ROOT
ATOM      1  C   UNL     1       4.869   4.175  17.835  0.00  0.00    +0.000 A 
ATOM      2  N   UNL     1       5.893   4.233  18.654  0.00  0.00    +0.000 NA
ATOM      3  C   UNL     1       6.594   5.411  18.443  0.00  0.00    +0.000 A 
ATOM      4  C   UNL     1       7.738   5.833  19.148  0.00  0.00    +0.000 A 
ATOM      5  C   UNL     1       8.319   7.079  18.859  0.00  0.00    +0.000 A 
ATOM      6  C   UNL     1       7.803   7.889  17.847  0.00  0.00    +0.000 A 
ATOM      7  C   UNL     1       6.701   7.462  17.097  0.00  0.00    +0.000 A 
ATOM      8  C   UNL     1       6.093   6.236  17.434  0.00  0.00    +0.000 A 
ATOM      9  S   UNL     1       4.689   5.496  16.761  0.00  0.00    +0.000 S 
ENDROOT
BRANCH   6  10
ATOM     10  N   UNL     1       8.389   9.135  17.528  0.00  0.00    +0.000 N 
ATOM     11  C   UNL     1       8.943   9.973  18.489  0.00  0.00    +0.000 C 
ATOM     12  O   UNL     1       8.946   9.746  19.698  0.00  0.00    +0.000 OA
ATOM     13  H   UNL     1       8.069   9.588  16.682  0.00  0.00    +0.000 HD
BRANCH  11  14
ATOM     14  C   UNL     1       9.524  11.266  17.926  0.00  0.00    +0.000 C 
BRANCH  14  15
ATOM     15  C   UNL     1       8.740  12.508  18.295  0.00  0.00    +0.000 A 
ATOM     16  C   UNL     1       7.774  13.034  17.423  0.00  0.00    +0.000 A 
ATOM     17  C   UNL     1       7.078  14.205  17.746  0.00  0.00    +0.000 A 
ATOM     18  C   UNL     1       7.337  14.849  18.960  0.00  0.00    +0.000 A 
ATOM     19  C   UNL     1       8.254  14.305  19.867  0.00  0.00    +0.000 A 
ATOM     20  C   UNL     1       8.947  13.136  19.535  0.00  0.00    +0.000 A 
BRANCH  18  21
ATOM     21  N   UNL     1       6.660  16.113  19.277  0.00  0.00    +0.000 N 
ATOM     22  O   UNL     1       5.831  16.545  18.462  0.00  0.00    +0.000 OA
ATOM     23  O   UNL     1       6.969  16.683  20.334  0.00  0.00    +0.000 OA
ENDBRANCH  18  21
ENDBRANCH  14  15
ENDBRANCH  11  14
ENDBRANCH   6  10
BRANCH   1  24
ATOM     24  S   UNL     1       3.742   2.833  17.857  0.00  0.00    +0.000 S 
BRANCH  24  25
ATOM     25  C   UNL     1       3.886   2.247  19.576  0.00  0.00    +0.000 C 
BRANCH  25  26
ATOM     26  C   UNL     1       2.998   3.043  20.532  0.00  0.00    +0.000 C 
BRANCH  26  29
ATOM     27  C   UNL     1       2.305   5.402  20.345  0.00  0.00    +0.000 C 
ATOM     28  O   UNL     1       1.105   5.163  20.391  0.00  0.00    +0.000 OA
ATOM     29  N   UNL     1       3.283   4.464  20.503  0.00  0.00    +0.000 N 
ATOM     30  H   UNL     1       4.229   4.787  20.354  0.00  0.00    +0.000 HD
BRANCH  27  31
ATOM     31  O   UNL     1       2.862   6.594  20.039  0.00  0.00    +0.000 OA
BRANCH  31  32
ATOM     32  C   UNL     1       1.932   7.611  19.638  0.00  0.00    +0.000 C 
BRANCH  32  34
ATOM     33  C   UNL     1       2.079   9.301  17.790  0.00  0.00    +0.000 C 
ATOM     34  C   UNL     1       2.184   8.036  18.223  0.00  0.00    +0.000 C 
ENDBRANCH  32  34
ENDBRANCH  31  32
ENDBRANCH  27  31
ENDBRANCH  26  29
ENDBRANCH  25  26
ENDBRANCH  24  25
ENDBRANCH   1  24
TORSDOF 11
ENDMDL
