MODEL 1
REMARK VINA RESULT:      -7.4      0.000      0.000
REMARK  Name = 
REMARK  4 active torsions:
REMARK  status: ('A' for Active; 'I' for Inactive)
REMARK    1  A    between atoms: C_1  and  O_2
REMARK    2  A    between atoms: O_2  and  P_3
REMARK    3  A    between atoms: C_7  and  C_8
REMARK    4  A    between atoms: C_7  and  C_14
REMARK                            x       y       z     vdW  Elec       q    Type
REMARK                         _______ _______ _______ _____ _____    ______ ____
ROOT
ATOM      1  P   UNL     1       2.591   2.493  19.183  0.00  0.00    +0.000 P 
ATOM      2  S   UNL     1       3.889   1.080  19.012  0.00  0.00    +0.000 S 
ATOM      3  N   UNL     1       1.594   2.863  17.928  0.00  0.00    +0.000 NA
ATOM      4  C   UNL     1       2.033   4.145  17.364  0.00  0.00    +0.000 C 
ATOM      5  C   UNL     1       3.144   4.804  18.282  0.00  0.00    +0.000 C 
ATOM      6  O   UNL     1       3.197   3.965  19.459  0.00  0.00    +0.000 OA
ATOM      7  H   UNL     1       0.660   2.986  18.307  0.00  0.00    +0.000 HD
ENDROOT
BRANCH   5   8
ATOM      8  C   UNL     1       2.692   6.209  18.724  0.00  0.00    +0.000 A 
ATOM      9  C   UNL     1       2.214   6.461  20.027  0.00  0.00    +0.000 A 
ATOM     10  C   UNL     1       1.708   7.713  20.386  0.00  0.00    +0.000 A 
ATOM     11  C   UNL     1       1.679   8.747  19.456  0.00  0.00    +0.000 A 
ATOM     12  C   UNL     1       2.185   8.537  18.177  0.00  0.00    +0.000 A 
ATOM     13  C   UNL     1       2.694   7.285  17.817  0.00  0.00    +0.000 A 
ENDBRANCH   5   8
BRANCH   5  14
ATOM     14  C   UNL     1       4.541   4.816  17.636  0.00  0.00    +0.000 A 
ATOM     15  C   UNL     1       4.740   4.480  16.282  0.00  0.00    +0.000 A 
ATOM     16  C   UNL     1       6.023   4.395  15.726  0.00  0.00    +0.000 A 
ATOM     17  C   UNL     1       7.134   4.689  16.503  0.00  0.00    +0.000 A 
ATOM     18  C   UNL     1       6.966   5.083  17.825  0.00  0.00    +0.000 A 
ATOM     19  C   UNL     1       5.683   5.152  18.385  0.00  0.00    +0.000 A 
ENDBRANCH   5  14
BRANCH   1  21
ATOM     20  C   UNL     1       1.691   3.058  21.580  0.00  0.00    +0.000 C 
ATOM     21  O   UNL     1       1.520   2.338  20.379  0.00  0.00    +0.000 OA
ENDBRANCH   1  21
TORSDOF 3
ENDMDL
MODEL 2
REMARK VINA RESULT:      -7.3      0.455      1.167
REMARK  Name = 
REMARK  4 active torsions:
REMARK  status: ('A' for Active; 'I' for Inactive)
REMARK    1  A    between atoms: C_1  and  O_2
REMARK    2  A    between atoms: O_2  and  P_3
REMARK    3  A    between atoms: C_7  and  C_8
REMARK    4  A    between atoms: C_7  and  C_14
REMARK                            x       y       z     vdW  Elec       q    Type
REMARK                         _______ _______ _______ _____ _____    ______ ____
ROOT
ATOM      1  P   UNL     1       2.502   2.692  19.154  0.00  0.00    +0.000 P 
ATOM      2  S   UNL     1       3.845   1.338  18.889  0.00  0.00    +0.000 S 
ATOM      3  N   UNL     1       1.494   3.115  17.925  0.00  0.00    +0.000 NA
ATOM      4  C   UNL     1       1.891   4.447  17.451  0.00  0.00    +0.000 C 
ATOM      5  C   UNL     1       2.979   5.076  18.414  0.00  0.00    +0.000 C 
ATOM      6  O   UNL     1       3.059   4.161  19.531  0.00  0.00    +0.000 OA
ATOM      7  H   UNL     1       0.556   3.182  18.308  0.00  0.00    +0.000 HD
ENDROOT
BRANCH   5   8
ATOM      8  C   UNL     1       2.482   6.432  18.951  0.00  0.00    +0.000 A 
ATOM      9  C   UNL     1       2.036   6.588  20.280  0.00  0.00    +0.000 A 
ATOM     10  C   UNL     1       1.488   7.794  20.725  0.00  0.00    +0.000 A 
ATOM     11  C   UNL     1       1.385   8.877  19.859  0.00  0.00    +0.000 A 
ATOM     12  C   UNL     1       1.859   8.763  18.555  0.00  0.00    +0.000 A 
ATOM     13  C   UNL     1       2.409   7.557  18.107  0.00  0.00    +0.000 A 
ENDBRANCH   5   8
BRANCH   5  14
ATOM     14  C   UNL     1       4.376   5.177  17.774  0.00  0.00    +0.000 A 
ATOM     15  C   UNL     1       5.513   5.548  18.519  0.00  0.00    +0.000 A 
ATOM     16  C   UNL     1       6.761   5.736  17.911  0.00  0.00    +0.000 A 
ATOM     17  C   UNL     1       6.908   5.512  16.549  0.00  0.00    +0.000 A 
ATOM     18  C   UNL     1       5.818   5.087  15.799  0.00  0.00    +0.000 A 
ATOM     19  C   UNL     1       4.566   4.915  16.405  0.00  0.00    +0.000 A 
ENDBRANCH   5  14
BRANCH   1  21
ATOM     20  C   UNL     1       1.705   2.862  21.646  0.00  0.00    +0.000 C 
ATOM     21  O   UNL     1       1.435   2.421  20.333  0.00  0.00    +0.000 OA
ENDBRANCH   1  21
TORSDOF 3
ENDMDL
MODEL 3
REMARK VINA RESULT:      -7.2      0.584      1.622
REMARK  Name = 
REMARK  4 active torsions:
REMARK  status: ('A' for Active; 'I' for Inactive)
REMARK    1  A    between atoms: C_1  and  O_2
REMARK    2  A    between atoms: O_2  and  P_3
REMARK    3  A    between atoms: C_7  and  C_8
REMARK    4  A    between atoms: C_7  and  C_14
REMARK                            x       y       z     vdW  Elec       q    Type
REMARK                         _______ _______ _______ _____ _____    ______ ____
ROOT
ATOM      1  P   UNL     1       2.635   2.624  19.185  0.00  0.00    +0.000 P 
ATOM      2  S   UNL     1       4.077   1.358  19.019  0.00  0.00    +0.000 S 
ATOM      3  N   UNL     1       1.704   2.999  17.881  0.00  0.00    +0.000 NA
ATOM      4  C   UNL     1       2.053   4.358  17.451  0.00  0.00    +0.000 C 
ATOM      5  C   UNL     1       3.020   5.041  18.504  0.00  0.00    +0.000 C 
ATOM      6  O   UNL     1       3.067   4.119  19.617  0.00  0.00    +0.000 OA
ATOM      7  H   UNL     1       0.736   3.003  18.189  0.00  0.00    +0.000 HD
ENDROOT
BRANCH   5   8
ATOM      8  C   UNL     1       2.398   6.357  19.009  0.00  0.00    +0.000 A 
ATOM      9  C   UNL     1       2.329   7.508  18.195  0.00  0.00    +0.000 A 
ATOM     10  C   UNL     1       1.861   8.725  18.697  0.00  0.00    +0.000 A 
ATOM     11  C   UNL     1       1.439   8.820  20.019  0.00  0.00    +0.000 A 
ATOM     12  C   UNL     1       1.456   7.689  20.830  0.00  0.00    +0.000 A 
ATOM     13  C   UNL     1       1.923   6.469  20.329  0.00  0.00    +0.000 A 
ENDBRANCH   5   8
BRANCH   5  14
ATOM     14  C   UNL     1       4.454   5.236  17.979  0.00  0.00    +0.000 A 
ATOM     15  C   UNL     1       5.536   5.502  18.843  0.00  0.00    +0.000 A 
ATOM     16  C   UNL     1       6.818   5.778  18.352  0.00  0.00    +0.000 A 
ATOM     17  C   UNL     1       7.057   5.749  16.986  0.00  0.00    +0.000 A 
ATOM     18  C   UNL     1       6.024   5.429  16.112  0.00  0.00    +0.000 A 
ATOM     19  C   UNL     1       4.737   5.169  16.602  0.00  0.00    +0.000 A 
ENDBRANCH   5  14
BRANCH   1  21
ATOM     20  C   UNL     1       1.519   2.885  21.542  0.00  0.00    +0.000 C 
ATOM     21  O   UNL     1       1.496   2.272  20.272  0.00  0.00    +0.000 OA
ENDBRANCH   1  21
TORSDOF 3
ENDMDL
MODEL 4
REMARK VINA RESULT:      -7.2      1.065      1.139
REMARK  Name = 
REMARK  4 active torsions:
REMARK  status: ('A' for Active; 'I' for Inactive)
REMARK    1  A    between atoms: C_1  and  O_2
REMARK    2  A    between atoms: O_2  and  P_3
REMARK    3  A    between atoms: C_7  and  C_8
REMARK    4  A    between atoms: C_7  and  C_14
REMARK                            x       y       z     vdW  Elec       q    Type
REMARK                         _______ _______ _______ _____ _____    ______ ____
ROOT
ATOM      1  P   UNL     1       2.741   3.643  19.868  0.00  0.00    +0.000 P 
ATOM      2  S   UNL     1       4.164   2.347  19.930  0.00  0.00    +0.000 S 
ATOM      3  N   UNL     1       1.728   3.703  18.573  0.00  0.00    +0.000 NA
ATOM      4  C   UNL     1       2.053   4.907  17.799  0.00  0.00    +0.000 C 
ATOM      5  C   UNL     1       3.089   5.810  18.587  0.00  0.00    +0.000 C 
ATOM      6  O   UNL     1       3.206   5.190  19.888  0.00  0.00    +0.000 OA
ATOM      7  H   UNL     1       0.782   3.802  18.930  0.00  0.00    +0.000 HD
ENDROOT
BRANCH   5   8
ATOM      8  C   UNL     1       2.507   7.222  18.788  0.00  0.00    +0.000 A 
ATOM      9  C   UNL     1       1.928   7.621  20.011  0.00  0.00    +0.000 A 
ATOM     10  C   UNL     1       1.308   8.865  20.150  0.00  0.00    +0.000 A 
ATOM     11  C   UNL     1       1.262   9.746  19.075  0.00  0.00    +0.000 A 
ATOM     12  C   UNL     1       1.863   9.395  17.870  0.00  0.00    +0.000 A 
ATOM     13  C   UNL     1       2.486   8.150  17.730  0.00  0.00    +0.000 A 
ENDBRANCH   5   8
BRANCH   5  14
ATOM     14  C   UNL     1       4.486   5.841  17.941  0.00  0.00    +0.000 A 
ATOM     15  C   UNL     1       4.666   5.754  16.546  0.00  0.00    +0.000 A 
ATOM     16  C   UNL     1       5.942   5.682  15.972  0.00  0.00    +0.000 A 
ATOM     17  C   UNL     1       7.068   5.741  16.780  0.00  0.00    +0.000 A 
ATOM     18  C   UNL     1       6.924   5.888  18.155  0.00  0.00    +0.000 A 
ATOM     19  C   UNL     1       5.647   5.945  18.730  0.00  0.00    +0.000 A 
ENDBRANCH   5  14
BRANCH   1  21
ATOM     20  C   UNL     1       1.595   2.453  21.903  0.00  0.00    +0.000 C 
ATOM     21  O   UNL     1       1.675   3.594  21.077  0.00  0.00    +0.000 OA
ENDBRANCH   1  21
TORSDOF 3
ENDMDL
MODEL 5
REMARK VINA RESULT:      -7.2      0.406      1.149
REMARK  Name = 
REMARK  4 active torsions:
REMARK  status: ('A' for Active; 'I' for Inactive)
REMARK    1  A    between atoms: C_1  and  O_2
REMARK    2  A    between atoms: O_2  and  P_3
REMARK    3  A    between atoms: C_7  and  C_8
REMARK    4  A    between atoms: C_7  and  C_14
REMARK                            x       y       z     vdW  Elec       q    Type
REMARK                         _______ _______ _______ _____ _____    ______ ____
ROOT
ATOM      1  P   UNL     1       2.578   2.584  19.185  0.00  0.00    +0.000 P 
ATOM      2  S   UNL     1       3.988   1.282  19.029  0.00  0.00    +0.000 S 
ATOM      3  N   UNL     1       1.636   2.949  17.887  0.00  0.00    +0.000 NA
ATOM      4  C   UNL     1       2.009   4.289  17.419  0.00  0.00    +0.000 C 
ATOM      5  C   UNL     1       3.007   4.976  18.440  0.00  0.00    +0.000 C 
ATOM      6  O   UNL     1       3.050   4.079  19.574  0.00  0.00    +0.000 OA
ATOM      7  H   UNL     1       0.673   2.983  18.208  0.00  0.00    +0.000 HD
ENDROOT
BRANCH   5   8
ATOM      8  C   UNL     1       2.423   6.317  18.922  0.00  0.00    +0.000 A 
ATOM      9  C   UNL     1       2.365   7.448  18.081  0.00  0.00    +0.000 A 
ATOM     10  C   UNL     1       1.933   8.688  18.560  0.00  0.00    +0.000 A 
ATOM     11  C   UNL     1       1.535   8.825  19.886  0.00  0.00    +0.000 A 
ATOM     12  C   UNL     1       1.541   7.714  20.724  0.00  0.00    +0.000 A 
ATOM     13  C   UNL     1       1.972   6.472  20.247  0.00  0.00    +0.000 A 
ENDBRANCH   5   8
BRANCH   5  14
ATOM     14  C   UNL     1       4.437   5.125  17.889  0.00  0.00    +0.000 A 
ATOM     15  C   UNL     1       4.733   4.945  16.523  0.00  0.00    +0.000 A 
ATOM     16  C   UNL     1       6.049   4.983  16.045  0.00  0.00    +0.000 A 
ATOM     17  C   UNL     1       7.095   5.247  16.918  0.00  0.00    +0.000 A 
ATOM     18  C   UNL     1       6.828   5.489  18.261  0.00  0.00    +0.000 A 
ATOM     19  C   UNL     1       5.513   5.435  18.742  0.00  0.00    +0.000 A 
ENDBRANCH   5  14
BRANCH   1  21
ATOM     20  C   UNL     1       1.533   2.888  21.570  0.00  0.00    +0.000 C 
ATOM     21  O   UNL     1       1.448   2.286  20.298  0.00  0.00    +0.000 OA
ENDBRANCH   1  21
TORSDOF 3
ENDMDL
MODEL 6
REMARK VINA RESULT:      -7.1      2.639      5.130
REMARK  Name = 
REMARK  4 active torsions:
REMARK  status: ('A' for Active; 'I' for Inactive)
REMARK    1  A    between atoms: C_1  and  O_2
REMARK    2  A    between atoms: O_2  and  P_3
REMARK    3  A    between atoms: C_7  and  C_8
REMARK    4  A    between atoms: C_7  and  C_14
REMARK                            x       y       z     vdW  Elec       q    Type
REMARK                         _______ _______ _______ _____ _____    ______ ____
ROOT
ATOM      1  P   UNL     1       5.601   5.678  17.982  0.00  0.00    +0.000 P 
ATOM      2  S   UNL     1       6.406   7.383  17.591  0.00  0.00    +0.000 S 
ATOM      3  N   UNL     1       4.664   4.924  16.859  0.00  0.00    +0.000 NA
ATOM      4  C   UNL     1       3.267   5.014  17.301  0.00  0.00    +0.000 C 
ATOM      5  C   UNL     1       3.186   5.597  18.772  0.00  0.00    +0.000 C 
ATOM      6  O   UNL     1       4.561   5.666  19.218  0.00  0.00    +0.000 OA
ATOM      7  H   UNL     1       4.931   3.944  16.848  0.00  0.00    +0.000 HD
ENDROOT
BRANCH   5   8
ATOM      8  C   UNL     1       2.443   4.606  19.688  0.00  0.00    +0.000 A 
ATOM      9  C   UNL     1       2.867   4.352  21.009  0.00  0.00    +0.000 A 
ATOM     10  C   UNL     1       2.252   3.374  21.794  0.00  0.00    +0.000 A 
ATOM     11  C   UNL     1       1.189   2.636  21.285  0.00  0.00    +0.000 A 
ATOM     12  C   UNL     1       0.722   2.897  20.000  0.00  0.00    +0.000 A 
ATOM     13  C   UNL     1       1.337   3.876  19.212  0.00  0.00    +0.000 A 
ENDBRANCH   5   8
BRANCH   5  14
ATOM     14  C   UNL     1       2.587   7.013  18.835  0.00  0.00    +0.000 A 
ATOM     15  C   UNL     1       1.999   7.523  20.009  0.00  0.00    +0.000 A 
ATOM     16  C   UNL     1       1.366   8.773  20.033  0.00  0.00    +0.000 A 
ATOM     17  C   UNL     1       1.348   9.560  18.891  0.00  0.00    +0.000 A 
ATOM     18  C   UNL     1       1.974   9.111  17.733  0.00  0.00    +0.000 A 
ATOM     19  C   UNL     1       2.593   7.853  17.706  0.00  0.00    +0.000 A 
ENDBRANCH   5  14
BRANCH   1  21
ATOM     20  C   UNL     1       7.883   4.405  17.774  0.00  0.00    +0.000 C 
ATOM     21  O   UNL     1       6.610   4.484  18.378  0.00  0.00    +0.000 OA
ENDBRANCH   1  21
TORSDOF 3
ENDMDL
MODEL 7
REMARK VINA RESULT:      -6.9      2.998      4.429
REMARK  Name = 
REMARK  4 active torsions:
REMARK  status: ('A' for Active; 'I' for Inactive)
REMARK    1  A    between atoms: C_1  and  O_2
REMARK    2  A    between atoms: O_2  and  P_3
REMARK    3  A    between atoms: C_7  and  C_8
REMARK    4  A    between atoms: C_7  and  C_14
REMARK                            x       y       z     vdW  Elec       q    Type
REMARK                         _______ _______ _______ _____ _____    ______ ____
ROOT
ATOM      1  P   UNL     1       5.932   5.653  17.011  0.00  0.00    +0.000 P 
ATOM      2  S   UNL     1       6.382   4.059  16.028  0.00  0.00    +0.000 S 
ATOM      3  N   UNL     1       6.314   5.782  18.606  0.00  0.00    +0.000 NA
ATOM      4  C   UNL     1       5.071   5.673  19.380  0.00  0.00    +0.000 C 
ATOM      5  C   UNL     1       3.814   5.690  18.416  0.00  0.00    +0.000 C 
ATOM      6  O   UNL     1       4.355   5.989  17.108  0.00  0.00    +0.000 OA
ATOM      7  H   UNL     1       6.698   6.711  18.754  0.00  0.00    +0.000 HD
ENDROOT
BRANCH   5   8
ATOM      8  C   UNL     1       2.868   6.840  18.810  0.00  0.00    +0.000 A 
ATOM      9  C   UNL     1       2.546   7.879  17.912  0.00  0.00    +0.000 A 
ATOM     10  C   UNL     1       1.774   8.972  18.313  0.00  0.00    +0.000 A 
ATOM     11  C   UNL     1       1.292   9.048  19.615  0.00  0.00    +0.000 A 
ATOM     12  C   UNL     1       1.559   8.014  20.508  0.00  0.00    +0.000 A 
ATOM     13  C   UNL     1       2.331   6.918  20.109  0.00  0.00    +0.000 A 
ENDBRANCH   5   8
BRANCH   5  14
ATOM     14  C   UNL     1       3.086   4.335  18.338  0.00  0.00    +0.000 A 
ATOM     15  C   UNL     1       1.698   4.246  18.116  0.00  0.00    +0.000 A 
ATOM     16  C   UNL     1       1.025   3.017  18.145  0.00  0.00    +0.000 A 
ATOM     17  C   UNL     1       1.737   1.844  18.353  0.00  0.00    +0.000 A 
ATOM     18  C   UNL     1       3.117   1.895  18.514  0.00  0.00    +0.000 A 
ATOM     19  C   UNL     1       3.787   3.126  18.501  0.00  0.00    +0.000 A 
ENDBRANCH   5  14
BRANCH   1  21
ATOM     20  C   UNL     1       7.393   7.815  17.256  0.00  0.00    +0.000 C 
ATOM     21  O   UNL     1       6.539   7.037  16.447  0.00  0.00    +0.000 OA
ENDBRANCH   1  21
TORSDOF 3
ENDMDL
MODEL 8
REMARK VINA RESULT:      -6.9      1.068      1.809
REMARK  Name = 
REMARK  4 active torsions:
REMARK  status: ('A' for Active; 'I' for Inactive)
REMARK    1  A    between atoms: C_1  and  O_2
REMARK    2  A    between atoms: O_2  and  P_3
REMARK    3  A    between atoms: C_7  and  C_8
REMARK    4  A    between atoms: C_7  and  C_14
REMARK                            x       y       z     vdW  Elec       q    Type
REMARK                         _______ _______ _______ _____ _____    ______ ____
ROOT
ATOM      1  P   UNL     1       3.067   3.422  20.107  0.00  0.00    +0.000 P 
ATOM      2  S   UNL     1       4.539   2.185  19.998  0.00  0.00    +0.000 S 
ATOM      3  N   UNL     1       1.798   3.297  19.068  0.00  0.00    +0.000 NA
ATOM      4  C   UNL     1       1.883   4.409  18.113  0.00  0.00    +0.000 C 
ATOM      5  C   UNL     1       3.013   5.430  18.550  0.00  0.00    +0.000 C 
ATOM      6  O   UNL     1       3.440   4.973  19.855  0.00  0.00    +0.000 OA
ATOM      7  H   UNL     1       0.947   3.410  19.611  0.00  0.00    +0.000 HD
ENDROOT
BRANCH   5   8
ATOM      8  C   UNL     1       2.411   6.838  18.718  0.00  0.00    +0.000 A 
ATOM      9  C   UNL     1       2.309   7.737  17.636  0.00  0.00    +0.000 A 
ATOM     10  C   UNL     1       1.861   9.048  17.821  0.00  0.00    +0.000 A 
ATOM     11  C   UNL     1       1.490   9.488  19.087  0.00  0.00    +0.000 A 
ATOM     12  C   UNL     1       1.539   8.607  20.163  0.00  0.00    +0.000 A 
ATOM     13  C   UNL     1       1.987   7.294  19.981  0.00  0.00    +0.000 A 
ENDBRANCH   5   8
BRANCH   5  14
ATOM     14  C   UNL     1       4.236   5.425  17.615  0.00  0.00    +0.000 A 
ATOM     15  C   UNL     1       5.315   6.313  17.792  0.00  0.00    +0.000 A 
ATOM     16  C   UNL     1       6.377   6.372  16.880  0.00  0.00    +0.000 A 
ATOM     17  C   UNL     1       6.403   5.511  15.793  0.00  0.00    +0.000 A 
ATOM     18  C   UNL     1       5.383   4.582  15.624  0.00  0.00    +0.000 A 
ATOM     19  C   UNL     1       4.313   4.534  16.528  0.00  0.00    +0.000 A 
ENDBRANCH   5  14
BRANCH   1  21
ATOM     20  C   UNL     1       1.270   2.554  21.808  0.00  0.00    +0.000 C 
ATOM     21  O   UNL     1       2.290   3.486  21.519  0.00  0.00    +0.000 OA
ENDBRANCH   1  21
TORSDOF 3
ENDMDL
MODEL 9
REMARK VINA RESULT:      -6.9      2.887      4.303
REMARK  Name = 
REMARK  4 active torsions:
REMARK  status: ('A' for Active; 'I' for Inactive)
REMARK    1  A    between atoms: C_1  and  O_2
REMARK    2  A    between atoms: O_2  and  P_3
REMARK    3  A    between atoms: C_7  and  C_8
REMARK    4  A    between atoms: C_7  and  C_14
REMARK                            x       y       z     vdW  Elec       q    Type
REMARK                         _______ _______ _______ _____ _____    ______ ____
ROOT
ATOM      1  P   UNL     1       5.723   5.480  16.977  0.00  0.00    +0.000 P 
ATOM      2  S   UNL     1       5.996   3.834  16.015  0.00  0.00    +0.000 S 
ATOM      3  N   UNL     1       6.211   5.619  18.542  0.00  0.00    +0.000 NA
ATOM      4  C   UNL     1       5.014   5.621  19.391  0.00  0.00    +0.000 C 
ATOM      5  C   UNL     1       3.704   5.707  18.504  0.00  0.00    +0.000 C 
ATOM      6  O   UNL     1       4.184   5.934  17.158  0.00  0.00    +0.000 OA
ATOM      7  H   UNL     1       6.670   6.520  18.639  0.00  0.00    +0.000 HD
ENDROOT
BRANCH   5   8
ATOM      8  C   UNL     1       2.870   6.933  18.920  0.00  0.00    +0.000 A 
ATOM      9  C   UNL     1       2.257   7.021  20.187  0.00  0.00    +0.000 A 
ATOM     10  C   UNL     1       1.415   8.087  20.515  0.00  0.00    +0.000 A 
ATOM     11  C   UNL     1       1.176   9.098  19.590  0.00  0.00    +0.000 A 
ATOM     12  C   UNL     1       1.803   9.058  18.348  0.00  0.00    +0.000 A 
ATOM     13  C   UNL     1       2.647   7.992  18.019  0.00  0.00    +0.000 A 
ENDBRANCH   5   8
BRANCH   5  14
ATOM     14  C   UNL     1       2.877   4.409  18.508  0.00  0.00    +0.000 A 
ATOM     15  C   UNL     1       1.560   4.361  18.009  0.00  0.00    +0.000 A 
ATOM     16  C   UNL     1       0.778   3.203  18.107  0.00  0.00    +0.000 A 
ATOM     17  C   UNL     1       1.313   2.052  18.667  0.00  0.00    +0.000 A 
ATOM     18  C   UNL     1       2.631   2.050  19.113  0.00  0.00    +0.000 A 
ATOM     19  C   UNL     1       3.408   3.214  19.029  0.00  0.00    +0.000 A 
ENDBRANCH   5  14
BRANCH   1  21
ATOM     20  C   UNL     1       7.244   7.611  17.119  0.00  0.00    +0.000 C 
ATOM     21  O   UNL     1       6.393   6.801  16.338  0.00  0.00    +0.000 OA
ENDBRANCH   1  21
TORSDOF 3
ENDMDL
