MODEL 1
REMARK VINA RESULT:      -7.7      0.000      0.000
REMARK  Name = 
REMARK  2 active torsions:
REMARK  status: ('A' for Active; 'I' for Inactive)
REMARK    1  A    between atoms: N_9  and  C_10
REMARK    2  A    between atoms: C_10  and  C_11
REMARK                            x       y       z     vdW  Elec       q    Type
REMARK                         _______ _______ _______ _____ _____    ______ ____
ROOT
ATOM      1  O   UNL     1       4.889   2.077  20.074  0.00  0.00    +0.000 OA
ATOM      2  C   UNL     1       4.362   2.990  19.448  0.00  0.00    +0.000 C 
ATOM      3  C   UNL     1       5.049   4.172  19.045  0.00  0.00    +0.000 A 
ATOM      4  N   UNL     1       6.345   4.544  19.232  0.00  0.00    +0.000 N 
ATOM      5  C   UNL     1       6.494   5.768  18.634  0.00  0.00    +0.000 A 
ATOM      6 BR   UNL     1       8.106   6.708  18.577  0.00  0.00    +0.000 Br
ATOM      7  N   UNL     1       5.369   6.192  18.094  0.00  0.00    +0.000 NA
ATOM      8  C   UNL     1       4.471   5.198  18.345  0.00  0.00    +0.000 A 
ATOM      9  N   UNL     1       3.174   5.167  17.966  0.00  0.00    +0.000 N 
ATOM     10  C   UNL     1       2.450   4.039  18.312  0.00  0.00    +0.000 C 
ATOM     11  N   UNL     1       1.201   3.813  18.020  0.00  0.00    +0.000 NA
ATOM     12  C   UNL     1       0.848   2.506  18.625  0.00  0.00    +0.000 C 
ATOM     13  C   UNL     1       2.116   1.954  19.244  0.00  0.00    +0.000 C 
ATOM     14  N   UNL     1       3.050   3.010  19.033  0.00  0.00    +0.000 N 
ATOM     15  H   UNL     1       7.064   4.016  19.706  0.00  0.00    +0.000 HD
ENDROOT
BRANCH   9  16
ATOM     16  C   UNL     1       2.541   6.348  17.393  0.00  0.00    +0.000 C 
BRANCH  16  17
ATOM     17  C   UNL     1       2.117   7.311  18.488  0.00  0.00    +0.000 A 
ATOM     18  C   UNL     1       2.007   6.874  19.818  0.00  0.00    +0.000 A 
ATOM     19  C   UNL     1       1.509   7.728  20.805  0.00  0.00    +0.000 A 
ATOM     20  C   UNL     1       1.119   9.021  20.469  0.00  0.00    +0.000 A 
ATOM     21 CL   UNL     1       0.450  10.054  21.673  0.00  0.00    +0.000 Cl
ATOM     22  C   UNL     1       1.246   9.480  19.161  0.00  0.00    +0.000 A 
ATOM     23  C   UNL     1       1.747   8.628  18.175  0.00  0.00    +0.000 A 
ENDBRANCH  16  17
ENDBRANCH   9  16
TORSDOF 2
ENDMDL
MODEL 2
REMARK VINA RESULT:      -7.5      0.149      1.039
REMARK  Name = 
REMARK  2 active torsions:
REMARK  status: ('A' for Active; 'I' for Inactive)
REMARK    1  A    between atoms: N_9  and  C_10
REMARK    2  A    between atoms: C_10  and  C_11
REMARK                            x       y       z     vdW  Elec       q    Type
REMARK                         _______ _______ _______ _____ _____    ______ ____
ROOT
ATOM      1  O   UNL     1       4.919   2.142  20.173  0.00  0.00    +0.000 OA
ATOM      2  C   UNL     1       4.415   3.040  19.508  0.00  0.00    +0.000 C 
ATOM      3  C   UNL     1       5.117   4.212  19.103  0.00  0.00    +0.000 A 
ATOM      4  N   UNL     1       6.405   4.589  19.327  0.00  0.00    +0.000 N 
ATOM      5  C   UNL     1       6.576   5.799  18.707  0.00  0.00    +0.000 A 
ATOM      6 BR   UNL     1       8.190   6.737  18.686  0.00  0.00    +0.000 Br
ATOM      7  N   UNL     1       5.472   6.211  18.118  0.00  0.00    +0.000 NA
ATOM      8  C   UNL     1       4.564   5.223  18.360  0.00  0.00    +0.000 A 
ATOM      9  N   UNL     1       3.281   5.182  17.936  0.00  0.00    +0.000 N 
ATOM     10  C   UNL     1       2.544   4.063  18.281  0.00  0.00    +0.000 C 
ATOM     11  N   UNL     1       1.307   3.830  17.950  0.00  0.00    +0.000 NA
ATOM     12  C   UNL     1       0.932   2.537  18.573  0.00  0.00    +0.000 C 
ATOM     13  C   UNL     1       2.177   2.000  19.248  0.00  0.00    +0.000 C 
ATOM     14  N   UNL     1       3.118   3.051  19.046  0.00  0.00    +0.000 N 
ATOM     15  H   UNL     1       7.107   4.072  19.838  0.00  0.00    +0.000 HD
ENDROOT
BRANCH   9  16
ATOM     16  C   UNL     1       2.670   6.351  17.314  0.00  0.00    +0.000 C 
BRANCH  16  17
ATOM     17  C   UNL     1       2.093   7.276  18.369  0.00  0.00    +0.000 A 
ATOM     18  C   UNL     1       1.633   8.556  18.021  0.00  0.00    +0.000 A 
ATOM     19  C   UNL     1       1.206   9.449  19.006  0.00  0.00    +0.000 A 
ATOM     20  C   UNL     1       1.237   9.068  20.346  0.00  0.00    +0.000 A 
ATOM     21 CL   UNL     1       0.768  10.188  21.565  0.00  0.00    +0.000 Cl
ATOM     22  C   UNL     1       1.665   7.793  20.707  0.00  0.00    +0.000 A 
ATOM     23  C   UNL     1       2.087   6.900  19.721  0.00  0.00    +0.000 A 
ENDBRANCH  16  17
ENDBRANCH   9  16
TORSDOF 2
ENDMDL
MODEL 3
REMARK VINA RESULT:      -7.4      4.804      6.923
REMARK  Name = 
REMARK  2 active torsions:
REMARK  status: ('A' for Active; 'I' for Inactive)
REMARK    1  A    between atoms: N_9  and  C_10
REMARK    2  A    between atoms: C_10  and  C_11
REMARK                            x       y       z     vdW  Elec       q    Type
REMARK                         _______ _______ _______ _____ _____    ______ ____
ROOT
ATOM      1  O   UNL     1       7.660   5.163  20.426  0.00  0.00    +0.000 OA
ATOM      2  C   UNL     1       7.078   5.441  19.383  0.00  0.00    +0.000 C 
ATOM      3  C   UNL     1       6.006   4.672  18.846  0.00  0.00    +0.000 A 
ATOM      4  N   UNL     1       5.410   3.543  19.318  0.00  0.00    +0.000 N 
ATOM      5  C   UNL     1       4.420   3.219  18.428  0.00  0.00    +0.000 A 
ATOM      6 BR   UNL     1       3.274   1.759  18.634  0.00  0.00    +0.000 Br
ATOM      7  N   UNL     1       4.366   4.066  17.420  0.00  0.00    +0.000 NA
ATOM      8  C   UNL     1       5.349   4.973  17.681  0.00  0.00    +0.000 A 
ATOM      9  N   UNL     1       5.669   6.055  16.937  0.00  0.00    +0.000 N 
ATOM     10  C   UNL     1       6.694   6.856  17.408  0.00  0.00    +0.000 C 
ATOM     11  N   UNL     1       7.131   7.947  16.848  0.00  0.00    +0.000 NA
ATOM     12  C   UNL     1       8.253   8.439  17.683  0.00  0.00    +0.000 C 
ATOM     13  C   UNL     1       8.348   7.513  18.878  0.00  0.00    +0.000 C 
ATOM     14  N   UNL     1       7.358   6.530  18.587  0.00  0.00    +0.000 N 
ATOM     15  H   UNL     1       5.640   3.046  20.168  0.00  0.00    +0.000 HD
ENDROOT
BRANCH   9  16
ATOM     16  C   UNL     1       5.085   6.242  15.614  0.00  0.00    +0.000 C 
BRANCH  16  17
ATOM     17  C   UNL     1       5.695   5.272  14.619  0.00  0.00    +0.000 A 
ATOM     18  C   UNL     1       7.036   5.403  14.226  0.00  0.00    +0.000 A 
ATOM     19  C   UNL     1       7.566   4.582  13.227  0.00  0.00    +0.000 A 
ATOM     20  C   UNL     1       6.758   3.627  12.616  0.00  0.00    +0.000 A 
ATOM     21 CL   UNL     1       7.393   2.657  11.344  0.00  0.00    +0.000 Cl
ATOM     22  C   UNL     1       5.433   3.465  13.011  0.00  0.00    +0.000 A 
ATOM     23  C   UNL     1       4.905   4.283  14.012  0.00  0.00    +0.000 A 
ENDBRANCH  16  17
ENDBRANCH   9  16
TORSDOF 2
ENDMDL
MODEL 4
REMARK VINA RESULT:      -7.3      1.957      2.300
REMARK  Name = 
REMARK  2 active torsions:
REMARK  status: ('A' for Active; 'I' for Inactive)
REMARK    1  A    between atoms: N_9  and  C_10
REMARK    2  A    between atoms: C_10  and  C_11
REMARK                            x       y       z     vdW  Elec       q    Type
REMARK                         _______ _______ _______ _____ _____    ______ ____
ROOT
ATOM      1  O   UNL     1       3.265   1.297  17.847  0.00  0.00    +0.000 OA
ATOM      2  C   UNL     1       3.337   2.461  18.226  0.00  0.00    +0.000 C 
ATOM      3  C   UNL     1       4.176   3.438  17.618  0.00  0.00    +0.000 A 
ATOM      4  N   UNL     1       5.024   3.335  16.559  0.00  0.00    +0.000 N 
ATOM      5  C   UNL     1       5.578   4.575  16.375  0.00  0.00    +0.000 A 
ATOM      6 BR   UNL     1       6.794   4.979  15.017  0.00  0.00    +0.000 Br
ATOM      7  N   UNL     1       5.142   5.446  17.262  0.00  0.00    +0.000 NA
ATOM      8  C   UNL     1       4.266   4.742  18.033  0.00  0.00    +0.000 A 
ATOM      9  N   UNL     1       3.541   5.216  19.071  0.00  0.00    +0.000 N 
ATOM     10  C   UNL     1       2.692   4.321  19.699  0.00  0.00    +0.000 C 
ATOM     11  N   UNL     1       1.901   4.591  20.697  0.00  0.00    +0.000 NA
ATOM     12  C   UNL     1       1.217   3.325  21.058  0.00  0.00    +0.000 C 
ATOM     13  C   UNL     1       1.665   2.285  20.051  0.00  0.00    +0.000 C 
ATOM     14  N   UNL     1       2.621   2.998  19.272  0.00  0.00    +0.000 N 
ATOM     15  H   UNL     1       5.201   2.510  16.002  0.00  0.00    +0.000 HD
ENDROOT
BRANCH   9  16
ATOM     16  C   UNL     1       3.797   6.547  19.606  0.00  0.00    +0.000 C 
BRANCH  16  17
ATOM     17  C   UNL     1       2.660   7.490  19.258  0.00  0.00    +0.000 A 
ATOM     18  C   UNL     1       2.475   7.928  17.937  0.00  0.00    +0.000 A 
ATOM     19  C   UNL     1       1.500   8.882  17.636  0.00  0.00    +0.000 A 
ATOM     20  C   UNL     1       0.705   9.404  18.653  0.00  0.00    +0.000 A 
ATOM     21 CL   UNL     1      -0.455  10.622  18.293  0.00  0.00    +0.000 Cl
ATOM     22  C   UNL     1       0.857   8.962  19.964  0.00  0.00    +0.000 A 
ATOM     23  C   UNL     1       1.828   8.005  20.264  0.00  0.00    +0.000 A 
ENDBRANCH  16  17
ENDBRANCH   9  16
TORSDOF 2
ENDMDL
MODEL 5
REMARK VINA RESULT:      -7.2      3.834      5.595
REMARK  Name = 
REMARK  2 active torsions:
REMARK  status: ('A' for Active; 'I' for Inactive)
REMARK    1  A    between atoms: N_9  and  C_10
REMARK    2  A    between atoms: C_10  and  C_11
REMARK                            x       y       z     vdW  Elec       q    Type
REMARK                         _______ _______ _______ _____ _____    ______ ____
ROOT
ATOM      1  O   UNL     1       0.914   4.352  20.136  0.00  0.00    +0.000 OA
ATOM      2  C   UNL     1       2.042   4.637  19.749  0.00  0.00    +0.000 C 
ATOM      3  C   UNL     1       2.382   5.891  19.163  0.00  0.00    +0.000 A 
ATOM      4  N   UNL     1       1.613   6.985  18.915  0.00  0.00    +0.000 N 
ATOM      5  C   UNL     1       2.434   7.926  18.352  0.00  0.00    +0.000 A 
ATOM      6 BR   UNL     1       1.869   9.634  17.852  0.00  0.00    +0.000 Br
ATOM      7  N   UNL     1       3.669   7.485  18.218  0.00  0.00    +0.000 NA
ATOM      8  C   UNL     1       3.639   6.221  18.726  0.00  0.00    +0.000 A 
ATOM      9  N   UNL     1       4.681   5.366  18.826  0.00  0.00    +0.000 N 
ATOM     10  C   UNL     1       4.424   4.133  19.401  0.00  0.00    +0.000 C 
ATOM     11  N   UNL     1       5.296   3.189  19.605  0.00  0.00    +0.000 NA
ATOM     12  C   UNL     1       4.561   2.048  20.205  0.00  0.00    +0.000 C 
ATOM     13  C   UNL     1       3.131   2.507  20.406  0.00  0.00    +0.000 C 
ATOM     14  N   UNL     1       3.140   3.810  19.830  0.00  0.00    +0.000 N 
ATOM     15  H   UNL     1       0.629   7.093  19.121  0.00  0.00    +0.000 HD
ENDROOT
BRANCH   9  16
ATOM     16  C   UNL     1       5.953   5.671  18.184  0.00  0.00    +0.000 C 
BRANCH  16  17
ATOM     17  C   UNL     1       6.015   5.051  16.800  0.00  0.00    +0.000 A 
ATOM     18  C   UNL     1       7.152   5.220  15.994  0.00  0.00    +0.000 A 
ATOM     19  C   UNL     1       7.165   4.747  14.680  0.00  0.00    +0.000 A 
ATOM     20  C   UNL     1       6.043   4.102  14.164  0.00  0.00    +0.000 A 
ATOM     21 CL   UNL     1       6.037   3.572  12.528  0.00  0.00    +0.000 Cl
ATOM     22  C   UNL     1       4.917   3.902  14.959  0.00  0.00    +0.000 A 
ATOM     23  C   UNL     1       4.906   4.372  16.273  0.00  0.00    +0.000 A 
ENDBRANCH  16  17
ENDBRANCH   9  16
TORSDOF 2
ENDMDL
MODEL 6
REMARK VINA RESULT:      -7.2      3.838      5.546
REMARK  Name = 
REMARK  2 active torsions:
REMARK  status: ('A' for Active; 'I' for Inactive)
REMARK    1  A    between atoms: N_9  and  C_10
REMARK    2  A    between atoms: C_10  and  C_11
REMARK                            x       y       z     vdW  Elec       q    Type
REMARK                         _______ _______ _______ _____ _____    ______ ____
ROOT
ATOM      1  O   UNL     1       0.873   4.263  20.122  0.00  0.00    +0.000 OA
ATOM      2  C   UNL     1       2.010   4.536  19.753  0.00  0.00    +0.000 C 
ATOM      3  C   UNL     1       2.372   5.784  19.169  0.00  0.00    +0.000 A 
ATOM      4  N   UNL     1       1.617   6.885  18.905  0.00  0.00    +0.000 N 
ATOM      5  C   UNL     1       2.457   7.816  18.352  0.00  0.00    +0.000 A 
ATOM      6 BR   UNL     1       1.917   9.528  17.838  0.00  0.00    +0.000 Br
ATOM      7  N   UNL     1       3.690   7.363  18.241  0.00  0.00    +0.000 NA
ATOM      8  C   UNL     1       3.639   6.101  18.753  0.00  0.00    +0.000 A 
ATOM      9  N   UNL     1       4.671   5.237  18.874  0.00  0.00    +0.000 N 
ATOM     10  C   UNL     1       4.393   4.008  19.448  0.00  0.00    +0.000 C 
ATOM     11  N   UNL     1       5.252   3.056  19.670  0.00  0.00    +0.000 NA
ATOM     12  C   UNL     1       4.497   1.925  20.260  0.00  0.00    +0.000 C 
ATOM     13  C   UNL     1       3.068   2.398  20.436  0.00  0.00    +0.000 C 
ATOM     14  N   UNL     1       3.098   3.699  19.855  0.00  0.00    +0.000 N 
ATOM     15  H   UNL     1       0.631   7.003  19.093  0.00  0.00    +0.000 HD
ENDROOT
BRANCH   9  16
ATOM     16  C   UNL     1       5.957   5.528  18.253  0.00  0.00    +0.000 C 
BRANCH  16  17
ATOM     17  C   UNL     1       5.956   5.101  16.796  0.00  0.00    +0.000 A 
ATOM     18  C   UNL     1       4.961   4.240  16.306  0.00  0.00    +0.000 A 
ATOM     19  C   UNL     1       5.023   3.758  14.997  0.00  0.00    +0.000 A 
ATOM     20  C   UNL     1       6.078   4.134  14.170  0.00  0.00    +0.000 A 
ATOM     21 CL   UNL     1       6.186   3.494  12.576  0.00  0.00    +0.000 Cl
ATOM     22  C   UNL     1       7.059   5.009  14.630  0.00  0.00    +0.000 A 
ATOM     23  C   UNL     1       6.995   5.493  15.938  0.00  0.00    +0.000 A 
ENDBRANCH  16  17
ENDBRANCH   9  16
TORSDOF 2
ENDMDL
MODEL 7
REMARK VINA RESULT:      -7.0      1.426      1.799
REMARK  Name = 
REMARK  2 active torsions:
REMARK  status: ('A' for Active; 'I' for Inactive)
REMARK    1  A    between atoms: N_9  and  C_10
REMARK    2  A    between atoms: C_10  and  C_11
REMARK                            x       y       z     vdW  Elec       q    Type
REMARK                         _______ _______ _______ _____ _____    ______ ____
ROOT
ATOM      1  O   UNL     1       4.086   1.705  17.558  0.00  0.00    +0.000 OA
ATOM      2  C   UNL     1       3.720   2.641  18.260  0.00  0.00    +0.000 C 
ATOM      3  C   UNL     1       4.576   3.705  18.668  0.00  0.00    +0.000 A 
ATOM      4  N   UNL     1       5.891   3.930  18.399  0.00  0.00    +0.000 N 
ATOM      5  C   UNL     1       6.226   5.104  19.021  0.00  0.00    +0.000 A 
ATOM      6 BR   UNL     1       7.922   5.880  18.933  0.00  0.00    +0.000 Br
ATOM      7  N   UNL     1       5.206   5.623  19.674  0.00  0.00    +0.000 NA
ATOM      8  C   UNL     1       4.178   4.756  19.452  0.00  0.00    +0.000 A 
ATOM      9  N   UNL     1       2.910   4.874  19.905  0.00  0.00    +0.000 N 
ATOM     10  C   UNL     1       2.020   3.881  19.533  0.00  0.00    +0.000 C 
ATOM     11  N   UNL     1       0.758   3.829  19.849  0.00  0.00    +0.000 NA
ATOM     12  C   UNL     1       0.221   2.576  19.265  0.00  0.00    +0.000 C 
ATOM     13  C   UNL     1       1.349   1.943  18.476  0.00  0.00    +0.000 C 
ATOM     14  N   UNL     1       2.443   2.814  18.745  0.00  0.00    +0.000 N 
ATOM     15  H   UNL     1       6.501   3.353  17.836  0.00  0.00    +0.000 HD
ENDROOT
BRANCH   9  16
ATOM     16  C   UNL     1       2.567   5.895  20.887  0.00  0.00    +0.000 C 
BRANCH  16  17
ATOM     17  C   UNL     1       2.119   7.171  20.197  0.00  0.00    +0.000 A 
ATOM     18  C   UNL     1       1.372   8.134  20.894  0.00  0.00    +0.000 A 
ATOM     19  C   UNL     1       0.865   9.253  20.231  0.00  0.00    +0.000 A 
ATOM     20  C   UNL     1       1.099   9.416  18.868  0.00  0.00    +0.000 A 
ATOM     21 CL   UNL     1       0.424  10.763  18.038  0.00  0.00    +0.000 Cl
ATOM     22  C   UNL     1       1.860   8.484  18.166  0.00  0.00    +0.000 A 
ATOM     23  C   UNL     1       2.371   7.368  18.830  0.00  0.00    +0.000 A 
ENDBRANCH  16  17
ENDBRANCH   9  16
TORSDOF 2
ENDMDL
MODEL 8
REMARK VINA RESULT:      -7.0      3.154      4.807
REMARK  Name = 
REMARK  2 active torsions:
REMARK  status: ('A' for Active; 'I' for Inactive)
REMARK    1  A    between atoms: N_9  and  C_10
REMARK    2  A    between atoms: C_10  and  C_11
REMARK                            x       y       z     vdW  Elec       q    Type
REMARK                         _______ _______ _______ _____ _____    ______ ____
ROOT
ATOM      1  O   UNL     1       1.353   4.517  21.063  0.00  0.00    +0.000 OA
ATOM      2  C   UNL     1       2.304   4.623  20.297  0.00  0.00    +0.000 C 
ATOM      3  C   UNL     1       2.526   5.759  19.465  0.00  0.00    +0.000 A 
ATOM      4  N   UNL     1       1.807   6.907  19.333  0.00  0.00    +0.000 N 
ATOM      5  C   UNL     1       2.464   7.678  18.410  0.00  0.00    +0.000 A 
ATOM      6 BR   UNL     1       1.902   9.381  17.891  0.00  0.00    +0.000 Br
ATOM      7  N   UNL     1       3.542   7.080  17.945  0.00  0.00    +0.000 NA
ATOM      8  C   UNL     1       3.584   5.888  18.604  0.00  0.00    +0.000 A 
ATOM      9  N   UNL     1       4.528   4.928  18.478  0.00  0.00    +0.000 N 
ATOM     10  C   UNL     1       4.382   3.801  19.269  0.00  0.00    +0.000 C 
ATOM     11  N   UNL     1       5.193   2.784  19.307  0.00  0.00    +0.000 NA
ATOM     12  C   UNL     1       4.614   1.809  20.263  0.00  0.00    +0.000 C 
ATOM     13  C   UNL     1       3.377   2.455  20.852  0.00  0.00    +0.000 C 
ATOM     14  N   UNL     1       3.295   3.682  20.130  0.00  0.00    +0.000 N 
ATOM     15  H   UNL     1       0.962   7.153  19.829  0.00  0.00    +0.000 HD
ENDROOT
BRANCH   9  16
ATOM     16  C   UNL     1       5.530   5.009  17.423  0.00  0.00    +0.000 C 
BRANCH  16  17
ATOM     17  C   UNL     1       6.557   6.081  17.743  0.00  0.00    +0.000 A 
ATOM     18  C   UNL     1       7.461   5.908  18.803  0.00  0.00    +0.000 A 
ATOM     19  C   UNL     1       8.329   6.939  19.169  0.00  0.00    +0.000 A 
ATOM     20  C   UNL     1       8.298   8.148  18.478  0.00  0.00    +0.000 A 
ATOM     21 CL   UNL     1       9.326   9.439  18.967  0.00  0.00    +0.000 Cl
ATOM     22  C   UNL     1       7.427   8.327  17.407  0.00  0.00    +0.000 A 
ATOM     23  C   UNL     1       6.562   7.295  17.040  0.00  0.00    +0.000 A 
ENDBRANCH  16  17
ENDBRANCH   9  16
TORSDOF 2
ENDMDL
MODEL 9
REMARK VINA RESULT:      -6.7      2.254      4.060
REMARK  Name = 
REMARK  2 active torsions:
REMARK  status: ('A' for Active; 'I' for Inactive)
REMARK    1  A    between atoms: N_9  and  C_10
REMARK    2  A    between atoms: C_10  and  C_11
REMARK                            x       y       z     vdW  Elec       q    Type
REMARK                         _______ _______ _______ _____ _____    ______ ____
ROOT
ATOM      1  O   UNL     1       8.032   4.472  18.718  0.00  0.00    +0.000 OA
ATOM      2  C   UNL     1       7.038   5.103  18.376  0.00  0.00    +0.000 C 
ATOM      3  C   UNL     1       5.735   4.533  18.278  0.00  0.00    +0.000 A 
ATOM      4  N   UNL     1       5.308   3.264  18.525  0.00  0.00    +0.000 N 
ATOM      5  C   UNL     1       3.958   3.250  18.291  0.00  0.00    +0.000 A 
ATOM      6 BR   UNL     1       2.880   1.743  18.519  0.00  0.00    +0.000 Br
ATOM      7  N   UNL     1       3.513   4.428  17.901  0.00  0.00    +0.000 NA
ATOM      8  C   UNL     1       4.617   5.228  17.897  0.00  0.00    +0.000 A 
ATOM      9  N   UNL     1       4.661   6.542  17.583  0.00  0.00    +0.000 N 
ATOM     10  C   UNL     1       5.895   7.163  17.671  0.00  0.00    +0.000 C 
ATOM     11  N   UNL     1       6.135   8.420  17.433  0.00  0.00    +0.000 NA
ATOM     12  C   UNL     1       7.594   8.620  17.617  0.00  0.00    +0.000 C 
ATOM     13  C   UNL     1       8.160   7.298  18.093  0.00  0.00    +0.000 C 
ATOM     14  N   UNL     1       7.022   6.441  18.050  0.00  0.00    +0.000 N 
ATOM     15  H   UNL     1       5.872   2.485  18.836  0.00  0.00    +0.000 HD
ENDROOT
BRANCH   9  16
ATOM     16  C   UNL     1       3.500   7.203  17.001  0.00  0.00    +0.000 C 
BRANCH  16  17
ATOM     17  C   UNL     1       2.700   7.919  18.074  0.00  0.00    +0.000 A 
ATOM     18  C   UNL     1       2.512   7.331  19.335  0.00  0.00    +0.000 A 
ATOM     19  C   UNL     1       1.684   7.937  20.282  0.00  0.00    +0.000 A 
ATOM     20  C   UNL     1       1.038   9.132  19.976  0.00  0.00    +0.000 A 
ATOM     21 CL   UNL     1      -0.028   9.848  21.120  0.00  0.00    +0.000 Cl
ATOM     22  C   UNL     1       1.235   9.743  18.740  0.00  0.00    +0.000 A 
ATOM     23  C   UNL     1       2.066   9.140  17.794  0.00  0.00    +0.000 A 
ENDBRANCH  16  17
ENDBRANCH   9  16
TORSDOF 2
ENDMDL
