MODEL 1
REMARK VINA RESULT:      -6.5      0.000      0.000
REMARK  Name = 
REMARK  8 active torsions:
REMARK  status: ('A' for Active; 'I' for Inactive)
REMARK    1  A    between atoms: C_1  and  O_2
REMARK    2  A    between atoms: O_2  and  C_3
REMARK    3  A    between atoms: C_3  and  C_4
REMARK    4  A    between atoms: C_4  and  C_5
REMARK    5  A    between atoms: C_5  and  N_6
REMARK    6  A    between atoms: N_6  and  C_7
REMARK    7  A    between atoms: C_7  and  N_9
REMARK    8  A    between atoms: C_15  and  C_16
REMARK                            x       y       z     vdW  Elec       q    Type
REMARK                         _______ _______ _______ _____ _____    ______ ____
ROOT
ATOM      1  N   UNL     1       5.708   4.725  14.907  0.00  0.00    +0.000 N 
ATOM      2  C   UNL     1       5.091   3.708  15.777  0.00  0.00    +0.000 C 
ATOM      3  C   UNL     1       5.232   4.070  17.264  0.00  0.00    +0.000 C 
ATOM      4  N   UNL     1       4.686   5.406  17.490  0.00  0.00    +0.000 N 
ATOM      5  C   UNL     1       3.781   5.706  18.463  0.00  0.00    +0.000 A 
ATOM      6  N   UNL     1       3.269   6.908  18.638  0.00  0.00    +0.000 NA
ATOM      7  C   UNL     1       2.350   6.927  19.674  0.00  0.00    +0.000 A 
ATOM      8  C   UNL     1       2.154   5.711  20.292  0.00  0.00    +0.000 A 
ATOM      9  S   UNL     1       3.157   4.533  19.584  0.00  0.00    +0.000 S 
ATOM     10  C   UNL     1       5.313   6.468  16.694  0.00  0.00    +0.000 C 
ATOM     11  C   UNL     1       5.286   6.112  15.193  0.00  0.00    +0.000 C 
ENDROOT
BRANCH   7  12
ATOM     12  C   UNL     1       1.616   8.140  20.027  0.00  0.00    +0.000 A 
ATOM     13  C   UNL     1       1.371   9.104  19.040  0.00  0.00    +0.000 A 
ATOM     14  C   UNL     1       0.632  10.258  19.341  0.00  0.00    +0.000 A 
ATOM     15  C   UNL     1       0.147  10.452  20.629  0.00  0.00    +0.000 A 
ATOM     16 CL   UNL     1      -0.769  11.857  20.998  0.00  0.00    +0.000 Cl
ATOM     17  C   UNL     1       0.401   9.512  21.625  0.00  0.00    +0.000 A 
ATOM     18  C   UNL     1       1.132   8.359  21.325  0.00  0.00    +0.000 A 
ENDBRANCH   7  12
BRANCH   1  19
ATOM     19  C   UNL     1       6.519   4.368  13.834  0.00  0.00    +0.000 C 
ATOM     20  S   UNL     1       7.858   5.241  13.340  0.00  0.00    +0.000 S 
BRANCH  19  21
ATOM     21  N   UNL     1       6.116   3.181  13.260  0.00  0.00    +0.000 N 
ATOM     22  H   UNL     1       5.706   2.543  13.931  0.00  0.00    +0.000 HD
BRANCH  21  23
ATOM     23  C   UNL     1       5.730   2.969  11.874  0.00  0.00    +0.000 C 
BRANCH  23  24
ATOM     24  C   UNL     1       4.247   3.265  11.686  0.00  0.00    +0.000 C 
BRANCH  24  25
ATOM     25  C   UNL     1       3.948   3.604  10.235  0.00  0.00    +0.000 C 
BRANCH  25  27
ATOM     26  C   UNL     1       2.473   4.805   8.855  0.00  0.00    +0.000 C 
ATOM     27  O   UNL     1       2.863   4.530  10.195  0.00  0.00    +0.000 OA
ENDBRANCH  25  27
ENDBRANCH  24  25
ENDBRANCH  23  24
ENDBRANCH  21  23
ENDBRANCH  19  21
ENDBRANCH   1  19
TORSDOF 7
ENDMDL
MODEL 2
REMARK VINA RESULT:      -6.3      6.229     11.198
REMARK  Name = 
REMARK  8 active torsions:
REMARK  status: ('A' for Active; 'I' for Inactive)
REMARK    1  A    between atoms: C_1  and  O_2
REMARK    2  A    between atoms: O_2  and  C_3
REMARK    3  A    between atoms: C_3  and  C_4
REMARK    4  A    between atoms: C_4  and  C_5
REMARK    5  A    between atoms: C_5  and  N_6
REMARK    6  A    between atoms: N_6  and  C_7
REMARK    7  A    between atoms: C_7  and  N_9
REMARK    8  A    between atoms: C_15  and  C_16
REMARK                            x       y       z     vdW  Elec       q    Type
REMARK                         _______ _______ _______ _____ _____    ______ ____
ROOT
ATOM      1  N   UNL     1      -1.444  11.793  22.074  0.00  0.00    +0.000 N 
ATOM      2  C   UNL     1      -1.226  12.103  20.649  0.00  0.00    +0.000 C 
ATOM      3  C   UNL     1       0.238  11.880  20.237  0.00  0.00    +0.000 C 
ATOM      4  N   UNL     1       0.635  10.516  20.582  0.00  0.00    +0.000 N 
ATOM      5  C   UNL     1       1.237   9.655  19.715  0.00  0.00    +0.000 A 
ATOM      6  N   UNL     1       1.562   8.416  20.026  0.00  0.00    +0.000 NA
ATOM      7  C   UNL     1       2.126   7.749  18.951  0.00  0.00    +0.000 A 
ATOM      8  C   UNL     1       2.223   8.496  17.797  0.00  0.00    +0.000 A 
ATOM      9  S   UNL     1       1.624  10.066  18.071  0.00  0.00    +0.000 S 
ATOM     10  C   UNL     1       0.499  10.179  22.004  0.00  0.00    +0.000 C 
ATOM     11  C   UNL     1      -0.932  10.474  22.499  0.00  0.00    +0.000 C 
ENDROOT
BRANCH   7  12
ATOM     12  C   UNL     1       2.526   6.347  19.041  0.00  0.00    +0.000 A 
ATOM     13  C   UNL     1       2.302   5.646  20.234  0.00  0.00    +0.000 A 
ATOM     14  C   UNL     1       2.637   4.287  20.334  0.00  0.00    +0.000 A 
ATOM     15  C   UNL     1       3.204   3.633  19.246  0.00  0.00    +0.000 A 
ATOM     16 CL   UNL     1       3.603   1.967  19.360  0.00  0.00    +0.000 Cl
ATOM     17  C   UNL     1       3.451   4.323  18.062  0.00  0.00    +0.000 A 
ATOM     18  C   UNL     1       3.112   5.675  17.958  0.00  0.00    +0.000 A 
ENDBRANCH   7  12
BRANCH   1  19
ATOM     19  C   UNL     1      -2.185  12.638  22.895  0.00  0.00    +0.000 C 
ATOM     20  S   UNL     1      -1.540  13.941  23.723  0.00  0.00    +0.000 S 
BRANCH  19  21
ATOM     21  N   UNL     1      -3.522  12.303  22.901  0.00  0.00    +0.000 N 
ATOM     22  H   UNL     1      -3.850  12.025  23.818  0.00  0.00    +0.000 HD
BRANCH  21  23
ATOM     23  C   UNL     1      -4.546  12.781  21.987  0.00  0.00    +0.000 C 
BRANCH  23  24
ATOM     24  C   UNL     1      -5.912  12.759  22.663  0.00  0.00    +0.000 C 
BRANCH  24  25
ATOM     25  C   UNL     1      -7.011  12.516  21.642  0.00  0.00    +0.000 C 
BRANCH  25  27
ATOM     26  C   UNL     1      -7.411  10.550  20.417  0.00  0.00    +0.000 C 
ATOM     27  O   UNL     1      -7.404  11.146  21.709  0.00  0.00    +0.000 OA
ENDBRANCH  25  27
ENDBRANCH  24  25
ENDBRANCH  23  24
ENDBRANCH  21  23
ENDBRANCH  19  21
ENDBRANCH   1  19
TORSDOF 7
ENDMDL
MODEL 3
REMARK VINA RESULT:      -6.3      3.684      5.115
REMARK  Name = 
REMARK  8 active torsions:
REMARK  status: ('A' for Active; 'I' for Inactive)
REMARK    1  A    between atoms: C_1  and  O_2
REMARK    2  A    between atoms: O_2  and  C_3
REMARK    3  A    between atoms: C_3  and  C_4
REMARK    4  A    between atoms: C_4  and  C_5
REMARK    5  A    between atoms: C_5  and  N_6
REMARK    6  A    between atoms: N_6  and  C_7
REMARK    7  A    between atoms: C_7  and  N_9
REMARK    8  A    between atoms: C_15  and  C_16
REMARK                            x       y       z     vdW  Elec       q    Type
REMARK                         _______ _______ _______ _____ _____    ______ ____
ROOT
ATOM      1  N   UNL     1       3.995   4.993  19.149  0.00  0.00    +0.000 N 
ATOM      2  C   UNL     1       4.437   6.178  18.391  0.00  0.00    +0.000 C 
ATOM      3  C   UNL     1       3.250   6.929  17.769  0.00  0.00    +0.000 C 
ATOM      4  N   UNL     1       2.286   7.262  18.815  0.00  0.00    +0.000 N 
ATOM      5  C   UNL     1       1.769   8.507  19.008  0.00  0.00    +0.000 A 
ATOM      6  N   UNL     1       0.925   8.805  19.976  0.00  0.00    +0.000 NA
ATOM      7  C   UNL     1       0.587  10.148  19.966  0.00  0.00    +0.000 A 
ATOM      8  C   UNL     1       1.195  10.887  18.974  0.00  0.00    +0.000 A 
ATOM      9  S   UNL     1       2.182   9.878  18.023  0.00  0.00    +0.000 S 
ATOM     10  C   UNL     1       1.764   6.108  19.558  0.00  0.00    +0.000 C 
ATOM     11  C   UNL     1       2.920   5.259  20.128  0.00  0.00    +0.000 C 
ENDROOT
BRANCH   7  12
ATOM     12  C   UNL     1      -0.302  10.723  20.973  0.00  0.00    +0.000 A 
ATOM     13  C   UNL     1      -1.160  11.770  20.611  0.00  0.00    +0.000 A 
ATOM     14  C   UNL     1      -2.054  12.312  21.547  0.00  0.00    +0.000 A 
ATOM     15  C   UNL     1      -2.082  11.815  22.845  0.00  0.00    +0.000 A 
ATOM     16 CL   UNL     1      -3.184  12.468  23.989  0.00  0.00    +0.000 Cl
ATOM     17  C   UNL     1      -1.220  10.789  23.223  0.00  0.00    +0.000 A 
ATOM     18  C   UNL     1      -0.333  10.243  22.291  0.00  0.00    +0.000 A 
ENDBRANCH   7  12
BRANCH   1  19
ATOM     19  C   UNL     1       4.642   3.768  19.023  0.00  0.00    +0.000 C 
ATOM     20  S   UNL     1       4.359   2.453  20.019  0.00  0.00    +0.000 S 
BRANCH  19  21
ATOM     21  N   UNL     1       5.505   3.752  17.948  0.00  0.00    +0.000 N 
ATOM     22  H   UNL     1       6.436   3.443  18.200  0.00  0.00    +0.000 HD
BRANCH  21  23
ATOM     23  C   UNL     1       5.150   3.599  16.547  0.00  0.00    +0.000 C 
BRANCH  23  24
ATOM     24  C   UNL     1       6.341   3.938  15.658  0.00  0.00    +0.000 C 
BRANCH  24  25
ATOM     25  C   UNL     1       6.870   5.327  15.977  0.00  0.00    +0.000 C 
BRANCH  25  27
ATOM     26  C   UNL     1       7.682   6.433  17.885  0.00  0.00    +0.000 C 
ATOM     27  O   UNL     1       7.732   5.241  17.111  0.00  0.00    +0.000 OA
ENDBRANCH  25  27
ENDBRANCH  24  25
ENDBRANCH  23  24
ENDBRANCH  21  23
ENDBRANCH  19  21
ENDBRANCH   1  19
TORSDOF 7
ENDMDL
MODEL 4
REMARK VINA RESULT:      -6.3      1.543      2.171
REMARK  Name = 
REMARK  8 active torsions:
REMARK  status: ('A' for Active; 'I' for Inactive)
REMARK    1  A    between atoms: C_1  and  O_2
REMARK    2  A    between atoms: O_2  and  C_3
REMARK    3  A    between atoms: C_3  and  C_4
REMARK    4  A    between atoms: C_4  and  C_5
REMARK    5  A    between atoms: C_5  and  N_6
REMARK    6  A    between atoms: N_6  and  C_7
REMARK    7  A    between atoms: C_7  and  N_9
REMARK    8  A    between atoms: C_15  and  C_16
REMARK                            x       y       z     vdW  Elec       q    Type
REMARK                         _______ _______ _______ _____ _____    ______ ____
ROOT
ATOM      1  N   UNL     1       5.680   4.872  15.249  0.00  0.00    +0.000 N 
ATOM      2  C   UNL     1       5.052   3.844  16.097  0.00  0.00    +0.000 C 
ATOM      3  C   UNL     1       5.148   4.202  17.589  0.00  0.00    +0.000 C 
ATOM      4  N   UNL     1       4.580   5.530  17.806  0.00  0.00    +0.000 N 
ATOM      5  C   UNL     1       3.646   5.814  18.756  0.00  0.00    +0.000 A 
ATOM      6  N   UNL     1       3.115   7.009  18.922  0.00  0.00    +0.000 NA
ATOM      7  C   UNL     1       2.168   7.013  19.933  0.00  0.00    +0.000 A 
ATOM      8  C   UNL     1       1.970   5.792  20.540  0.00  0.00    +0.000 A 
ATOM      9  S   UNL     1       3.006   4.629  19.854  0.00  0.00    +0.000 S 
ATOM     10  C   UNL     1       5.215   6.603  17.031  0.00  0.00    +0.000 C 
ATOM     11  C   UNL     1       5.233   6.253  15.529  0.00  0.00    +0.000 C 
ENDROOT
BRANCH   7  12
ATOM     12  C   UNL     1       1.410   8.216  20.270  0.00  0.00    +0.000 A 
ATOM     13  C   UNL     1       0.873   8.348  21.558  0.00  0.00    +0.000 A 
ATOM     14  C   UNL     1       0.178   9.511  21.922  0.00  0.00    +0.000 A 
ATOM     15  C   UNL     1       0.012  10.536  20.997  0.00  0.00    +0.000 A 
ATOM     16 CL   UNL     1      -0.827  11.966  21.444  0.00  0.00    +0.000 Cl
ATOM     17  C   UNL     1       0.523  10.408  19.708  0.00  0.00    +0.000 A 
ATOM     18  C   UNL     1       1.221   9.253  19.345  0.00  0.00    +0.000 A 
ENDBRANCH   7  12
BRANCH   1  19
ATOM     19  C   UNL     1       6.523   4.530  14.197  0.00  0.00    +0.000 C 
ATOM     20  S   UNL     1       7.877   5.409  13.756  0.00  0.00    +0.000 S 
BRANCH  19  21
ATOM     21  N   UNL     1       6.138   3.350  13.594  0.00  0.00    +0.000 N 
ATOM     22  H   UNL     1       5.762   2.681  14.254  0.00  0.00    +0.000 HD
BRANCH  21  23
ATOM     23  C   UNL     1       5.726   3.171  12.212  0.00  0.00    +0.000 C 
BRANCH  23  24
ATOM     24  C   UNL     1       6.938   2.902  11.329  0.00  0.00    +0.000 C 
BRANCH  24  25
ATOM     25  C   UNL     1       7.118   1.409  11.106  0.00  0.00    +0.000 C 
BRANCH  25  27
ATOM     26  C   UNL     1       6.019  -0.658  11.321  0.00  0.00    +0.000 C 
ATOM     27  O   UNL     1       5.870   0.757  11.339  0.00  0.00    +0.000 OA
ENDBRANCH  25  27
ENDBRANCH  24  25
ENDBRANCH  23  24
ENDBRANCH  21  23
ENDBRANCH  19  21
ENDBRANCH   1  19
TORSDOF 7
ENDMDL
MODEL 5
REMARK VINA RESULT:      -6.3      5.167      9.750
REMARK  Name = 
REMARK  8 active torsions:
REMARK  status: ('A' for Active; 'I' for Inactive)
REMARK    1  A    between atoms: C_1  and  O_2
REMARK    2  A    between atoms: O_2  and  C_3
REMARK    3  A    between atoms: C_3  and  C_4
REMARK    4  A    between atoms: C_4  and  C_5
REMARK    5  A    between atoms: C_5  and  N_6
REMARK    6  A    between atoms: N_6  and  C_7
REMARK    7  A    between atoms: C_7  and  N_9
REMARK    8  A    between atoms: C_15  and  C_16
REMARK                            x       y       z     vdW  Elec       q    Type
REMARK                         _______ _______ _______ _____ _____    ______ ____
ROOT
ATOM      1  N   UNL     1       0.781  11.814  20.054  0.00  0.00    +0.000 N 
ATOM      2  C   UNL     1       0.934  10.840  21.150  0.00  0.00    +0.000 C 
ATOM      3  C   UNL     1       0.486   9.432  20.724  0.00  0.00    +0.000 C 
ATOM      4  N   UNL     1       1.212   9.038  19.519  0.00  0.00    +0.000 N 
ATOM      5  C   UNL     1       1.873   7.855  19.379  0.00  0.00    +0.000 A 
ATOM      6  N   UNL     1       2.553   7.522  18.300  0.00  0.00    +0.000 NA
ATOM      7  C   UNL     1       3.155   6.282  18.435  0.00  0.00    +0.000 A 
ATOM      8  C   UNL     1       2.935   5.666  19.648  0.00  0.00    +0.000 A 
ATOM      9  S   UNL     1       1.935   6.641  20.621  0.00  0.00    +0.000 S 
ATOM     10  C   UNL     1       1.040   9.943  18.375  0.00  0.00    +0.000 C 
ATOM     11  C   UNL     1       1.385  11.393  18.772  0.00  0.00    +0.000 C 
ENDROOT
BRANCH   7  12
ATOM     12  C   UNL     1       4.000   5.720  17.385  0.00  0.00    +0.000 A 
ATOM     13  C   UNL     1       4.131   4.328  17.282  0.00  0.00    +0.000 A 
ATOM     14  C   UNL     1       4.902   3.761  16.257  0.00  0.00    +0.000 A 
ATOM     15  C   UNL     1       5.548   4.583  15.341  0.00  0.00    +0.000 A 
ATOM     16 CL   UNL     1       6.481   3.891  14.076  0.00  0.00    +0.000 Cl
ATOM     17  C   UNL     1       5.443   5.968  15.444  0.00  0.00    +0.000 A 
ATOM     18  C   UNL     1       4.670   6.536  16.461  0.00  0.00    +0.000 A 
ENDBRANCH   7  12
BRANCH   1  19
ATOM     19  C   UNL     1       0.223  13.070  20.271  0.00  0.00    +0.000 C 
ATOM     20  S   UNL     1       0.938  14.265  21.199  0.00  0.00    +0.000 S 
BRANCH  19  21
ATOM     21  N   UNL     1      -0.964  13.229  19.588  0.00  0.00    +0.000 N 
ATOM     22  H   UNL     1      -0.825  13.492  18.621  0.00  0.00    +0.000 HD
BRANCH  21  23
ATOM     23  C   UNL     1      -2.236  12.591  19.889  0.00  0.00    +0.000 C 
BRANCH  23  24
ATOM     24  C   UNL     1      -2.648  11.668  18.749  0.00  0.00    +0.000 C 
BRANCH  24  25
ATOM     25  C   UNL     1      -4.145  11.757  18.503  0.00  0.00    +0.000 C 
BRANCH  25  27
ATOM     26  C   UNL     1      -5.982  11.650  19.965  0.00  0.00    +0.000 C 
ATOM     27  O   UNL     1      -4.767  12.322  19.656  0.00  0.00    +0.000 OA
ENDBRANCH  25  27
ENDBRANCH  24  25
ENDBRANCH  23  24
ENDBRANCH  21  23
ENDBRANCH  19  21
ENDBRANCH   1  19
TORSDOF 7
ENDMDL
MODEL 6
REMARK VINA RESULT:      -6.3      5.325     10.483
REMARK  Name = 
REMARK  8 active torsions:
REMARK  status: ('A' for Active; 'I' for Inactive)
REMARK    1  A    between atoms: C_1  and  O_2
REMARK    2  A    between atoms: O_2  and  C_3
REMARK    3  A    between atoms: C_3  and  C_4
REMARK    4  A    between atoms: C_4  and  C_5
REMARK    5  A    between atoms: C_5  and  N_6
REMARK    6  A    between atoms: N_6  and  C_7
REMARK    7  A    between atoms: C_7  and  N_9
REMARK    8  A    between atoms: C_15  and  C_16
REMARK                            x       y       z     vdW  Elec       q    Type
REMARK                         _______ _______ _______ _____ _____    ______ ____
ROOT
ATOM      1  N   UNL     1       0.673  11.298  20.773  0.00  0.00    +0.000 N 
ATOM      2  C   UNL     1       0.871  10.202  21.739  0.00  0.00    +0.000 C 
ATOM      3  C   UNL     1       0.475   8.842  21.143  0.00  0.00    +0.000 C 
ATOM      4  N   UNL     1       1.206   8.628  19.896  0.00  0.00    +0.000 N 
ATOM      5  C   UNL     1       1.910   7.499  19.608  0.00  0.00    +0.000 A 
ATOM      6  N   UNL     1       2.594   7.329  18.494  0.00  0.00    +0.000 NA
ATOM      7  C   UNL     1       3.245   6.107  18.472  0.00  0.00    +0.000 A 
ATOM      8  C   UNL     1       3.059   5.337  19.600  0.00  0.00    +0.000 A 
ATOM      9  S   UNL     1       2.030   6.143  20.690  0.00  0.00    +0.000 S 
ATOM     10  C   UNL     1       0.990   9.661  18.875  0.00  0.00    +0.000 C 
ATOM     11  C   UNL     1       1.281  11.063  19.447  0.00  0.00    +0.000 C 
ENDROOT
BRANCH   7  12
ATOM     12  C   UNL     1       4.102   5.713  17.357  0.00  0.00    +0.000 A 
ATOM     13  C   UNL     1       4.329   4.351  17.115  0.00  0.00    +0.000 A 
ATOM     14  C   UNL     1       5.112   3.944  16.025  0.00  0.00    +0.000 A 
ATOM     15  C   UNL     1       5.677   4.897  15.185  0.00  0.00    +0.000 A 
ATOM     16 CL   UNL     1       6.627   4.401  13.843  0.00  0.00    +0.000 Cl
ATOM     17  C   UNL     1       5.477   6.254  15.427  0.00  0.00    +0.000 A 
ATOM     18  C   UNL     1       4.691   6.662  16.508  0.00  0.00    +0.000 A 
ENDBRANCH   7  12
BRANCH   1  19
ATOM     19  C   UNL     1       0.068  12.494  21.147  0.00  0.00    +0.000 C 
ATOM     20  S   UNL     1       0.804  13.992  21.031  0.00  0.00    +0.000 S 
BRANCH  19  21
ATOM     21  N   UNL     1      -1.229  12.301  21.576  0.00  0.00    +0.000 N 
ATOM     22  H   UNL     1      -1.793  11.806  20.897  0.00  0.00    +0.000 HD
BRANCH  21  23
ATOM     23  C   UNL     1      -1.690  12.227  22.952  0.00  0.00    +0.000 C 
BRANCH  23  24
ATOM     24  C   UNL     1      -2.514  13.461  23.301  0.00  0.00    +0.000 C 
BRANCH  24  25
ATOM     25  C   UNL     1      -3.980  13.097  23.470  0.00  0.00    +0.000 C 
BRANCH  25  27
ATOM     26  C   UNL     1      -4.939  13.055  21.325  0.00  0.00    +0.000 C 
ATOM     27  O   UNL     1      -4.378  12.275  22.374  0.00  0.00    +0.000 OA
ENDBRANCH  25  27
ENDBRANCH  24  25
ENDBRANCH  23  24
ENDBRANCH  21  23
ENDBRANCH  19  21
ENDBRANCH   1  19
TORSDOF 7
ENDMDL
MODEL 7
REMARK VINA RESULT:      -6.2      5.247      9.716
REMARK  Name = 
REMARK  8 active torsions:
REMARK  status: ('A' for Active; 'I' for Inactive)
REMARK    1  A    between atoms: C_1  and  O_2
REMARK    2  A    between atoms: O_2  and  C_3
REMARK    3  A    between atoms: C_3  and  C_4
REMARK    4  A    between atoms: C_4  and  C_5
REMARK    5  A    between atoms: C_5  and  N_6
REMARK    6  A    between atoms: N_6  and  C_7
REMARK    7  A    between atoms: C_7  and  N_9
REMARK    8  A    between atoms: C_15  and  C_16
REMARK                            x       y       z     vdW  Elec       q    Type
REMARK                         _______ _______ _______ _____ _____    ______ ____
ROOT
ATOM      1  N   UNL     1       0.887  12.099  20.003  0.00  0.00    +0.000 N 
ATOM      2  C   UNL     1       0.932  11.118  21.103  0.00  0.00    +0.000 C 
ATOM      3  C   UNL     1       0.435   9.736  20.651  0.00  0.00    +0.000 C 
ATOM      4  N   UNL     1       1.200   9.304  19.484  0.00  0.00    +0.000 N 
ATOM      5  C   UNL     1       1.805   8.088  19.376  0.00  0.00    +0.000 A 
ATOM      6  N   UNL     1       2.521   7.720  18.332  0.00  0.00    +0.000 NA
ATOM      7  C   UNL     1       3.051   6.451  18.496  0.00  0.00    +0.000 A 
ATOM      8  C   UNL     1       2.738   5.847  19.694  0.00  0.00    +0.000 A 
ATOM      9  S   UNL     1       1.741   6.873  20.616  0.00  0.00    +0.000 S 
ATOM     10  C   UNL     1       1.134  10.216  18.336  0.00  0.00    +0.000 C 
ATOM     11  C   UNL     1       1.533  11.647  18.753  0.00  0.00    +0.000 C 
ENDROOT
BRANCH   7  12
ATOM     12  C   UNL     1       3.919   5.845  17.488  0.00  0.00    +0.000 A 
ATOM     13  C   UNL     1       3.969   4.449  17.378  0.00  0.00    +0.000 A 
ATOM     14  C   UNL     1       4.761   3.842  16.391  0.00  0.00    +0.000 A 
ATOM     15  C   UNL     1       5.508   4.630  15.523  0.00  0.00    +0.000 A 
ATOM     16 CL   UNL     1       6.468   3.891  14.306  0.00  0.00    +0.000 Cl
ATOM     17  C   UNL     1       5.483   6.018  15.636  0.00  0.00    +0.000 A 
ATOM     18  C   UNL     1       4.690   6.625  16.614  0.00  0.00    +0.000 A 
ENDBRANCH   7  12
BRANCH   1  19
ATOM     19  C   UNL     1       0.384  13.382  20.195  0.00  0.00    +0.000 C 
ATOM     20  S   UNL     1      -1.138  13.710  20.808  0.00  0.00    +0.000 S 
BRANCH  19  21
ATOM     21  N   UNL     1       1.310  14.350  19.867  0.00  0.00    +0.000 N 
ATOM     22  H   UNL     1       2.262  14.006  19.901  0.00  0.00    +0.000 HD
BRANCH  21  23
ATOM     23  C   UNL     1       1.093  15.516  19.026  0.00  0.00    +0.000 C 
BRANCH  23  24
ATOM     24  C   UNL     1       2.411  16.236  18.768  0.00  0.00    +0.000 C 
BRANCH  24  25
ATOM     25  C   UNL     1       3.198  15.536  17.671  0.00  0.00    +0.000 C 
BRANCH  25  27
ATOM     26  C   UNL     1       5.345  14.616  17.929  0.00  0.00    +0.000 C 
ATOM     27  O   UNL     1       3.967  14.486  18.256  0.00  0.00    +0.000 OA
ENDBRANCH  25  27
ENDBRANCH  24  25
ENDBRANCH  23  24
ENDBRANCH  21  23
ENDBRANCH  19  21
ENDBRANCH   1  19
TORSDOF 7
ENDMDL
MODEL 8
REMARK VINA RESULT:      -6.2      5.448     10.334
REMARK  Name = 
REMARK  8 active torsions:
REMARK  status: ('A' for Active; 'I' for Inactive)
REMARK    1  A    between atoms: C_1  and  O_2
REMARK    2  A    between atoms: O_2  and  C_3
REMARK    3  A    between atoms: C_3  and  C_4
REMARK    4  A    between atoms: C_4  and  C_5
REMARK    5  A    between atoms: C_5  and  N_6
REMARK    6  A    between atoms: N_6  and  C_7
REMARK    7  A    between atoms: C_7  and  N_9
REMARK    8  A    between atoms: C_15  and  C_16
REMARK                            x       y       z     vdW  Elec       q    Type
REMARK                         _______ _______ _______ _____ _____    ______ ____
ROOT
ATOM      1  N   UNL     1       0.708  11.927  20.048  0.00  0.00    +0.000 N 
ATOM      2  C   UNL     1       0.852  10.963  21.153  0.00  0.00    +0.000 C 
ATOM      3  C   UNL     1       0.411   9.551  20.736  0.00  0.00    +0.000 C 
ATOM      4  N   UNL     1       1.149   9.147  19.541  0.00  0.00    +0.000 N 
ATOM      5  C   UNL     1       1.814   7.964  19.418  0.00  0.00    +0.000 A 
ATOM      6  N   UNL     1       2.504   7.624  18.348  0.00  0.00    +0.000 NA
ATOM      7  C   UNL     1       3.108   6.386  18.500  0.00  0.00    +0.000 A 
ATOM      8  C   UNL     1       2.878   5.780  19.716  0.00  0.00    +0.000 A 
ATOM      9  S   UNL     1       1.866   6.761  20.671  0.00  0.00    +0.000 S 
ATOM     10  C   UNL     1       0.987  10.042  18.388  0.00  0.00    +0.000 C 
ATOM     11  C   UNL     1       1.324  11.496  18.776  0.00  0.00    +0.000 C 
ENDROOT
BRANCH   7  12
ATOM     12  C   UNL     1       3.964   5.817  17.463  0.00  0.00    +0.000 A 
ATOM     13  C   UNL     1       4.042   4.424  17.327  0.00  0.00    +0.000 A 
ATOM     14  C   UNL     1       4.823   3.851  16.312  0.00  0.00    +0.000 A 
ATOM     15  C   UNL     1       5.532   4.669  15.440  0.00  0.00    +0.000 A 
ATOM     16 CL   UNL     1       6.478   3.972  14.188  0.00  0.00    +0.000 Cl
ATOM     17  C   UNL     1       5.479   6.054  15.577  0.00  0.00    +0.000 A 
ATOM     18  C   UNL     1       4.697   6.627  16.583  0.00  0.00    +0.000 A 
ENDBRANCH   7  12
BRANCH   1  19
ATOM     19  C   UNL     1       0.145  13.184  20.249  0.00  0.00    +0.000 C 
ATOM     20  S   UNL     1       0.907  14.623  19.866  0.00  0.00    +0.000 S 
BRANCH  19  21
ATOM     21  N   UNL     1      -1.135  13.097  20.754  0.00  0.00    +0.000 N 
ATOM     22  H   UNL     1      -1.358  13.857  21.384  0.00  0.00    +0.000 HD
BRANCH  21  23
ATOM     23  C   UNL     1      -2.274  12.439  20.134  0.00  0.00    +0.000 C 
BRANCH  23  24
ATOM     24  C   UNL     1      -3.565  13.167  20.493  0.00  0.00    +0.000 C 
BRANCH  24  25
ATOM     25  C   UNL     1      -3.992  12.831  21.913  0.00  0.00    +0.000 C 
BRANCH  25  27
ATOM     26  C   UNL     1      -6.201  12.923  22.712  0.00  0.00    +0.000 C 
ATOM     27  O   UNL     1      -5.285  12.229  21.873  0.00  0.00    +0.000 OA
ENDBRANCH  25  27
ENDBRANCH  24  25
ENDBRANCH  23  24
ENDBRANCH  21  23
ENDBRANCH  19  21
ENDBRANCH   1  19
TORSDOF 7
ENDMDL
MODEL 9
REMARK VINA RESULT:      -6.2      4.435      5.811
REMARK  Name = 
REMARK  8 active torsions:
REMARK  status: ('A' for Active; 'I' for Inactive)
REMARK    1  A    between atoms: C_1  and  O_2
REMARK    2  A    between atoms: O_2  and  C_3
REMARK    3  A    between atoms: C_3  and  C_4
REMARK    4  A    between atoms: C_4  and  C_5
REMARK    5  A    between atoms: C_5  and  N_6
REMARK    6  A    between atoms: N_6  and  C_7
REMARK    7  A    between atoms: C_7  and  N_9
REMARK    8  A    between atoms: C_15  and  C_16
REMARK                            x       y       z     vdW  Elec       q    Type
REMARK                         _______ _______ _______ _____ _____    ______ ____
ROOT
ATOM      1  N   UNL     1       4.193   5.779  18.753  0.00  0.00    +0.000 N 
ATOM      2  C   UNL     1       4.527   7.030  18.049  0.00  0.00    +0.000 C 
ATOM      3  C   UNL     1       3.275   7.707  17.469  0.00  0.00    +0.000 C 
ATOM      4  N   UNL     1       2.297   7.909  18.535  0.00  0.00    +0.000 N 
ATOM      5  C   UNL     1       1.679   9.096  18.789  0.00  0.00    +0.000 A 
ATOM      6  N   UNL     1       0.822   9.276  19.775  0.00  0.00    +0.000 NA
ATOM      7  C   UNL     1       0.372  10.585  19.830  0.00  0.00    +0.000 A 
ATOM      8  C   UNL     1       0.907  11.418  18.871  0.00  0.00    +0.000 A 
ATOM      9  S   UNL     1       1.967  10.542  17.869  0.00  0.00    +0.000 S 
ATOM     10  C   UNL     1       1.880   6.682  19.225  0.00  0.00    +0.000 C 
ATOM     11  C   UNL     1       3.108   5.908  19.748  0.00  0.00    +0.000 C 
ENDROOT
BRANCH   7  12
ATOM     12  C   UNL     1      -0.552  11.036  20.867  0.00  0.00    +0.000 A 
ATOM     13  C   UNL     1      -0.462  10.485  22.153  0.00  0.00    +0.000 A 
ATOM     14  C   UNL     1      -1.308  10.931  23.178  0.00  0.00    +0.000 A 
ATOM     15  C   UNL     1      -2.251  11.919  22.917  0.00  0.00    +0.000 A 
ATOM     16 CL   UNL     1      -3.280  12.477  24.173  0.00  0.00    +0.000 Cl
ATOM     17  C   UNL     1      -2.365  12.460  21.639  0.00  0.00    +0.000 A 
ATOM     18  C   UNL     1      -1.518  12.022  20.617  0.00  0.00    +0.000 A 
ENDBRANCH   7  12
BRANCH   1  19
ATOM     19  C   UNL     1       4.939   4.619  18.566  0.00  0.00    +0.000 C 
ATOM     20  S   UNL     1       6.517   4.600  18.010  0.00  0.00    +0.000 S 
BRANCH  19  21
ATOM     21  N   UNL     1       4.238   3.493  18.944  0.00  0.00    +0.000 N 
ATOM     22  H   UNL     1       3.971   3.509  19.920  0.00  0.00    +0.000 HD
BRANCH  21  23
ATOM     23  C   UNL     1       3.434   2.638  18.086  0.00  0.00    +0.000 C 
BRANCH  23  24
ATOM     24  C   UNL     1       2.431   1.847  18.918  0.00  0.00    +0.000 C 
BRANCH  24  25
ATOM     25  C   UNL     1       1.071   2.524  18.904  0.00  0.00    +0.000 C 
BRANCH  25  27
ATOM     26  C   UNL     1       1.388   2.716  21.226  0.00  0.00    +0.000 C 
ATOM     27  O   UNL     1       0.975   3.384  20.039  0.00  0.00    +0.000 OA
ENDBRANCH  25  27
ENDBRANCH  24  25
ENDBRANCH  23  24
ENDBRANCH  21  23
ENDBRANCH  19  21
ENDBRANCH   1  19
TORSDOF 7
ENDMDL
