MODEL 1
REMARK VINA RESULT:      -5.9      0.000      0.000
REMARK  Name = 
REMARK  9 active torsions:
REMARK  status: ('A' for Active; 'I' for Inactive)
REMARK    1  A    between atoms: C_1  and  N_2
REMARK    2  A    between atoms: N_2  and  C_3
REMARK    3  A    between atoms: N_2  and  C_6
REMARK    4  A    between atoms: N_2  and  C_9
REMARK    5  A    between atoms: C_3  and  C_4
REMARK    6  A    between atoms: C_6  and  C_7
REMARK    7  A    between atoms: C_9  and  C_10
REMARK    8  A    between atoms: C_13  and  S_14
REMARK    9  A    between atoms: S_14  and  C_15
REMARK                            x       y       z     vdW  Elec       q    Type
REMARK                         _______ _______ _______ _____ _____    ______ ____
ROOT
ATOM      1  C   UNL     1       4.565   3.715  17.149  0.00  0.00    +0.000 A 
ATOM      2  C   UNL     1       4.846   3.904  18.512  0.00  0.00    +0.000 A 
ATOM      3  C   UNL     1       3.822   3.903  19.463  0.00  0.00    +0.000 A 
ATOM      4  C   UNL     1       2.499   3.729  19.053  0.00  0.00    +0.000 A 
ATOM      5  C   UNL     1       2.194   3.554  17.701  0.00  0.00    +0.000 A 
ATOM      6  C   UNL     1       3.223   3.567  16.755  0.00  0.00    +0.000 A 
ENDROOT
BRANCH   4   7
ATOM      7  S   UNL     1       1.200   3.644  20.251  0.00  0.00    +0.000 S 
ATOM      8  C   UNL     1       1.959   2.772  21.606  0.00  0.00    +0.000 C 
ATOM      9  O   UNL     1       0.906   4.996  20.707  0.00  0.00    +0.000 OA
ATOM     10  O   UNL     1       0.154   2.785  19.715  0.00  0.00    +0.000 OA
ENDBRANCH   4   7
BRANCH   1  11
ATOM     11  C   UNL     1       5.674   3.679  16.117  0.00  0.00    +0.000 C 
BRANCH  11  13
ATOM     12  C   UNL     1       5.217   6.129  15.625  0.00  0.00    +0.000 C 
ATOM     13  N   UNL     1       6.283   5.024  15.640  0.00  0.00    +0.000 N 
BRANCH  13  14
ATOM     14  C   UNL     1       6.820   4.827  14.169  0.00  0.00    +0.000 C 
BRANCH  14  15
ATOM     15  C   UNL     1       6.165   3.748  13.291  0.00  0.00    +0.000 C 
ATOM     16 CL   UNL     1       6.981   3.457  11.730  0.00  0.00    +0.000 Cl
ENDBRANCH  14  15
ENDBRANCH  13  14
BRANCH  13  17
ATOM     17  C   UNL     1       7.438   5.450  16.588  0.00  0.00    +0.000 C 
BRANCH  17  18
ATOM     18  C   UNL     1       7.189   6.727  17.398  0.00  0.00    +0.000 C 
ATOM     19 CL   UNL     1       8.078   6.650  18.941  0.00  0.00    +0.000 Cl
ENDBRANCH  17  18
ENDBRANCH  13  17
ENDBRANCH  11  13
ENDBRANCH   1  11
TORSDOF 7
ENDMDL
MODEL 2
REMARK VINA RESULT:      -5.9      4.406      5.504
REMARK  Name = 
REMARK  9 active torsions:
REMARK  status: ('A' for Active; 'I' for Inactive)
REMARK    1  A    between atoms: C_1  and  N_2
REMARK    2  A    between atoms: N_2  and  C_3
REMARK    3  A    between atoms: N_2  and  C_6
REMARK    4  A    between atoms: N_2  and  C_9
REMARK    5  A    between atoms: C_3  and  C_4
REMARK    6  A    between atoms: C_6  and  C_7
REMARK    7  A    between atoms: C_9  and  C_10
REMARK    8  A    between atoms: C_13  and  S_14
REMARK    9  A    between atoms: S_14  and  C_15
REMARK                            x       y       z     vdW  Elec       q    Type
REMARK                         _______ _______ _______ _____ _____    ______ ____
ROOT
ATOM      1  C   UNL     1       3.192   6.278  19.012  0.00  0.00    +0.000 A 
ATOM      2  C   UNL     1       2.399   6.681  20.099  0.00  0.00    +0.000 A 
ATOM      3  C   UNL     1       1.666   7.870  20.051  0.00  0.00    +0.000 A 
ATOM      4  C   UNL     1       1.736   8.679  18.916  0.00  0.00    +0.000 A 
ATOM      5  C   UNL     1       2.530   8.306  17.828  0.00  0.00    +0.000 A 
ATOM      6  C   UNL     1       3.267   7.120  17.888  0.00  0.00    +0.000 A 
ENDROOT
BRANCH   4   7
ATOM      7  S   UNL     1       0.753  10.146  18.807  0.00  0.00    +0.000 S 
ATOM      8  C   UNL     1       0.034  10.271  20.431  0.00  0.00    +0.000 C 
ATOM      9  O   UNL     1       1.644  11.285  18.631  0.00  0.00    +0.000 OA
ATOM     10  O   UNL     1      -0.333   9.887  17.872  0.00  0.00    +0.000 OA
ENDBRANCH   4   7
BRANCH   1  11
ATOM     11  C   UNL     1       3.959   4.972  19.042  0.00  0.00    +0.000 C 
BRANCH  11  13
ATOM     12  C   UNL     1       3.780   2.441  18.908  0.00  0.00    +0.000 C 
ATOM     13  N   UNL     1       3.401   3.769  18.237  0.00  0.00    +0.000 N 
BRANCH  13  14
ATOM     14  C   UNL     1       4.043   3.802  16.795  0.00  0.00    +0.000 C 
BRANCH  14  15
ATOM     15  C   UNL     1       5.448   4.408  16.635  0.00  0.00    +0.000 C 
ATOM     16 CL   UNL     1       5.560   5.730  15.440  0.00  0.00    +0.000 Cl
ENDBRANCH  14  15
ENDBRANCH  13  14
BRANCH  13  17
ATOM     17  C   UNL     1       1.853   3.865  18.144  0.00  0.00    +0.000 C 
BRANCH  17  18
ATOM     18  C   UNL     1       1.077   2.859  19.001  0.00  0.00    +0.000 C 
ATOM     19 CL   UNL     1       0.894   3.487  20.658  0.00  0.00    +0.000 Cl
ENDBRANCH  17  18
ENDBRANCH  13  17
ENDBRANCH  11  13
ENDBRANCH   1  11
TORSDOF 7
ENDMDL
MODEL 3
REMARK VINA RESULT:      -5.8      4.366      5.658
REMARK  Name = 
REMARK  9 active torsions:
REMARK  status: ('A' for Active; 'I' for Inactive)
REMARK    1  A    between atoms: C_1  and  N_2
REMARK    2  A    between atoms: N_2  and  C_3
REMARK    3  A    between atoms: N_2  and  C_6
REMARK    4  A    between atoms: N_2  and  C_9
REMARK    5  A    between atoms: C_3  and  C_4
REMARK    6  A    between atoms: C_6  and  C_7
REMARK    7  A    between atoms: C_9  and  C_10
REMARK    8  A    between atoms: C_13  and  S_14
REMARK    9  A    between atoms: S_14  and  C_15
REMARK                            x       y       z     vdW  Elec       q    Type
REMARK                         _______ _______ _______ _____ _____    ______ ____
ROOT
ATOM      1  C   UNL     1       3.157   6.445  18.948  0.00  0.00    +0.000 A 
ATOM      2  C   UNL     1       3.106   7.304  17.836  0.00  0.00    +0.000 A 
ATOM      3  C   UNL     1       2.334   8.468  17.865  0.00  0.00    +0.000 A 
ATOM      4  C   UNL     1       1.590   8.777  19.004  0.00  0.00    +0.000 A 
ATOM      5  C   UNL     1       1.614   7.931  20.115  0.00  0.00    +0.000 A 
ATOM      6  C   UNL     1       2.380   6.762  20.076  0.00  0.00    +0.000 A 
ENDROOT
BRANCH   4   7
ATOM      7  S   UNL     1       0.673  10.288  19.085  0.00  0.00    +0.000 S 
ATOM      8  C   UNL     1       1.831  11.495  18.474  0.00  0.00    +0.000 C 
ATOM      9  O   UNL     1      -0.426  10.210  18.131  0.00  0.00    +0.000 OA
ATOM     10  O   UNL     1       0.433  10.589  20.489  0.00  0.00    +0.000 OA
ENDBRANCH   4   7
BRANCH   1  11
ATOM     11  C   UNL     1       4.020   5.200  18.938  0.00  0.00    +0.000 C 
BRANCH  11  13
ATOM     12  C   UNL     1       3.860   2.665  18.947  0.00  0.00    +0.000 C 
ATOM     13  N   UNL     1       3.500   3.948  18.185  0.00  0.00    +0.000 N 
BRANCH  13  14
ATOM     14  C   UNL     1       4.195   3.900  16.768  0.00  0.00    +0.000 C 
BRANCH  14  15
ATOM     15  C   UNL     1       5.479   4.720  16.557  0.00  0.00    +0.000 C 
ATOM     16 CL   UNL     1       5.341   6.027  15.349  0.00  0.00    +0.000 Cl
ENDBRANCH  14  15
ENDBRANCH  13  14
BRANCH  13  17
ATOM     17  C   UNL     1       1.955   4.026  18.029  0.00  0.00    +0.000 C 
BRANCH  17  18
ATOM     18  C   UNL     1       1.158   3.000  18.844  0.00  0.00    +0.000 C 
ATOM     19 CL   UNL     1       0.846   3.635  20.479  0.00  0.00    +0.000 Cl
ENDBRANCH  17  18
ENDBRANCH  13  17
ENDBRANCH  11  13
ENDBRANCH   1  11
TORSDOF 7
ENDMDL
MODEL 4
REMARK VINA RESULT:      -5.8      4.601      5.995
REMARK  Name = 
REMARK  9 active torsions:
REMARK  status: ('A' for Active; 'I' for Inactive)
REMARK    1  A    between atoms: C_1  and  N_2
REMARK    2  A    between atoms: N_2  and  C_3
REMARK    3  A    between atoms: N_2  and  C_6
REMARK    4  A    between atoms: N_2  and  C_9
REMARK    5  A    between atoms: C_3  and  C_4
REMARK    6  A    between atoms: C_6  and  C_7
REMARK    7  A    between atoms: C_9  and  C_10
REMARK    8  A    between atoms: C_13  and  S_14
REMARK    9  A    between atoms: S_14  and  C_15
REMARK                            x       y       z     vdW  Elec       q    Type
REMARK                         _______ _______ _______ _____ _____    ______ ____
ROOT
ATOM      1  C   UNL     1       2.976   6.560  18.973  0.00  0.00    +0.000 A 
ATOM      2  C   UNL     1       3.006   7.423  17.865  0.00  0.00    +0.000 A 
ATOM      3  C   UNL     1       2.318   8.640  17.885  0.00  0.00    +0.000 A 
ATOM      4  C   UNL     1       1.577   8.996  19.012  0.00  0.00    +0.000 A 
ATOM      5  C   UNL     1       1.521   8.147  20.119  0.00  0.00    +0.000 A 
ATOM      6  C   UNL     1       2.203   6.927  20.089  0.00  0.00    +0.000 A 
ENDROOT
BRANCH   4   7
ATOM      7  S   UNL     1       0.767  10.568  19.084  0.00  0.00    +0.000 S 
ATOM      8  C   UNL     1       0.548  10.828  20.832  0.00  0.00    +0.000 C 
ATOM      9  O   UNL     1       1.693  11.584  18.601  0.00  0.00    +0.000 OA
ATOM     10  O   UNL     1      -0.557  10.415  18.499  0.00  0.00    +0.000 OA
ENDBRANCH   4   7
BRANCH   1  11
ATOM     11  C   UNL     1       3.749   5.257  18.972  0.00  0.00    +0.000 C 
BRANCH  11  13
ATOM     12  C   UNL     1       1.725   4.341  17.738  0.00  0.00    +0.000 C 
ATOM     13  N   UNL     1       3.165   4.052  18.188  0.00  0.00    +0.000 N 
BRANCH  13  14
ATOM     14  C   UNL     1       3.147   2.800  19.149  0.00  0.00    +0.000 C 
BRANCH  14  15
ATOM     15  C   UNL     1       1.792   2.316  19.693  0.00  0.00    +0.000 C 
ATOM     16 CL   UNL     1       1.231   3.163  21.160  0.00  0.00    +0.000 Cl
ENDBRANCH  14  15
ENDBRANCH  13  14
BRANCH  13  17
ATOM     17  C   UNL     1       4.037   3.762  16.934  0.00  0.00    +0.000 C 
BRANCH  17  18
ATOM     18  C   UNL     1       5.366   4.522  16.866  0.00  0.00    +0.000 C 
ATOM     19 CL   UNL     1       5.269   5.805  15.633  0.00  0.00    +0.000 Cl
ENDBRANCH  17  18
ENDBRANCH  13  17
ENDBRANCH  11  13
ENDBRANCH   1  11
TORSDOF 7
ENDMDL
MODEL 5
REMARK VINA RESULT:      -5.8      4.458      5.700
REMARK  Name = 
REMARK  9 active torsions:
REMARK  status: ('A' for Active; 'I' for Inactive)
REMARK    1  A    between atoms: C_1  and  N_2
REMARK    2  A    between atoms: N_2  and  C_3
REMARK    3  A    between atoms: N_2  and  C_6
REMARK    4  A    between atoms: N_2  and  C_9
REMARK    5  A    between atoms: C_3  and  C_4
REMARK    6  A    between atoms: C_6  and  C_7
REMARK    7  A    between atoms: C_9  and  C_10
REMARK    8  A    between atoms: C_13  and  S_14
REMARK    9  A    between atoms: S_14  and  C_15
REMARK                            x       y       z     vdW  Elec       q    Type
REMARK                         _______ _______ _______ _____ _____    ______ ____
ROOT
ATOM      1  C   UNL     1       3.088   6.454  19.022  0.00  0.00    +0.000 A 
ATOM      2  C   UNL     1       3.033   7.308  17.908  0.00  0.00    +0.000 A 
ATOM      3  C   UNL     1       2.280   8.485  17.944  0.00  0.00    +0.000 A 
ATOM      4  C   UNL     1       1.561   8.811  19.095  0.00  0.00    +0.000 A 
ATOM      5  C   UNL     1       1.589   7.969  20.209  0.00  0.00    +0.000 A 
ATOM      6  C   UNL     1       2.336   6.788  20.162  0.00  0.00    +0.000 A 
ENDROOT
BRANCH   4   7
ATOM      7  S   UNL     1       0.669  10.337  19.185  0.00  0.00    +0.000 S 
ATOM      8  C   UNL     1      -0.636  10.111  17.995  0.00  0.00    +0.000 C 
ATOM      9  O   UNL     1       0.053  10.432  20.501  0.00  0.00    +0.000 OA
ATOM     10  O   UNL     1       1.537  11.391  18.680  0.00  0.00    +0.000 OA
ENDBRANCH   4   7
BRANCH   1  11
ATOM     11  C   UNL     1       3.931   5.195  19.004  0.00  0.00    +0.000 C 
BRANCH  11  13
ATOM     12  C   UNL     1       3.826   2.657  18.935  0.00  0.00    +0.000 C 
ATOM     13  N   UNL     1       3.390   3.956  18.242  0.00  0.00    +0.000 N 
BRANCH  13  14
ATOM     14  C   UNL     1       3.993   3.972  16.784  0.00  0.00    +0.000 C 
BRANCH  14  15
ATOM     15  C   UNL     1       5.366   4.632  16.569  0.00  0.00    +0.000 C 
ATOM     16 CL   UNL     1       5.354   6.043  15.476  0.00  0.00    +0.000 Cl
ENDBRANCH  14  15
ENDBRANCH  13  14
BRANCH  13  17
ATOM     17  C   UNL     1       1.837   4.003  18.188  0.00  0.00    +0.000 C 
BRANCH  17  18
ATOM     18  C   UNL     1       1.116   2.926  19.006  0.00  0.00    +0.000 C 
ATOM     19 CL   UNL     1       0.927   3.471  20.693  0.00  0.00    +0.000 Cl
ENDBRANCH  17  18
ENDBRANCH  13  17
ENDBRANCH  11  13
ENDBRANCH   1  11
TORSDOF 7
ENDMDL
MODEL 6
REMARK VINA RESULT:      -5.8      4.543      6.071
REMARK  Name = 
REMARK  9 active torsions:
REMARK  status: ('A' for Active; 'I' for Inactive)
REMARK    1  A    between atoms: C_1  and  N_2
REMARK    2  A    between atoms: N_2  and  C_3
REMARK    3  A    between atoms: N_2  and  C_6
REMARK    4  A    between atoms: N_2  and  C_9
REMARK    5  A    between atoms: C_3  and  C_4
REMARK    6  A    between atoms: C_6  and  C_7
REMARK    7  A    between atoms: C_9  and  C_10
REMARK    8  A    between atoms: C_13  and  S_14
REMARK    9  A    between atoms: S_14  and  C_15
REMARK                            x       y       z     vdW  Elec       q    Type
REMARK                         _______ _______ _______ _____ _____    ______ ____
ROOT
ATOM      1  C   UNL     1       2.909   6.437  19.068  0.00  0.00    +0.000 A 
ATOM      2  C   UNL     1       2.975   7.304  17.965  0.00  0.00    +0.000 A 
ATOM      3  C   UNL     1       2.322   8.540  17.985  0.00  0.00    +0.000 A 
ATOM      4  C   UNL     1       1.581   8.912  19.107  0.00  0.00    +0.000 A 
ATOM      5  C   UNL     1       1.490   8.060  20.210  0.00  0.00    +0.000 A 
ATOM      6  C   UNL     1       2.137   6.821  20.179  0.00  0.00    +0.000 A 
ENDROOT
BRANCH   4   7
ATOM      7  S   UNL     1       0.816  10.506  19.180  0.00  0.00    +0.000 S 
ATOM      8  C   UNL     1      -0.631  10.306  18.161  0.00  0.00    +0.000 C 
ATOM      9  O   UNL     1       0.364  10.738  20.545  0.00  0.00    +0.000 OA
ATOM     10  O   UNL     1       1.692  11.453  18.505  0.00  0.00    +0.000 OA
ENDBRANCH   4   7
BRANCH   1  11
ATOM     11  C   UNL     1       3.645   5.113  19.068  0.00  0.00    +0.000 C 
BRANCH  11  13
ATOM     12  C   UNL     1       1.620   4.246  17.801  0.00  0.00    +0.000 C 
ATOM     13  N   UNL     1       3.065   3.947  18.224  0.00  0.00    +0.000 N 
BRANCH  13  14
ATOM     14  C   UNL     1       3.065   2.645  19.117  0.00  0.00    +0.000 C 
BRANCH  14  15
ATOM     15  C   UNL     1       2.963   2.806  20.643  0.00  0.00    +0.000 C 
ATOM     16 CL   UNL     1       1.300   2.992  21.265  0.00  0.00    +0.000 Cl
ENDBRANCH  14  15
ENDBRANCH  13  14
BRANCH  13  17
ATOM     17  C   UNL     1       3.931   3.732  16.951  0.00  0.00    +0.000 C 
BRANCH  17  18
ATOM     18  C   UNL     1       5.264   4.489  16.925  0.00  0.00    +0.000 C 
ATOM     19 CL   UNL     1       5.293   5.618  15.547  0.00  0.00    +0.000 Cl
ENDBRANCH  17  18
ENDBRANCH  13  17
ENDBRANCH  11  13
ENDBRANCH   1  11
TORSDOF 7
ENDMDL
MODEL 7
REMARK VINA RESULT:      -5.8      4.440      5.639
REMARK  Name = 
REMARK  9 active torsions:
REMARK  status: ('A' for Active; 'I' for Inactive)
REMARK    1  A    between atoms: C_1  and  N_2
REMARK    2  A    between atoms: N_2  and  C_3
REMARK    3  A    between atoms: N_2  and  C_6
REMARK    4  A    between atoms: N_2  and  C_9
REMARK    5  A    between atoms: C_3  and  C_4
REMARK    6  A    between atoms: C_6  and  C_7
REMARK    7  A    between atoms: C_9  and  C_10
REMARK    8  A    between atoms: C_13  and  S_14
REMARK    9  A    between atoms: S_14  and  C_15
REMARK                            x       y       z     vdW  Elec       q    Type
REMARK                         _______ _______ _______ _____ _____    ______ ____
ROOT
ATOM      1  C   UNL     1       3.120   6.400  19.007  0.00  0.00    +0.000 A 
ATOM      2  C   UNL     1       3.173   7.232  17.877  0.00  0.00    +0.000 A 
ATOM      3  C   UNL     1       2.469   8.440  17.842  0.00  0.00    +0.000 A 
ATOM      4  C   UNL     1       1.690   8.817  18.936  0.00  0.00    +0.000 A 
ATOM      5  C   UNL     1       1.611   7.998  20.065  0.00  0.00    +0.000 A 
ATOM      6  C   UNL     1       2.309   6.787  20.089  0.00  0.00    +0.000 A 
ENDROOT
BRANCH   4   7
ATOM      7  S   UNL     1       0.859  10.379  18.940  0.00  0.00    +0.000 S 
ATOM      8  C   UNL     1       0.554  10.669  20.671  0.00  0.00    +0.000 C 
ATOM      9  O   UNL     1       1.794  11.398  18.482  0.00  0.00    +0.000 OA
ATOM     10  O   UNL     1      -0.434  10.199  18.297  0.00  0.00    +0.000 OA
ENDBRANCH   4   7
BRANCH   1  11
ATOM     11  C   UNL     1       3.909   5.108  19.066  0.00  0.00    +0.000 C 
BRANCH  11  13
ATOM     12  C   UNL     1       3.845   2.579  18.820  0.00  0.00    +0.000 C 
ATOM     13  N   UNL     1       3.444   3.918  18.184  0.00  0.00    +0.000 N 
BRANCH  13  14
ATOM     14  C   UNL     1       4.155   4.039  16.780  0.00  0.00    +0.000 C 
BRANCH  14  15
ATOM     15  C   UNL     1       5.671   4.298  16.749  0.00  0.00    +0.000 C 
ATOM     16 CL   UNL     1       6.137   5.949  16.256  0.00  0.00    +0.000 Cl
ENDBRANCH  14  15
ENDBRANCH  13  14
BRANCH  13  17
ATOM     17  C   UNL     1       1.899   3.955  18.015  0.00  0.00    +0.000 C 
BRANCH  17  18
ATOM     18  C   UNL     1       1.122   2.924  18.841  0.00  0.00    +0.000 C 
ATOM     19 CL   UNL     1       0.870   3.537  20.496  0.00  0.00    +0.000 Cl
ENDBRANCH  17  18
ENDBRANCH  13  17
ENDBRANCH  11  13
ENDBRANCH   1  11
TORSDOF 7
ENDMDL
MODEL 8
REMARK VINA RESULT:      -5.8      0.678      1.293
REMARK  Name = 
REMARK  9 active torsions:
REMARK  status: ('A' for Active; 'I' for Inactive)
REMARK    1  A    between atoms: C_1  and  N_2
REMARK    2  A    between atoms: N_2  and  C_3
REMARK    3  A    between atoms: N_2  and  C_6
REMARK    4  A    between atoms: N_2  and  C_9
REMARK    5  A    between atoms: C_3  and  C_4
REMARK    6  A    between atoms: C_6  and  C_7
REMARK    7  A    between atoms: C_9  and  C_10
REMARK    8  A    between atoms: C_13  and  S_14
REMARK    9  A    between atoms: S_14  and  C_15
REMARK                            x       y       z     vdW  Elec       q    Type
REMARK                         _______ _______ _______ _____ _____    ______ ____
ROOT
ATOM      1  C   UNL     1       4.799   3.935  17.549  0.00  0.00    +0.000 A 
ATOM      2  C   UNL     1       3.573   3.593  16.954  0.00  0.00    +0.000 A 
ATOM      3  C   UNL     1       2.431   3.387  17.733  0.00  0.00    +0.000 A 
ATOM      4  C   UNL     1       2.510   3.506  19.121  0.00  0.00    +0.000 A 
ATOM      5  C   UNL     1       3.721   3.832  19.735  0.00  0.00    +0.000 A 
ATOM      6  C   UNL     1       4.862   4.026  18.951  0.00  0.00    +0.000 A 
ENDROOT
BRANCH   4   7
ATOM      7  S   UNL     1       1.056   3.329  20.114  0.00  0.00    +0.000 S 
ATOM      8  C   UNL     1       1.665   2.523  21.580  0.00  0.00    +0.000 C 
ATOM      9  O   UNL     1       0.598   4.657  20.499  0.00  0.00    +0.000 OA
ATOM     10  O   UNL     1       0.168   2.391  19.441  0.00  0.00    +0.000 OA
ENDBRANCH   4   7
BRANCH   1  11
ATOM     11  C   UNL     1       6.032   4.195  16.709  0.00  0.00    +0.000 C 
BRANCH  11  13
ATOM     12  C   UNL     1       4.978   6.478  16.344  0.00  0.00    +0.000 C 
ATOM     13  N   UNL     1       6.157   5.562  15.984  0.00  0.00    +0.000 N 
BRANCH  13  14
ATOM     14  C   UNL     1       6.130   5.299  14.428  0.00  0.00    +0.000 C 
BRANCH  14  15
ATOM     15  C   UNL     1       6.292   3.852  13.930  0.00  0.00    +0.000 C 
ATOM     16 CL   UNL     1       5.438   3.487  12.405  0.00  0.00    +0.000 Cl
ENDBRANCH  14  15
ENDBRANCH  13  14
BRANCH  13  17
ATOM     17  C   UNL     1       7.483   6.260  16.394  0.00  0.00    +0.000 C 
BRANCH  17  18
ATOM     18  C   UNL     1       7.410   7.126  17.657  0.00  0.00    +0.000 C 
ATOM     19 CL   UNL     1       8.009   6.205  19.060  0.00  0.00    +0.000 Cl
ENDBRANCH  17  18
ENDBRANCH  13  17
ENDBRANCH  11  13
ENDBRANCH   1  11
TORSDOF 7
ENDMDL
MODEL 9
REMARK VINA RESULT:      -5.8      3.424      4.890
REMARK  Name = 
REMARK  9 active torsions:
REMARK  status: ('A' for Active; 'I' for Inactive)
REMARK    1  A    between atoms: C_1  and  N_2
REMARK    2  A    between atoms: N_2  and  C_3
REMARK    3  A    between atoms: N_2  and  C_6
REMARK    4  A    between atoms: N_2  and  C_9
REMARK    5  A    between atoms: C_3  and  C_4
REMARK    6  A    between atoms: C_6  and  C_7
REMARK    7  A    between atoms: C_9  and  C_10
REMARK    8  A    between atoms: C_13  and  S_14
REMARK    9  A    between atoms: S_14  and  C_15
REMARK                            x       y       z     vdW  Elec       q    Type
REMARK                         _______ _______ _______ _____ _____    ______ ____
ROOT
ATOM      1  C   UNL     1       2.953   6.253  18.429  0.00  0.00    +0.000 A 
ATOM      2  C   UNL     1       2.645   7.582  18.093  0.00  0.00    +0.000 A 
ATOM      3  C   UNL     1       1.982   8.416  18.998  0.00  0.00    +0.000 A 
ATOM      4  C   UNL     1       1.606   7.919  20.246  0.00  0.00    +0.000 A 
ATOM      5  C   UNL     1       1.889   6.597  20.597  0.00  0.00    +0.000 A 
ATOM      6  C   UNL     1       2.543   5.766  19.683  0.00  0.00    +0.000 A 
ENDROOT
BRANCH   4   7
ATOM      7  S   UNL     1       0.839   8.984  21.434  0.00  0.00    +0.000 S 
ATOM      8  C   UNL     1       0.575  10.487  20.515  0.00  0.00    +0.000 C 
ATOM      9  O   UNL     1      -0.469   8.436  21.766  0.00  0.00    +0.000 OA
ATOM     10  O   UNL     1       1.820   9.277  22.469  0.00  0.00    +0.000 OA
ENDBRANCH   4   7
BRANCH   1  11
ATOM     11  C   UNL     1       3.703   5.355  17.467  0.00  0.00    +0.000 C 
BRANCH  11  13
ATOM     12  C   UNL     1       5.629   4.613  18.948  0.00  0.00    +0.000 C 
ATOM     13  N   UNL     1       5.245   5.250  17.605  0.00  0.00    +0.000 N 
BRANCH  13  14
ATOM     14  C   UNL     1       5.845   6.709  17.553  0.00  0.00    +0.000 C 
BRANCH  14  15
ATOM     15  C   UNL     1       7.362   6.881  17.739  0.00  0.00    +0.000 C 
ATOM     16 CL   UNL     1       7.934   8.571  17.689  0.00  0.00    +0.000 Cl
ENDBRANCH  14  15
ENDBRANCH  13  14
BRANCH  13  17
ATOM     17  C   UNL     1       5.824   4.384  16.452  0.00  0.00    +0.000 C 
BRANCH  17  18
ATOM     18  C   UNL     1       5.583   4.924  15.037  0.00  0.00    +0.000 C 
ATOM     19 CL   UNL     1       6.183   3.757  13.832  0.00  0.00    +0.000 Cl
ENDBRANCH  17  18
ENDBRANCH  13  17
ENDBRANCH  11  13
ENDBRANCH   1  11
TORSDOF 7
ENDMDL
