MODEL 1
REMARK VINA RESULT:      -6.0      0.000      0.000
REMARK  Name = 
REMARK  13 active torsions:
REMARK  status: ('A' for Active; 'I' for Inactive)
REMARK    1  A    between atoms: C_1  and  O_2
REMARK    2  A    between atoms: O_2  and  C_3
REMARK    3  A    between atoms: C_3  and  C_5
REMARK    4  A    between atoms: C_10  and  O_11
REMARK    5  A    between atoms: O_11  and  C_12
REMARK    6  A    between atoms: C_23  and  N_24
REMARK    7  A    between atoms: N_24  and  C_25
REMARK    8  A    between atoms: C_26  and  O_28
REMARK    9  A    between atoms: O_28  and  C_29
REMARK   10  A    between atoms: C_29  and  C_30
REMARK   11  A    between atoms: C_29  and  C_31
REMARK   12  A    between atoms: C_29  and  C_32
REMARK   13  A    between atoms: N_35  and  C_36
REMARK                            x       y       z     vdW  Elec       q    Type
REMARK                         _______ _______ _______ _____ _____    ______ ____
ROOT
ATOM      1  C   UNL     1       9.900  15.774  19.711  0.00  0.00    +0.000 C 
ATOM      2  C   UNL     1      11.118  14.655  19.991  0.00  0.00    +0.000 C 
ATOM      3  C   UNL     1      11.047  13.112  19.776  0.00  0.00    +0.000 A 
ATOM      4  C   UNL     1      11.211  12.467  18.546  0.00  0.00    +0.000 A 
ATOM      5  C   UNL     1      10.681  11.171  18.341  0.00  0.00    +0.000 A 
ATOM      6  C   UNL     1       9.841  10.606  19.306  0.00  0.00    +0.000 A 
ATOM      7  C   UNL     1       9.849  11.180  20.574  0.00  0.00    +0.000 A 
ATOM      8  C   UNL     1      10.736  12.252  20.830  0.00  0.00    +0.000 A 
ATOM      9  O   UNL     1       8.802  10.893  21.488  0.00  0.00    +0.000 OA
ATOM     10  C   UNL     1       8.288  12.000  22.167  0.00  0.00    +0.000 A 
ATOM     11  C   UNL     1       8.450  13.246  21.626  0.00  0.00    +0.000 A 
ATOM     12  C   UNL     1       8.917  14.162  22.511  0.00  0.00    +0.000 A 
ATOM     13  C   UNL     1       8.132  14.341  23.611  0.00  0.00    +0.000 A 
ATOM     14  C   UNL     1       7.548  13.192  24.134  0.00  0.00    +0.000 A 
ATOM     15  C   UNL     1       7.734  11.969  23.447  0.00  0.00    +0.000 A 
ATOM     16  C   UNL     1       7.831  15.799  23.850  0.00  0.00    +0.000 C 
ATOM     17  C   UNL     1       7.049  16.414  22.612  0.00  0.00    +0.000 C 
ATOM     18  C   UNL     1       7.704  16.181  21.112  0.00  0.00    +0.000 C 
ATOM     19  O   UNL     1       7.011  15.804  20.164  0.00  0.00    +0.000 OA
ATOM     20  N   UNL     1       9.086  16.525  20.862  0.00  0.00    +0.000 N 
ATOM     21  C   UNL     1       9.212  17.980  20.878  0.00  0.00    +0.000 C 
ENDROOT
BRANCH  17  22
ATOM     22  N   UNL     1       5.584  16.047  22.745  0.00  0.00    +0.000 N 
ATOM     23  C   UNL     1       5.101  14.769  22.229  0.00  0.00    +0.000 C 
ATOM     24  C   UNL     1       4.800  16.802  23.616  0.00  0.00    +0.000 C 
ATOM     25  O   UNL     1       5.218  17.832  24.130  0.00  0.00    +0.000 OA
BRANCH  24  26
ATOM     26  O   UNL     1       3.559  16.294  23.866  0.00  0.00    +0.000 OA
BRANCH  26  27
ATOM     27  C   UNL     1       2.364  16.959  23.354  0.00  0.00    +0.000 C 
ATOM     28  C   UNL     1       1.625  17.694  24.481  0.00  0.00    +0.000 C 
ATOM     29  C   UNL     1       2.836  18.021  22.335  0.00  0.00    +0.000 C 
ATOM     30  C   UNL     1       1.445  15.986  22.602  0.00  0.00    +0.000 C 
ENDBRANCH  26  27
ENDBRANCH  24  26
ENDBRANCH  17  22
BRANCH   1  31
ATOM     31  C   UNL     1       9.092  15.471  18.451  0.00  0.00    +0.000 C 
ATOM     32  O   UNL     1       8.602  14.391  18.160  0.00  0.00    +0.000 OA
BRANCH  31  34
ATOM     33  C   UNL     1      10.332  16.985  17.193  0.00  0.00    +0.000 C 
ATOM     34  O   UNL     1       9.043  16.581  17.649  0.00  0.00    +0.000 OA
ENDBRANCH  31  34
ENDBRANCH   1  31
BRANCH   6  35
ATOM     35  O   UNL     1       9.009   9.544  19.079  0.00  0.00    +0.000 OA
ATOM     36  C   UNL     1       8.233   9.565  17.873  0.00  0.00    +0.000 C 
ENDBRANCH   6  35
TORSDOF 6
ENDMDL
MODEL 2
REMARK VINA RESULT:      -6.0      6.967      9.417
REMARK  Name = 
REMARK  13 active torsions:
REMARK  status: ('A' for Active; 'I' for Inactive)
REMARK    1  A    between atoms: C_1  and  O_2
REMARK    2  A    between atoms: O_2  and  C_3
REMARK    3  A    between atoms: C_3  and  C_5
REMARK    4  A    between atoms: C_10  and  O_11
REMARK    5  A    between atoms: O_11  and  C_12
REMARK    6  A    between atoms: C_23  and  N_24
REMARK    7  A    between atoms: N_24  and  C_25
REMARK    8  A    between atoms: C_26  and  O_28
REMARK    9  A    between atoms: O_28  and  C_29
REMARK   10  A    between atoms: C_29  and  C_30
REMARK   11  A    between atoms: C_29  and  C_31
REMARK   12  A    between atoms: C_29  and  C_32
REMARK   13  A    between atoms: N_35  and  C_36
REMARK                            x       y       z     vdW  Elec       q    Type
REMARK                         _______ _______ _______ _____ _____    ______ ____
ROOT
ATOM      1  C   UNL     1       0.572  16.369  20.484  0.00  0.00    +0.000 C 
ATOM      2  C   UNL     1       1.903  15.393  20.784  0.00  0.00    +0.000 C 
ATOM      3  C   UNL     1       2.208  13.997  20.159  0.00  0.00    +0.000 A 
ATOM      4  C   UNL     1       2.776  13.791  18.897  0.00  0.00    +0.000 A 
ATOM      5  C   UNL     1       2.590  12.564  18.219  0.00  0.00    +0.000 A 
ATOM      6  C   UNL     1       1.692  11.620  18.729  0.00  0.00    +0.000 A 
ATOM      7  C   UNL     1       1.293  11.770  20.054  0.00  0.00    +0.000 A 
ATOM      8  C   UNL     1       1.855  12.820  20.819  0.00  0.00    +0.000 A 
ATOM      9  O   UNL     1       0.152  11.076  20.533  0.00  0.00    +0.000 OA
ATOM     10  C   UNL     1      -0.723  11.840  21.311  0.00  0.00    +0.000 A 
ATOM     11  C   UNL     1      -0.708  13.202  21.184  0.00  0.00    +0.000 A 
ATOM     12  C   UNL     1      -0.655  13.853  22.373  0.00  0.00    +0.000 A 
ATOM     13  C   UNL     1      -1.688  13.576  23.218  0.00  0.00    +0.000 A 
ATOM     14  C   UNL     1      -2.120  12.255  23.237  0.00  0.00    +0.000 A 
ATOM     15  C   UNL     1      -1.532  11.341  22.331  0.00  0.00    +0.000 A 
ATOM     16  C   UNL     1      -2.334  14.835  23.741  0.00  0.00    +0.000 C 
ATOM     17  C   UNL     1      -2.928  15.691  22.542  0.00  0.00    +0.000 C 
ATOM     18  C   UNL     1      -1.918  16.024  21.277  0.00  0.00    +0.000 C 
ATOM     19  O   UNL     1      -2.284  15.869  20.109  0.00  0.00    +0.000 OA
ATOM     20  N   UNL     1      -0.620  16.611  21.519  0.00  0.00    +0.000 N 
ATOM     21  C   UNL     1      -0.808  17.993  21.952  0.00  0.00    +0.000 C 
ENDROOT
BRANCH  17  22
ATOM     22  N   UNL     1      -4.275  15.108  22.162  0.00  0.00    +0.000 N 
ATOM     23  C   UNL     1      -4.365  14.111  21.100  0.00  0.00    +0.000 C 
ATOM     24  C   UNL     1      -5.344  15.315  23.034  0.00  0.00    +0.000 C 
ATOM     25  O   UNL     1      -5.260  16.082  23.985  0.00  0.00    +0.000 OA
BRANCH  24  26
ATOM     26  O   UNL     1      -6.463  14.586  22.760  0.00  0.00    +0.000 OA
BRANCH  26  27
ATOM     27  C   UNL     1      -6.827  13.438  23.587  0.00  0.00    +0.000 C 
ATOM     28  C   UNL     1      -7.914  13.821  24.601  0.00  0.00    +0.000 C 
ATOM     29  C   UNL     1      -7.424  12.370  22.644  0.00  0.00    +0.000 C 
ATOM     30  C   UNL     1      -5.601  12.811  24.266  0.00  0.00    +0.000 C 
ENDBRANCH  26  27
ENDBRANCH  24  26
ENDBRANCH  17  22
BRANCH   1  31
ATOM     31  C   UNL     1       0.152  16.364  19.015  0.00  0.00    +0.000 C 
ATOM     32  O   UNL     1      -0.181  15.382  18.371  0.00  0.00    +0.000 OA
BRANCH  31  34
ATOM     33  C   UNL     1      -0.946  18.062  17.865  0.00  0.00    +0.000 C 
ATOM     34  O   UNL     1       0.257  17.628  18.494  0.00  0.00    +0.000 OA
ENDBRANCH  31  34
ENDBRANCH   1  31
BRANCH   6  35
ATOM     35  O   UNL     1       1.175  10.580  18.009  0.00  0.00    +0.000 OA
ATOM     36  C   UNL     1       1.996   9.413  17.857  0.00  0.00    +0.000 C 
ENDBRANCH   6  35
TORSDOF 6
ENDMDL
MODEL 3
REMARK VINA RESULT:      -5.9      3.988      9.011
REMARK  Name = 
REMARK  13 active torsions:
REMARK  status: ('A' for Active; 'I' for Inactive)
REMARK    1  A    between atoms: C_1  and  O_2
REMARK    2  A    between atoms: O_2  and  C_3
REMARK    3  A    between atoms: C_3  and  C_5
REMARK    4  A    between atoms: C_10  and  O_11
REMARK    5  A    between atoms: O_11  and  C_12
REMARK    6  A    between atoms: C_23  and  N_24
REMARK    7  A    between atoms: N_24  and  C_25
REMARK    8  A    between atoms: C_26  and  O_28
REMARK    9  A    between atoms: O_28  and  C_29
REMARK   10  A    between atoms: C_29  and  C_30
REMARK   11  A    between atoms: C_29  and  C_31
REMARK   12  A    between atoms: C_29  and  C_32
REMARK   13  A    between atoms: N_35  and  C_36
REMARK                            x       y       z     vdW  Elec       q    Type
REMARK                         _______ _______ _______ _____ _____    ______ ____
ROOT
ATOM      1  C   UNL     1      -0.379  16.555  21.348  0.00  0.00    +0.000 C 
ATOM      2  C   UNL     1      -1.553  15.657  20.556  0.00  0.00    +0.000 C 
ATOM      3  C   UNL     1      -1.800  14.121  20.667  0.00  0.00    +0.000 A 
ATOM      4  C   UNL     1      -2.509  13.497  21.698  0.00  0.00    +0.000 A 
ATOM      5  C   UNL     1      -2.295  12.128  21.989  0.00  0.00    +0.000 A 
ATOM      6  C   UNL     1      -1.248  11.444  21.363  0.00  0.00    +0.000 A 
ATOM      7  C   UNL     1      -0.691  12.027  20.229  0.00  0.00    +0.000 A 
ATOM      8  C   UNL     1      -1.246  13.235  19.743  0.00  0.00    +0.000 A 
ATOM      9  O   UNL     1       0.567  11.582  19.748  0.00  0.00    +0.000 OA
ATOM     10  C   UNL     1       1.459  12.597  19.391  0.00  0.00    +0.000 A 
ATOM     11  C   UNL     1       1.292  13.846  19.925  0.00  0.00    +0.000 A 
ATOM     12  C   UNL     1       1.335  14.837  19.000  0.00  0.00    +0.000 A 
ATOM     13  C   UNL     1       2.494  14.897  18.285  0.00  0.00    +0.000 A 
ATOM     14  C   UNL     1       3.054  13.674  17.932  0.00  0.00    +0.000 A 
ATOM     15  C   UNL     1       2.443  12.490  18.409  0.00  0.00    +0.000 A 
ATOM     16  C   UNL     1       3.077  16.288  18.283  0.00  0.00    +0.000 C 
ATOM     17  C   UNL     1       3.417  16.750  19.764  0.00  0.00    +0.000 C 
ATOM     18  C   UNL     1       2.218  16.610  20.894  0.00  0.00    +0.000 C 
ATOM     19  O   UNL     1       2.437  16.112  22.000  0.00  0.00    +0.000 OA
ATOM     20  N   UNL     1       0.912  17.175  20.640  0.00  0.00    +0.000 N 
ATOM     21  C   UNL     1       1.019  18.631  20.686  0.00  0.00    +0.000 C 
ENDROOT
BRANCH  17  22
ATOM     22  N   UNL     1       4.751  16.146  20.156  0.00  0.00    +0.000 N 
ATOM     23  C   UNL     1       4.797  14.858  20.842  0.00  0.00    +0.000 C 
ATOM     24  C   UNL     1       5.903  16.689  19.588  0.00  0.00    +0.000 C 
ATOM     25  O   UNL     1       5.872  17.724  18.933  0.00  0.00    +0.000 OA
BRANCH  24  26
ATOM     26  O   UNL     1       7.045  15.973  19.797  0.00  0.00    +0.000 OA
BRANCH  26  27
ATOM     27  C   UNL     1       7.694  15.268  18.695  0.00  0.00    +0.000 C 
ATOM     28  C   UNL     1       8.745  16.162  18.022  0.00  0.00    +0.000 C 
ATOM     29  C   UNL     1       8.433  14.056  19.304  0.00  0.00    +0.000 C 
ATOM     30  C   UNL     1       6.675  14.719  17.686  0.00  0.00    +0.000 C 
ENDBRANCH  26  27
ENDBRANCH  24  26
ENDBRANCH  17  22
BRANCH   1  31
ATOM     31  C   UNL     1      -0.161  16.106  22.792  0.00  0.00    +0.000 C 
ATOM     32  O   UNL     1       0.103  14.971  23.155  0.00  0.00    +0.000 OA
BRANCH  31  34
ATOM     33  C   UNL     1       0.558  17.170  24.732  0.00  0.00    +0.000 C 
ATOM     34  O   UNL     1      -0.364  17.160  23.645  0.00  0.00    +0.000 OA
ENDBRANCH  31  34
ENDBRANCH   1  31
BRANCH   6  35
ATOM     35  O   UNL     1      -0.731  10.257  21.804  0.00  0.00    +0.000 OA
ATOM     36  C   UNL     1      -0.606  10.080  23.221  0.00  0.00    +0.000 C 
ENDBRANCH   6  35
TORSDOF 6
ENDMDL
MODEL 4
REMARK VINA RESULT:      -5.6      0.891      1.414
REMARK  Name = 
REMARK  13 active torsions:
REMARK  status: ('A' for Active; 'I' for Inactive)
REMARK    1  A    between atoms: C_1  and  O_2
REMARK    2  A    between atoms: O_2  and  C_3
REMARK    3  A    between atoms: C_3  and  C_5
REMARK    4  A    between atoms: C_10  and  O_11
REMARK    5  A    between atoms: O_11  and  C_12
REMARK    6  A    between atoms: C_23  and  N_24
REMARK    7  A    between atoms: N_24  and  C_25
REMARK    8  A    between atoms: C_26  and  O_28
REMARK    9  A    between atoms: O_28  and  C_29
REMARK   10  A    between atoms: C_29  and  C_30
REMARK   11  A    between atoms: C_29  and  C_31
REMARK   12  A    between atoms: C_29  and  C_32
REMARK   13  A    between atoms: N_35  and  C_36
REMARK                            x       y       z     vdW  Elec       q    Type
REMARK                         _______ _______ _______ _____ _____    ______ ____
ROOT
ATOM      1  C   UNL     1       9.332  16.001  19.827  0.00  0.00    +0.000 C 
ATOM      2  C   UNL     1      10.648  15.045  20.234  0.00  0.00    +0.000 C 
ATOM      3  C   UNL     1      10.783  13.501  20.057  0.00  0.00    +0.000 A 
ATOM      4  C   UNL     1      11.124  12.859  18.863  0.00  0.00    +0.000 A 
ATOM      5  C   UNL     1      10.774  11.504  18.652  0.00  0.00    +0.000 A 
ATOM      6  C   UNL     1       9.931  10.858  19.562  0.00  0.00    +0.000 A 
ATOM      7  C   UNL     1       9.764  11.451  20.810  0.00  0.00    +0.000 A 
ATOM      8  C   UNL     1      10.491  12.628  21.106  0.00  0.00    +0.000 A 
ATOM      9  O   UNL     1       8.688  11.054  21.645  0.00  0.00    +0.000 OA
ATOM     10  C   UNL     1       7.989  12.102  22.249  0.00  0.00    +0.000 A 
ATOM     11  C   UNL     1       8.043  13.348  21.688  0.00  0.00    +0.000 A 
ATOM     12  C   UNL     1       8.321  14.330  22.582  0.00  0.00    +0.000 A 
ATOM     13  C   UNL     1       7.432  14.431  23.610  0.00  0.00    +0.000 A 
ATOM     14  C   UNL     1       6.949  13.229  24.116  0.00  0.00    +0.000 A 
ATOM     15  C   UNL     1       7.338  12.026  23.480  0.00  0.00    +0.000 A 
ATOM     16  C   UNL     1       6.938  15.846  23.783  0.00  0.00    +0.000 C 
ATOM     17  C   UNL     1       6.193  16.338  22.470  0.00  0.00    +0.000 C 
ATOM     18  C   UNL     1       6.994  16.160  21.035  0.00  0.00    +0.000 C 
ATOM     19  O   UNL     1       6.433  15.685  20.044  0.00  0.00    +0.000 OA
ATOM     20  N   UNL     1       8.340  16.667  20.887  0.00  0.00    +0.000 N 
ATOM     21  C   UNL     1       8.288  18.126  20.872  0.00  0.00    +0.000 C 
ENDROOT
BRANCH  17  22
ATOM     22  N   UNL     1       4.777  15.797  22.494  0.00  0.00    +0.000 N 
ATOM     23  C   UNL     1       4.518  14.411  22.113  0.00  0.00    +0.000 C 
ATOM     24  C   UNL     1       3.807  16.541  23.163  0.00  0.00    +0.000 C 
ATOM     25  O   UNL     1       4.032  17.675  23.570  0.00  0.00    +0.000 OA
BRANCH  24  26
ATOM     26  O   UNL     1       2.614  15.907  23.347  0.00  0.00    +0.000 OA
BRANCH  26  27
ATOM     27  C   UNL     1       1.422  16.334  22.619  0.00  0.00    +0.000 C 
ATOM     28  C   UNL     1       1.805  17.002  21.292  0.00  0.00    +0.000 C 
ATOM     29  C   UNL     1       0.613  15.061  22.285  0.00  0.00    +0.000 C 
ATOM     30  C   UNL     1       0.519  17.234  23.476  0.00  0.00    +0.000 C 
ENDBRANCH  26  27
ENDBRANCH  24  26
ENDBRANCH  17  22
BRANCH   1  31
ATOM     31  C   UNL     1       8.674  15.578  18.514  0.00  0.00    +0.000 C 
ATOM     32  O   UNL     1       8.386  16.320  17.589  0.00  0.00    +0.000 OA
BRANCH  31  34
ATOM     33  C   UNL     1       7.507  13.841  17.499  0.00  0.00    +0.000 C 
ATOM     34  O   UNL     1       8.394  14.236  18.543  0.00  0.00    +0.000 OA
ENDBRANCH  31  34
ENDBRANCH   1  31
BRANCH   6  35
ATOM     35  O   UNL     1       9.256   9.699  19.298  0.00  0.00    +0.000 OA
ATOM     36  C   UNL     1       8.401   9.684  18.146  0.00  0.00    +0.000 C 
ENDBRANCH   6  35
TORSDOF 6
ENDMDL
MODEL 5
REMARK VINA RESULT:      -5.5      1.567      2.090
REMARK  Name = 
REMARK  13 active torsions:
REMARK  status: ('A' for Active; 'I' for Inactive)
REMARK    1  A    between atoms: C_1  and  O_2
REMARK    2  A    between atoms: O_2  and  C_3
REMARK    3  A    between atoms: C_3  and  C_5
REMARK    4  A    between atoms: C_10  and  O_11
REMARK    5  A    between atoms: O_11  and  C_12
REMARK    6  A    between atoms: C_23  and  N_24
REMARK    7  A    between atoms: N_24  and  C_25
REMARK    8  A    between atoms: C_26  and  O_28
REMARK    9  A    between atoms: O_28  and  C_29
REMARK   10  A    between atoms: C_29  and  C_30
REMARK   11  A    between atoms: C_29  and  C_31
REMARK   12  A    between atoms: C_29  and  C_32
REMARK   13  A    between atoms: N_35  and  C_36
REMARK                            x       y       z     vdW  Elec       q    Type
REMARK                         _______ _______ _______ _____ _____    ______ ____
ROOT
ATOM      1  C   UNL     1      11.350  15.520  19.358  0.00  0.00    +0.000 C 
ATOM      2  C   UNL     1      12.086  14.023  19.536  0.00  0.00    +0.000 C 
ATOM      3  C   UNL     1      11.449  12.622  19.279  0.00  0.00    +0.000 A 
ATOM      4  C   UNL     1      11.316  12.022  18.023  0.00  0.00    +0.000 A 
ATOM      5  C   UNL     1      10.342  11.018  17.808  0.00  0.00    +0.000 A 
ATOM      6  C   UNL     1       9.394  10.750  18.802  0.00  0.00    +0.000 A 
ATOM      7  C   UNL     1       9.662  11.220  20.084  0.00  0.00    +0.000 A 
ATOM      8  C   UNL     1      10.889  11.885  20.322  0.00  0.00    +0.000 A 
ATOM      9  O   UNL     1       8.621  11.289  21.045  0.00  0.00    +0.000 OA
ATOM     10  C   UNL     1       8.574  12.473  21.785  0.00  0.00    +0.000 A 
ATOM     11  C   UNL     1       9.157  13.600  21.273  0.00  0.00    +0.000 A 
ATOM     12  C   UNL     1       9.961  14.240  22.158  0.00  0.00    +0.000 A 
ATOM     13  C   UNL     1       9.340  14.639  23.304  0.00  0.00    +0.000 A 
ATOM     14  C   UNL     1       8.399  13.757  23.824  0.00  0.00    +0.000 A 
ATOM     15  C   UNL     1       8.099  12.584  23.091  0.00  0.00    +0.000 A 
ATOM     16  C   UNL     1       9.602  16.094  23.603  0.00  0.00    +0.000 C 
ATOM     17  C   UNL     1       9.048  17.009  22.429  0.00  0.00    +0.000 C 
ATOM     18  C   UNL     1       9.511  16.627  20.890  0.00  0.00    +0.000 C 
ATOM     19  O   UNL     1       8.691  16.573  19.970  0.00  0.00    +0.000 OA
ATOM     20  N   UNL     1      10.912  16.459  20.574  0.00  0.00    +0.000 N 
ATOM     21  C   UNL     1      11.560  17.766  20.626  0.00  0.00    +0.000 C 
ENDROOT
BRANCH  17  22
ATOM     22  N   UNL     1       7.556  17.192  22.632  0.00  0.00    +0.000 N 
ATOM     23  C   UNL     1       6.612  16.335  21.922  0.00  0.00    +0.000 C 
ATOM     24  C   UNL     1       7.136  17.969  23.710  0.00  0.00    +0.000 C 
ATOM     25  O   UNL     1       7.926  18.629  24.375  0.00  0.00    +0.000 OA
BRANCH  24  26
ATOM     26  O   UNL     1       5.800  17.917  23.976  0.00  0.00    +0.000 OA
BRANCH  26  27
ATOM     27  C   UNL     1       5.310  17.331  25.221  0.00  0.00    +0.000 C 
ATOM     28  C   UNL     1       3.832  16.935  25.092  0.00  0.00    +0.000 C 
ATOM     29  C   UNL     1       6.120  16.038  25.465  0.00  0.00    +0.000 C 
ATOM     30  C   UNL     1       5.555  18.253  26.424  0.00  0.00    +0.000 C 
ENDBRANCH  26  27
ENDBRANCH  24  26
ENDBRANCH  17  22
BRANCH   1  31
ATOM     31  C   UNL     1      10.436  15.590  18.135  0.00  0.00    +0.000 C 
ATOM     32  O   UNL     1       9.431  14.921  17.955  0.00  0.00    +0.000 OA
BRANCH  31  34
ATOM     33  C   UNL     1      10.247  17.727  17.236  0.00  0.00    +0.000 C 
ATOM     34  O   UNL     1      10.942  16.482  17.225  0.00  0.00    +0.000 OA
ENDBRANCH  31  34
ENDBRANCH   1  31
BRANCH   6  35
ATOM     35  O   UNL     1       8.225  10.074  18.589  0.00  0.00    +0.000 OA
ATOM     36  C   UNL     1       8.297   8.855  17.837  0.00  0.00    +0.000 C 
ENDBRANCH   6  35
TORSDOF 6
ENDMDL
MODEL 6
REMARK VINA RESULT:      -5.3      4.162      8.635
REMARK  Name = 
REMARK  13 active torsions:
REMARK  status: ('A' for Active; 'I' for Inactive)
REMARK    1  A    between atoms: C_1  and  O_2
REMARK    2  A    between atoms: O_2  and  C_3
REMARK    3  A    between atoms: C_3  and  C_5
REMARK    4  A    between atoms: C_10  and  O_11
REMARK    5  A    between atoms: O_11  and  C_12
REMARK    6  A    between atoms: C_23  and  N_24
REMARK    7  A    between atoms: N_24  and  C_25
REMARK    8  A    between atoms: C_26  and  O_28
REMARK    9  A    between atoms: O_28  and  C_29
REMARK   10  A    between atoms: C_29  and  C_30
REMARK   11  A    between atoms: C_29  and  C_31
REMARK   12  A    between atoms: C_29  and  C_32
REMARK   13  A    between atoms: N_35  and  C_36
REMARK                            x       y       z     vdW  Elec       q    Type
REMARK                         _______ _______ _______ _____ _____    ______ ____
ROOT
ATOM      1  C   UNL     1      -0.338  15.820  21.431  0.00  0.00    +0.000 C 
ATOM      2  C   UNL     1      -1.279  15.034  20.287  0.00  0.00    +0.000 C 
ATOM      3  C   UNL     1      -1.263  13.514  19.936  0.00  0.00    +0.000 A 
ATOM      4  C   UNL     1      -1.925  12.518  20.660  0.00  0.00    +0.000 A 
ATOM      5  C   UNL     1      -1.499  11.171  20.582  0.00  0.00    +0.000 A 
ATOM      6  C   UNL     1      -0.307  10.861  19.919  0.00  0.00    +0.000 A 
ATOM      7  C   UNL     1       0.220  11.826  19.066  0.00  0.00    +0.000 A 
ATOM      8  C   UNL     1      -0.499  13.029  18.874  0.00  0.00    +0.000 A 
ATOM      9  O   UNL     1       1.568  11.730  18.634  0.00  0.00    +0.000 OA
ATOM     10  C   UNL     1       2.293  12.923  18.682  0.00  0.00    +0.000 A 
ATOM     11  C   UNL     1       1.875  13.921  19.519  0.00  0.00    +0.000 A 
ATOM     12  C   UNL     1       1.812  15.136  18.918  0.00  0.00    +0.000 A 
ATOM     13  C   UNL     1       2.991  15.571  18.391  0.00  0.00    +0.000 A 
ATOM     14  C   UNL     1       3.778  14.601  17.780  0.00  0.00    +0.000 A 
ATOM     15  C   UNL     1       3.349  13.254  17.833  0.00  0.00    +0.000 A 
ATOM     16  C   UNL     1       3.322  16.971  18.845  0.00  0.00    +0.000 C 
ATOM     17  C   UNL     1       3.470  17.020  20.426  0.00  0.00    +0.000 C 
ATOM     18  C   UNL     1       2.236  16.382  21.321  0.00  0.00    +0.000 C 
ATOM     19  O   UNL     1       2.458  15.618  22.263  0.00  0.00    +0.000 OA
ATOM     20  N   UNL     1       0.873  16.801  21.082  0.00  0.00    +0.000 N 
ATOM     21  C   UNL     1       0.723  18.178  21.544  0.00  0.00    +0.000 C 
ENDROOT
BRANCH  17  22
ATOM     22  N   UNL     1       4.857  16.529  20.790  0.00  0.00    +0.000 N 
ATOM     23  C   UNL     1       5.062  15.135  21.172  0.00  0.00    +0.000 C 
ATOM     24  C   UNL     1       5.942  17.341  20.462  0.00  0.00    +0.000 C 
ATOM     25  O   UNL     1       5.790  18.486  20.055  0.00  0.00    +0.000 OA
BRANCH  24  26
ATOM     26  O   UNL     1       7.166  16.757  20.605  0.00  0.00    +0.000 OA
BRANCH  26  27
ATOM     27  C   UNL     1       8.037  16.556  19.450  0.00  0.00    +0.000 C 
ATOM     28  C   UNL     1       8.677  17.881  19.013  0.00  0.00    +0.000 C 
ATOM     29  C   UNL     1       9.175  15.612  19.897  0.00  0.00    +0.000 C 
ATOM     30  C   UNL     1       7.301  15.863  18.293  0.00  0.00    +0.000 C 
ENDBRANCH  26  27
ENDBRANCH  24  26
ENDBRANCH  17  22
BRANCH   1  31
ATOM     31  C   UNL     1      -0.150  15.003  22.708  0.00  0.00    +0.000 C 
ATOM     32  O   UNL     1       0.142  13.819  22.762  0.00  0.00    +0.000 OA
BRANCH  31  34
ATOM     33  C   UNL     1      -1.291  15.141  24.730  0.00  0.00    +0.000 C 
ATOM     34  O   UNL     1      -0.415  15.781  23.805  0.00  0.00    +0.000 OA
ENDBRANCH  31  34
ENDBRANCH   1  31
BRANCH   6  35
ATOM     35  O   UNL     1       0.374   9.685  20.069  0.00  0.00    +0.000 OA
ATOM     36  C   UNL     1       0.102   8.913  21.247  0.00  0.00    +0.000 C 
ENDBRANCH   6  35
TORSDOF 6
ENDMDL
MODEL 7
REMARK VINA RESULT:      -5.3      0.915      1.021
REMARK  Name = 
REMARK  13 active torsions:
REMARK  status: ('A' for Active; 'I' for Inactive)
REMARK    1  A    between atoms: C_1  and  O_2
REMARK    2  A    between atoms: O_2  and  C_3
REMARK    3  A    between atoms: C_3  and  C_5
REMARK    4  A    between atoms: C_10  and  O_11
REMARK    5  A    between atoms: O_11  and  C_12
REMARK    6  A    between atoms: C_23  and  N_24
REMARK    7  A    between atoms: N_24  and  C_25
REMARK    8  A    between atoms: C_26  and  O_28
REMARK    9  A    between atoms: O_28  and  C_29
REMARK   10  A    between atoms: C_29  and  C_30
REMARK   11  A    between atoms: C_29  and  C_31
REMARK   12  A    between atoms: C_29  and  C_32
REMARK   13  A    between atoms: N_35  and  C_36
REMARK                            x       y       z     vdW  Elec       q    Type
REMARK                         _______ _______ _______ _____ _____    ______ ____
ROOT
ATOM      1  C   UNL     1       9.802  15.990  19.662  0.00  0.00    +0.000 C 
ATOM      2  C   UNL     1      11.041  14.950  20.104  0.00  0.00    +0.000 C 
ATOM      3  C   UNL     1      11.070  13.398  19.950  0.00  0.00    +0.000 A 
ATOM      4  C   UNL     1      11.384  12.716  18.770  0.00  0.00    +0.000 A 
ATOM      5  C   UNL     1      10.942  11.386  18.572  0.00  0.00    +0.000 A 
ATOM      6  C   UNL     1      10.042  10.814  19.477  0.00  0.00    +0.000 A 
ATOM      7  C   UNL     1       9.897  11.435  20.713  0.00  0.00    +0.000 A 
ATOM      8  C   UNL     1      10.701  12.563  21.006  0.00  0.00    +0.000 A 
ATOM      9  O   UNL     1       8.783  11.128  21.536  0.00  0.00    +0.000 OA
ATOM     10  C   UNL     1       8.150  12.231  22.114  0.00  0.00    +0.000 A 
ATOM     11  C   UNL     1       8.301  13.462  21.537  0.00  0.00    +0.000 A 
ATOM     12  C   UNL     1       8.634  14.435  22.422  0.00  0.00    +0.000 A 
ATOM     13  C   UNL     1       7.738  14.613  23.434  0.00  0.00    +0.000 A 
ATOM     14  C   UNL     1       7.164  13.456  23.948  0.00  0.00    +0.000 A 
ATOM     15  C   UNL     1       7.477  12.219  23.335  0.00  0.00    +0.000 A 
ATOM     16  C   UNL     1       7.342  16.061  23.580  0.00  0.00    +0.000 C 
ATOM     17  C   UNL     1       6.654  16.585  22.247  0.00  0.00    +0.000 C 
ATOM     18  C   UNL     1       7.462  16.330  20.828  0.00  0.00    +0.000 C 
ATOM     19  O   UNL     1       6.885  15.881  19.836  0.00  0.00    +0.000 OA
ATOM     20  N   UNL     1       8.843  16.739  20.696  0.00  0.00    +0.000 N 
ATOM     21  C   UNL     1       8.894  18.198  20.660  0.00  0.00    +0.000 C 
ENDROOT
BRANCH  17  22
ATOM     22  N   UNL     1       5.203  16.145  22.256  0.00  0.00    +0.000 N 
ATOM     23  C   UNL     1       4.774  15.060  23.134  0.00  0.00    +0.000 C 
ATOM     24  C   UNL     1       4.265  16.981  21.651  0.00  0.00    +0.000 C 
ATOM     25  O   UNL     1       4.603  17.950  20.982  0.00  0.00    +0.000 OA
BRANCH  24  26
ATOM     26  O   UNL     1       2.962  16.652  21.882  0.00  0.00    +0.000 OA
BRANCH  26  27
ATOM     27  C   UNL     1       2.055  17.602  22.522  0.00  0.00    +0.000 C 
ATOM     28  C   UNL     1       0.942  16.865  23.279  0.00  0.00    +0.000 C 
ATOM     29  C   UNL     1       2.883  18.392  23.559  0.00  0.00    +0.000 C 
ATOM     30  C   UNL     1       1.493  18.620  21.519  0.00  0.00    +0.000 C 
ENDBRANCH  26  27
ENDBRANCH  24  26
ENDBRANCH  17  22
BRANCH   1  31
ATOM     31  C   UNL     1       9.137  15.595  18.344  0.00  0.00    +0.000 C 
ATOM     32  O   UNL     1       8.708  14.487  18.065  0.00  0.00    +0.000 OA
BRANCH  31  34
ATOM     33  C   UNL     1      10.448  17.189  17.272  0.00  0.00    +0.000 C 
ATOM     34  O   UNL     1       9.141  16.660  17.481  0.00  0.00    +0.000 OA
ENDBRANCH  31  34
ENDBRANCH   1  31
BRANCH   6  35
ATOM     35  O   UNL     1       9.291   9.701  19.217  0.00  0.00    +0.000 OA
ATOM     36  C   UNL     1       8.424   9.745  18.075  0.00  0.00    +0.000 C 
ENDBRANCH   6  35
TORSDOF 6
ENDMDL
MODEL 8
REMARK VINA RESULT:      -5.2      3.981      8.838
REMARK  Name = 
REMARK  13 active torsions:
REMARK  status: ('A' for Active; 'I' for Inactive)
REMARK    1  A    between atoms: C_1  and  O_2
REMARK    2  A    between atoms: O_2  and  C_3
REMARK    3  A    between atoms: C_3  and  C_5
REMARK    4  A    between atoms: C_10  and  O_11
REMARK    5  A    between atoms: O_11  and  C_12
REMARK    6  A    between atoms: C_23  and  N_24
REMARK    7  A    between atoms: N_24  and  C_25
REMARK    8  A    between atoms: C_26  and  O_28
REMARK    9  A    between atoms: O_28  and  C_29
REMARK   10  A    between atoms: C_29  and  C_30
REMARK   11  A    between atoms: C_29  and  C_31
REMARK   12  A    between atoms: C_29  and  C_32
REMARK   13  A    between atoms: N_35  and  C_36
REMARK                            x       y       z     vdW  Elec       q    Type
REMARK                         _______ _______ _______ _____ _____    ______ ____
ROOT
ATOM      1  C   UNL     1      -0.227  16.537  21.234  0.00  0.00    +0.000 C 
ATOM      2  C   UNL     1      -1.406  15.645  20.442  0.00  0.00    +0.000 C 
ATOM      3  C   UNL     1      -1.652  14.108  20.543  0.00  0.00    +0.000 A 
ATOM      4  C   UNL     1      -2.355  13.475  21.574  0.00  0.00    +0.000 A 
ATOM      5  C   UNL     1      -2.139  12.105  21.852  0.00  0.00    +0.000 A 
ATOM      6  C   UNL     1      -1.095  11.425  21.215  0.00  0.00    +0.000 A 
ATOM      7  C   UNL     1      -0.546  12.017  20.082  0.00  0.00    +0.000 A 
ATOM      8  C   UNL     1      -1.104  13.229  19.609  0.00  0.00    +0.000 A 
ATOM      9  O   UNL     1       0.710  11.576  19.590  0.00  0.00    +0.000 OA
ATOM     10  C   UNL     1       1.599  12.594  19.235  0.00  0.00    +0.000 A 
ATOM     11  C   UNL     1       1.435  13.839  19.780  0.00  0.00    +0.000 A 
ATOM     12  C   UNL     1       1.472  14.837  18.862  0.00  0.00    +0.000 A 
ATOM     13  C   UNL     1       2.627  14.903  18.140  0.00  0.00    +0.000 A 
ATOM     14  C   UNL     1       3.185  13.683  17.774  0.00  0.00    +0.000 A 
ATOM     15  C   UNL     1       2.577  12.496  18.246  0.00  0.00    +0.000 A 
ATOM     16  C   UNL     1       3.209  16.294  18.145  0.00  0.00    +0.000 C 
ATOM     17  C   UNL     1       3.558  16.744  19.628  0.00  0.00    +0.000 C 
ATOM     18  C   UNL     1       2.366  16.595  20.764  0.00  0.00    +0.000 C 
ATOM     19  O   UNL     1       2.593  16.089  21.865  0.00  0.00    +0.000 OA
ATOM     20  N   UNL     1       1.059  17.163  20.523  0.00  0.00    +0.000 N 
ATOM     21  C   UNL     1       1.166  18.618  20.579  0.00  0.00    +0.000 C 
ENDROOT
BRANCH  17  22
ATOM     22  N   UNL     1       4.895  16.138  20.007  0.00  0.00    +0.000 N 
ATOM     23  C   UNL     1       4.944  14.867  20.723  0.00  0.00    +0.000 C 
ATOM     24  C   UNL     1       6.040  16.657  19.403  0.00  0.00    +0.000 C 
ATOM     25  O   UNL     1       6.004  17.676  18.724  0.00  0.00    +0.000 OA
BRANCH  24  26
ATOM     26  O   UNL     1       7.179  15.935  19.605  0.00  0.00    +0.000 OA
BRANCH  26  27
ATOM     27  C   UNL     1       8.305  16.509  20.338  0.00  0.00    +0.000 C 
ATOM     28  C   UNL     1       7.812  17.348  21.524  0.00  0.00    +0.000 C 
ATOM     29  C   UNL     1       9.124  15.329  20.908  0.00  0.00    +0.000 C 
ATOM     30  C   UNL     1       9.240  17.307  19.417  0.00  0.00    +0.000 C 
ENDBRANCH  26  27
ENDBRANCH  24  26
ENDBRANCH  17  22
BRANCH   1  31
ATOM     31  C   UNL     1      -0.000  16.077  22.673  0.00  0.00    +0.000 C 
ATOM     32  O   UNL     1       0.311  14.949  23.022  0.00  0.00    +0.000 OA
BRANCH  31  34
ATOM     33  C   UNL     1       0.878  17.452  24.330  0.00  0.00    +0.000 C 
ATOM     34  O   UNL     1      -0.257  17.108  23.540  0.00  0.00    +0.000 OA
ENDBRANCH  31  34
ENDBRANCH   1  31
BRANCH   6  35
ATOM     35  O   UNL     1      -0.576  10.235  21.643  0.00  0.00    +0.000 OA
ATOM     36  C   UNL     1      -0.511  10.017  23.059  0.00  0.00    +0.000 C 
ENDBRANCH   6  35
TORSDOF 6
ENDMDL
MODEL 9
REMARK VINA RESULT:      -5.2      7.785     12.400
REMARK  Name = 
REMARK  13 active torsions:
REMARK  status: ('A' for Active; 'I' for Inactive)
REMARK    1  A    between atoms: C_1  and  O_2
REMARK    2  A    between atoms: O_2  and  C_3
REMARK    3  A    between atoms: C_3  and  C_5
REMARK    4  A    between atoms: C_10  and  O_11
REMARK    5  A    between atoms: O_11  and  C_12
REMARK    6  A    between atoms: C_23  and  N_24
REMARK    7  A    between atoms: N_24  and  C_25
REMARK    8  A    between atoms: C_26  and  O_28
REMARK    9  A    between atoms: O_28  and  C_29
REMARK   10  A    between atoms: C_29  and  C_30
REMARK   11  A    between atoms: C_29  and  C_31
REMARK   12  A    between atoms: C_29  and  C_32
REMARK   13  A    between atoms: N_35  and  C_36
REMARK                            x       y       z     vdW  Elec       q    Type
REMARK                         _______ _______ _______ _____ _____    ______ ____
ROOT
ATOM      1  C   UNL     1      -3.199  10.410  17.883  0.00  0.00    +0.000 C 
ATOM      2  C   UNL     1      -4.646  10.160  18.694  0.00  0.00    +0.000 C 
ATOM      3  C   UNL     1      -5.811  11.180  18.881  0.00  0.00    +0.000 A 
ATOM      4  C   UNL     1      -6.794  11.456  17.926  0.00  0.00    +0.000 A 
ATOM      5  C   UNL     1      -7.503  12.680  17.960  0.00  0.00    +0.000 A 
ATOM      6  C   UNL     1      -7.100  13.689  18.842  0.00  0.00    +0.000 A 
ATOM      7  C   UNL     1      -6.257  13.324  19.887  0.00  0.00    +0.000 A 
ATOM      8  C   UNL     1      -5.906  11.960  20.033  0.00  0.00    +0.000 A 
ATOM      9  O   UNL     1      -5.545  14.319  20.604  0.00  0.00    +0.000 OA
ATOM     10  C   UNL     1      -4.200  14.028  20.847  0.00  0.00    +0.000 A 
ATOM     11  C   UNL     1      -3.561  13.122  20.044  0.00  0.00    +0.000 A 
ATOM     12  C   UNL     1      -2.866  12.185  20.736  0.00  0.00    +0.000 A 
ATOM     13  C   UNL     1      -1.904  12.685  21.561  0.00  0.00    +0.000 A 
ATOM     14  C   UNL     1      -2.228  13.859  22.232  0.00  0.00    +0.000 A 
ATOM     15  C   UNL     1      -3.467  14.479  21.944  0.00  0.00    +0.000 A 
ATOM     16  C   UNL     1      -0.574  12.008  21.341  0.00  0.00    +0.000 C 
ATOM     17  C   UNL     1      -0.076  12.234  19.850  0.00  0.00    +0.000 C 
ATOM     18  C   UNL     1      -1.136  11.869  18.635  0.00  0.00    +0.000 C 
ATOM     19  O   UNL     1      -1.323  12.645  17.695  0.00  0.00    +0.000 OA
ATOM     20  N   UNL     1      -1.781  10.575  18.599  0.00  0.00    +0.000 N 
ATOM     21  C   UNL     1      -0.781   9.567  18.259  0.00  0.00    +0.000 C 
ENDROOT
BRANCH  17  22
ATOM     22  N   UNL     1       0.562  13.606  19.764  0.00  0.00    +0.000 N 
ATOM     23  C   UNL     1      -0.218  14.746  19.290  0.00  0.00    +0.000 C 
ATOM     24  C   UNL     1       1.778  13.802  20.418  0.00  0.00    +0.000 C 
ATOM     25  O   UNL     1       2.406  12.868  20.901  0.00  0.00    +0.000 OA
BRANCH  24  26
ATOM     26  O   UNL     1       2.191  15.099  20.498  0.00  0.00    +0.000 OA
BRANCH  26  27
ATOM     27  C   UNL     1       3.230  15.607  19.606  0.00  0.00    +0.000 C 
ATOM     28  C   UNL     1       2.888  17.023  19.123  0.00  0.00    +0.000 C 
ATOM     29  C   UNL     1       4.533  15.696  20.432  0.00  0.00    +0.000 C 
ATOM     30  C   UNL     1       3.499  14.649  18.436  0.00  0.00    +0.000 C 
ENDBRANCH  26  27
ENDBRANCH  24  26
ENDBRANCH  17  22
BRANCH   1  31
ATOM     31  C   UNL     1      -3.370  11.230  16.605  0.00  0.00    +0.000 C 
ATOM     32  O   UNL     1      -4.185  12.122  16.432  0.00  0.00    +0.000 OA
BRANCH  31  34
ATOM     33  C   UNL     1      -3.172  10.099  14.583  0.00  0.00    +0.000 C 
ATOM     34  O   UNL     1      -2.504  10.780  15.642  0.00  0.00    +0.000 OA
ENDBRANCH  31  34
ENDBRANCH   1  31
BRANCH   6  35
ATOM     35  O   UNL     1      -7.466  15.001  18.731  0.00  0.00    +0.000 OA
ATOM     36  C   UNL     1      -6.870  15.763  17.671  0.00  0.00    +0.000 C 
ENDBRANCH   6  35
TORSDOF 6
ENDMDL
