MODEL 1
REMARK VINA RESULT:      -8.3      0.000      0.000
REMARK  Name = 
REMARK  4 active torsions:
REMARK  status: ('A' for Active; 'I' for Inactive)
REMARK    1  A    between atoms: C_2  and  C_18
REMARK    2  A    between atoms: N_3  and  C_4
REMARK    3  A    between atoms: C_8  and  N_9
REMARK    4  A    between atoms: C_10  and  C_12
REMARK                            x       y       z     vdW  Elec       q    Type
REMARK                         _______ _______ _______ _____ _____    ______ ____
ROOT
ATOM      1  C   UNL     1       5.420   6.159  17.446  0.00  0.00    +0.000 A 
ATOM      2  C   UNL     1       6.473   5.871  18.317  0.00  0.00    +0.000 A 
ATOM      3  C   UNL     1       7.491   4.999  17.940  0.00  0.00    +0.000 A 
ATOM      4  C   UNL     1       7.457   4.390  16.691  0.00  0.00    +0.000 A 
ATOM      5  C   UNL     1       6.404   4.634  15.807  0.00  0.00    +0.000 A 
ATOM      6  C   UNL     1       5.387   5.528  16.188  0.00  0.00    +0.000 A 
ENDROOT
BRANCH   1   9
ATOM      7  O   UNL     1       2.923   5.616  18.907  0.00  0.00    +0.000 OA
ATOM      8  C   UNL     1       3.221   6.720  18.468  0.00  0.00    +0.000 C 
ATOM      9  N   UNL     1       4.380   7.061  17.784  0.00  0.00    +0.000 N 
ATOM     10  H   UNL     1       4.562   8.043  17.628  0.00  0.00    +0.000 HD
BRANCH   8  11
ATOM     11  C   UNL     1       2.283   7.832  18.767  0.00  0.00    +0.000 A 
ATOM     12  C   UNL     1       1.818   8.708  17.780  0.00  0.00    +0.000 A 
ATOM     13  C   UNL     1       0.903   9.708  18.123  0.00  0.00    +0.000 A 
ATOM     14  C   UNL     1       0.454   9.829  19.440  0.00  0.00    +0.000 A 
ATOM     15  C   UNL     1       0.910   8.944  20.414  0.00  0.00    +0.000 A 
ATOM     16 CL   UNL     1       0.348   9.085  22.034  0.00  0.00    +0.000 Cl
ATOM     17  C   UNL     1       1.817   7.943  20.084  0.00  0.00    +0.000 A 
ENDBRANCH   8  11
ENDBRANCH   1   9
BRANCH   5  18
ATOM     18  N   UNL     1       6.352   4.043  14.521  0.00  0.00    +0.000 N 
ATOM     19  C   UNL     1       6.955   4.550  13.379  0.00  0.00    +0.000 C 
ATOM     20  O   UNL     1       7.762   5.474  13.353  0.00  0.00    +0.000 OA
ATOM     21  H   UNL     1       5.918   3.132  14.451  0.00  0.00    +0.000 HD
BRANCH  19  22
ATOM     22  C   UNL     1       6.568   3.809  12.107  0.00  0.00    +0.000 C 
ATOM     23  C   UNL     1       7.462   2.605  11.832  0.00  0.00    +0.000 C 
ATOM     24  C   UNL     1       6.646   1.736  10.885  0.00  0.00    +0.000 C 
ATOM     25  C   UNL     1       5.182   2.024  11.202  0.00  0.00    +0.000 C 
ATOM     26  C   UNL     1       5.179   3.168  12.207  0.00  0.00    +0.000 C 
ENDBRANCH  19  22
ENDBRANCH   5  18
TORSDOF 4
ENDMDL
MODEL 2
REMARK VINA RESULT:      -8.2      4.569      6.902
REMARK  Name = 
REMARK  4 active torsions:
REMARK  status: ('A' for Active; 'I' for Inactive)
REMARK    1  A    between atoms: C_2  and  C_18
REMARK    2  A    between atoms: N_3  and  C_4
REMARK    3  A    between atoms: C_8  and  N_9
REMARK    4  A    between atoms: C_10  and  C_12
REMARK                            x       y       z     vdW  Elec       q    Type
REMARK                         _______ _______ _______ _____ _____    ______ ____
ROOT
ATOM      1  C   UNL     1       6.707   6.546  16.730  0.00  0.00    +0.000 A 
ATOM      2  C   UNL     1       7.254   5.806  15.678  0.00  0.00    +0.000 A 
ATOM      3  C   UNL     1       6.773   4.535  15.377  0.00  0.00    +0.000 A 
ATOM      4  C   UNL     1       5.749   3.981  16.137  0.00  0.00    +0.000 A 
ATOM      5  C   UNL     1       5.200   4.682  17.213  0.00  0.00    +0.000 A 
ATOM      6  C   UNL     1       5.680   5.972  17.502  0.00  0.00    +0.000 A 
ENDROOT
BRANCH   1   9
ATOM      7  O   UNL     1       8.591   7.379  18.833  0.00  0.00    +0.000 OA
ATOM      8  C   UNL     1       8.039   8.165  18.073  0.00  0.00    +0.000 C 
ATOM      9  N   UNL     1       7.153   7.853  17.051  0.00  0.00    +0.000 N 
ATOM     10  H   UNL     1       6.906   8.589  16.403  0.00  0.00    +0.000 HD
BRANCH   8  11
ATOM     11  C   UNL     1       8.415   9.595  18.204  0.00  0.00    +0.000 A 
ATOM     12  C   UNL     1       7.884  10.590  17.377  0.00  0.00    +0.000 A 
ATOM     13  C   UNL     1       8.250  11.924  17.582  0.00  0.00    +0.000 A 
ATOM     14  C   UNL     1       9.137  12.260  18.607  0.00  0.00    +0.000 A 
ATOM     15  C   UNL     1       9.651  11.265  19.437  0.00  0.00    +0.000 A 
ATOM     16 CL   UNL     1      10.733  11.680  20.708  0.00  0.00    +0.000 Cl
ATOM     17  C   UNL     1       9.290   9.936  19.244  0.00  0.00    +0.000 A 
ENDBRANCH   8  11
ENDBRANCH   1   9
BRANCH   5  18
ATOM     18  N   UNL     1       4.144   4.151  17.992  0.00  0.00    +0.000 N 
ATOM     19  C   UNL     1       4.298   3.347  19.113  0.00  0.00    +0.000 C 
ATOM     20  O   UNL     1       5.359   3.132  19.691  0.00  0.00    +0.000 OA
ATOM     21  H   UNL     1       3.207   4.458  17.767  0.00  0.00    +0.000 HD
BRANCH  19  22
ATOM     22  C   UNL     1       2.990   2.767  19.630  0.00  0.00    +0.000 C 
ATOM     23  C   UNL     1       2.478   3.485  20.873  0.00  0.00    +0.000 C 
ATOM     24  C   UNL     1       0.994   3.145  20.923  0.00  0.00    +0.000 C 
ATOM     25  C   UNL     1       0.564   2.913  19.478  0.00  0.00    +0.000 C 
ATOM     26  C   UNL     1       1.835   2.962  18.640  0.00  0.00    +0.000 C 
ENDBRANCH  19  22
ENDBRANCH   5  18
TORSDOF 4
ENDMDL
MODEL 3
REMARK VINA RESULT:      -7.9      4.441      7.016
REMARK  Name = 
REMARK  4 active torsions:
REMARK  status: ('A' for Active; 'I' for Inactive)
REMARK    1  A    between atoms: C_2  and  C_18
REMARK    2  A    between atoms: N_3  and  C_4
REMARK    3  A    between atoms: C_8  and  N_9
REMARK    4  A    between atoms: C_10  and  C_12
REMARK                            x       y       z     vdW  Elec       q    Type
REMARK                         _______ _______ _______ _____ _____    ______ ____
ROOT
ATOM      1  C   UNL     1       6.676   6.524  16.741  0.00  0.00    +0.000 A 
ATOM      2  C   UNL     1       7.152   5.827  15.628  0.00  0.00    +0.000 A 
ATOM      3  C   UNL     1       6.595   4.604  15.264  0.00  0.00    +0.000 A 
ATOM      4  C   UNL     1       5.566   4.055  16.021  0.00  0.00    +0.000 A 
ATOM      5  C   UNL     1       5.087   4.713  17.156  0.00  0.00    +0.000 A 
ATOM      6  C   UNL     1       5.643   5.955  17.510  0.00  0.00    +0.000 A 
ENDROOT
BRANCH   1   9
ATOM      7  O   UNL     1       8.511   7.147  18.958  0.00  0.00    +0.000 OA
ATOM      8  C   UNL     1       8.055   7.995  18.201  0.00  0.00    +0.000 C 
ATOM      9  N   UNL     1       7.199   7.784  17.129  0.00  0.00    +0.000 N 
ATOM     10  H   UNL     1       7.039   8.556  16.497  0.00  0.00    +0.000 HD
BRANCH   8  11
ATOM     11  C   UNL     1       8.528   9.389  18.400  0.00  0.00    +0.000 A 
ATOM     12  C   UNL     1       9.604   9.705  19.236  0.00  0.00    +0.000 A 
ATOM     13  C   UNL     1      10.024  11.034  19.346  0.00  0.00    +0.000 A 
ATOM     14  C   UNL     1       9.375  12.038  18.625  0.00  0.00    +0.000 A 
ATOM     15  C   UNL     1       8.312  11.714  17.783  0.00  0.00    +0.000 A 
ATOM     16 CL   UNL     1       7.521  12.950  16.885  0.00  0.00    +0.000 Cl
ATOM     17  C   UNL     1       7.889  10.395  17.663  0.00  0.00    +0.000 A 
ENDBRANCH   8  11
ENDBRANCH   1   9
BRANCH   5  18
ATOM     18  N   UNL     1       4.028   4.187  17.935  0.00  0.00    +0.000 N 
ATOM     19  C   UNL     1       4.178   3.420  19.082  0.00  0.00    +0.000 C 
ATOM     20  O   UNL     1       5.233   3.241  19.684  0.00  0.00    +0.000 OA
ATOM     21  H   UNL     1       3.089   4.470  17.686  0.00  0.00    +0.000 HD
BRANCH  19  22
ATOM     22  C   UNL     1       2.872   2.833  19.596  0.00  0.00    +0.000 C 
ATOM     23  C   UNL     1       2.835   2.720  21.116  0.00  0.00    +0.000 C 
ATOM     24  C   UNL     1       1.353   2.627  21.453  0.00  0.00    +0.000 C 
ATOM     25  C   UNL     1       0.619   3.374  20.344  0.00  0.00    +0.000 C 
ATOM     26  C   UNL     1       1.672   3.742  19.307  0.00  0.00    +0.000 C 
ENDBRANCH  19  22
ENDBRANCH   5  18
TORSDOF 4
ENDMDL
MODEL 4
REMARK VINA RESULT:      -7.9      4.471      7.025
REMARK  Name = 
REMARK  4 active torsions:
REMARK  status: ('A' for Active; 'I' for Inactive)
REMARK    1  A    between atoms: C_2  and  C_18
REMARK    2  A    between atoms: N_3  and  C_4
REMARK    3  A    between atoms: C_8  and  N_9
REMARK    4  A    between atoms: C_10  and  C_12
REMARK                            x       y       z     vdW  Elec       q    Type
REMARK                         _______ _______ _______ _____ _____    ______ ____
ROOT
ATOM      1  C   UNL     1       6.677   6.696  16.879  0.00  0.00    +0.000 A 
ATOM      2  C   UNL     1       7.295   5.844  15.960  0.00  0.00    +0.000 A 
ATOM      3  C   UNL     1       6.763   4.586  15.688  0.00  0.00    +0.000 A 
ATOM      4  C   UNL     1       5.615   4.160  16.345  0.00  0.00    +0.000 A 
ATOM      5  C   UNL     1       4.989   4.977  17.289  0.00  0.00    +0.000 A 
ATOM      6  C   UNL     1       5.523   6.252  17.549  0.00  0.00    +0.000 A 
ENDROOT
BRANCH   1   9
ATOM      7  O   UNL     1       8.621   7.506  18.936  0.00  0.00    +0.000 OA
ATOM      8  C   UNL     1       8.086   8.295  18.166  0.00  0.00    +0.000 C 
ATOM      9  N   UNL     1       7.175   7.993  17.164  0.00  0.00    +0.000 N 
ATOM     10  H   UNL     1       6.945   8.723  16.503  0.00  0.00    +0.000 HD
BRANCH   8  11
ATOM     11  C   UNL     1       8.516   9.713  18.260  0.00  0.00    +0.000 A 
ATOM     12  C   UNL     1       8.007  10.709  17.420  0.00  0.00    +0.000 A 
ATOM     13  C   UNL     1       8.424  12.033  17.590  0.00  0.00    +0.000 A 
ATOM     14  C   UNL     1       9.341  12.358  18.592  0.00  0.00    +0.000 A 
ATOM     15  C   UNL     1       9.833  11.363  19.434  0.00  0.00    +0.000 A 
ATOM     16 CL   UNL     1      10.952  11.765  20.677  0.00  0.00    +0.000 Cl
ATOM     17  C   UNL     1       9.421  10.044  19.277  0.00  0.00    +0.000 A 
ENDBRANCH   8  11
ENDBRANCH   1   9
BRANCH   5  18
ATOM     18  N   UNL     1       3.808   4.577  17.960  0.00  0.00    +0.000 N 
ATOM     19  C   UNL     1       2.770   5.420  18.332  0.00  0.00    +0.000 C 
ATOM     20  O   UNL     1       2.642   6.587  17.976  0.00  0.00    +0.000 OA
ATOM     21  H   UNL     1       3.671   3.584  18.098  0.00  0.00    +0.000 HD
BRANCH  19  22
ATOM     22  C   UNL     1       1.724   4.746  19.209  0.00  0.00    +0.000 C 
ATOM     23  C   UNL     1       1.359   3.348  18.722  0.00  0.00    +0.000 C 
ATOM     24  C   UNL     1       0.748   2.671  19.940  0.00  0.00    +0.000 C 
ATOM     25  C   UNL     1       1.395   3.325  21.157  0.00  0.00    +0.000 C 
ATOM     26  C   UNL     1       2.240   4.474  20.626  0.00  0.00    +0.000 C 
ENDBRANCH  19  22
ENDBRANCH   5  18
TORSDOF 4
ENDMDL
MODEL 5
REMARK VINA RESULT:      -7.8      2.702      4.294
REMARK  Name = 
REMARK  4 active torsions:
REMARK  status: ('A' for Active; 'I' for Inactive)
REMARK    1  A    between atoms: C_2  and  C_18
REMARK    2  A    between atoms: N_3  and  C_4
REMARK    3  A    between atoms: C_8  and  N_9
REMARK    4  A    between atoms: C_10  and  C_12
REMARK                            x       y       z     vdW  Elec       q    Type
REMARK                         _______ _______ _______ _____ _____    ______ ____
ROOT
ATOM      1  C   UNL     1       2.373   5.062  20.685  0.00  0.00    +0.000 A 
ATOM      2  C   UNL     1       2.077   3.922  21.437  0.00  0.00    +0.000 A 
ATOM      3  C   UNL     1       2.670   2.699  21.137  0.00  0.00    +0.000 A 
ATOM      4  C   UNL     1       3.554   2.598  20.069  0.00  0.00    +0.000 A 
ATOM      5  C   UNL     1       3.849   3.712  19.280  0.00  0.00    +0.000 A 
ATOM      6  C   UNL     1       3.258   4.948  19.598  0.00  0.00    +0.000 A 
ENDROOT
BRANCH   1   9
ATOM      7  O   UNL     1       2.367   7.492  19.024  0.00  0.00    +0.000 OA
ATOM      8  C   UNL     1       1.860   7.436  20.138  0.00  0.00    +0.000 C 
ATOM      9  N   UNL     1       1.809   6.330  20.975  0.00  0.00    +0.000 N 
ATOM     10  H   UNL     1       1.215   6.388  21.792  0.00  0.00    +0.000 HD
BRANCH   8  11
ATOM     11  C   UNL     1       1.157   8.655  20.613  0.00  0.00    +0.000 A 
ATOM     12  C   UNL     1       0.748   8.816  21.941  0.00  0.00    +0.000 A 
ATOM     13  C   UNL     1       0.128  10.007  22.331  0.00  0.00    +0.000 A 
ATOM     14  C   UNL     1      -0.079  11.029  21.401  0.00  0.00    +0.000 A 
ATOM     15  C   UNL     1       0.345  10.867  20.083  0.00  0.00    +0.000 A 
ATOM     16 CL   UNL     1       0.102  12.130  18.942  0.00  0.00    +0.000 Cl
ATOM     17  C   UNL     1       0.966   9.688  19.686  0.00  0.00    +0.000 A 
ENDBRANCH   8  11
ENDBRANCH   1   9
BRANCH   5  18
ATOM     18  N   UNL     1       4.760   3.644  18.198  0.00  0.00    +0.000 N 
ATOM     19  C   UNL     1       5.961   4.334  18.114  0.00  0.00    +0.000 C 
ATOM     20  O   UNL     1       6.490   4.953  19.032  0.00  0.00    +0.000 OA
ATOM     21  H   UNL     1       4.561   2.969  17.471  0.00  0.00    +0.000 HD
BRANCH  19  22
ATOM     22  C   UNL     1       6.635   4.217  16.754  0.00  0.00    +0.000 C 
ATOM     23  C   UNL     1       5.723   3.607  15.695  0.00  0.00    +0.000 C 
ATOM     24  C   UNL     1       6.338   4.039  14.371  0.00  0.00    +0.000 C 
ATOM     25  C   UNL     1       7.046   5.362  14.645  0.00  0.00    +0.000 C 
ATOM     26  C   UNL     1       6.967   5.586  16.149  0.00  0.00    +0.000 C 
ENDBRANCH  19  22
ENDBRANCH   5  18
TORSDOF 4
ENDMDL
MODEL 6
REMARK VINA RESULT:      -7.8      4.502      6.867
REMARK  Name = 
REMARK  4 active torsions:
REMARK  status: ('A' for Active; 'I' for Inactive)
REMARK    1  A    between atoms: C_2  and  C_18
REMARK    2  A    between atoms: N_3  and  C_4
REMARK    3  A    between atoms: C_8  and  N_9
REMARK    4  A    between atoms: C_10  and  C_12
REMARK                            x       y       z     vdW  Elec       q    Type
REMARK                         _______ _______ _______ _____ _____    ______ ____
ROOT
ATOM      1  C   UNL     1       6.794   6.382  16.673  0.00  0.00    +0.000 A 
ATOM      2  C   UNL     1       7.198   5.746  15.496  0.00  0.00    +0.000 A 
ATOM      3  C   UNL     1       6.755   4.461  15.195  0.00  0.00    +0.000 A 
ATOM      4  C   UNL     1       5.916   3.790  16.076  0.00  0.00    +0.000 A 
ATOM      5  C   UNL     1       5.517   4.387  17.275  0.00  0.00    +0.000 A 
ATOM      6  C   UNL     1       5.955   5.690  17.566  0.00  0.00    +0.000 A 
ENDROOT
BRANCH   1   9
ATOM      7  O   UNL     1       8.550   7.265  18.865  0.00  0.00    +0.000 OA
ATOM      8  C   UNL     1       8.028   8.035  18.067  0.00  0.00    +0.000 C 
ATOM      9  N   UNL     1       7.203   7.699  17.002  0.00  0.00    +0.000 N 
ATOM     10  H   UNL     1       6.982   8.424  16.333  0.00  0.00    +0.000 HD
BRANCH   8  11
ATOM     11  C   UNL     1       8.377   9.472  18.202  0.00  0.00    +0.000 A 
ATOM     12  C   UNL     1       7.836  10.457  17.369  0.00  0.00    +0.000 A 
ATOM     13  C   UNL     1       8.176  11.798  17.577  0.00  0.00    +0.000 A 
ATOM     14  C   UNL     1       9.045  12.150  18.612  0.00  0.00    +0.000 A 
ATOM     15  C   UNL     1       9.568  11.164  19.447  0.00  0.00    +0.000 A 
ATOM     16 CL   UNL     1      10.629  11.600  20.729  0.00  0.00    +0.000 Cl
ATOM     17  C   UNL     1       9.234   9.829  19.251  0.00  0.00    +0.000 A 
ENDBRANCH   8  11
ENDBRANCH   1   9
BRANCH   5  18
ATOM     18  N   UNL     1       4.648   3.735  18.183  0.00  0.00    +0.000 N 
ATOM     19  C   UNL     1       3.328   3.391  17.927  0.00  0.00    +0.000 C 
ATOM     20  O   UNL     1       2.783   3.437  16.828  0.00  0.00    +0.000 OA
ATOM     21  H   UNL     1       5.050   3.413  19.054  0.00  0.00    +0.000 HD
BRANCH  19  22
ATOM     22  C   UNL     1       2.584   2.879  19.152  0.00  0.00    +0.000 C 
ATOM     23  C   UNL     1       3.464   2.830  20.397  0.00  0.00    +0.000 C 
ATOM     24  C   UNL     1       2.477   2.811  21.557  0.00  0.00    +0.000 C 
ATOM     25  C   UNL     1       1.231   3.540  21.065  0.00  0.00    +0.000 C 
ATOM     26  C   UNL     1       1.456   3.822  19.586  0.00  0.00    +0.000 C 
ENDBRANCH  19  22
ENDBRANCH   5  18
TORSDOF 4
ENDMDL
MODEL 7
REMARK VINA RESULT:      -7.8      2.437      3.931
REMARK  Name = 
REMARK  4 active torsions:
REMARK  status: ('A' for Active; 'I' for Inactive)
REMARK    1  A    between atoms: C_2  and  C_18
REMARK    2  A    between atoms: N_3  and  C_4
REMARK    3  A    between atoms: C_8  and  N_9
REMARK    4  A    between atoms: C_10  and  C_12
REMARK                            x       y       z     vdW  Elec       q    Type
REMARK                         _______ _______ _______ _____ _____    ______ ____
ROOT
ATOM      1  C   UNL     1       2.378   5.342  20.411  0.00  0.00    +0.000 A 
ATOM      2  C   UNL     1       2.091   4.254  21.239  0.00  0.00    +0.000 A 
ATOM      3  C   UNL     1       2.681   3.013  21.015  0.00  0.00    +0.000 A 
ATOM      4  C   UNL     1       3.553   2.842  19.945  0.00  0.00    +0.000 A 
ATOM      5  C   UNL     1       3.839   3.901  19.081  0.00  0.00    +0.000 A 
ATOM      6  C   UNL     1       3.251   5.156  19.323  0.00  0.00    +0.000 A 
ENDROOT
BRANCH   1   9
ATOM      7  O   UNL     1       2.447   7.690  18.638  0.00  0.00    +0.000 OA
ATOM      8  C   UNL     1       1.906   7.691  19.737  0.00  0.00    +0.000 C 
ATOM      9  N   UNL     1       1.818   6.627  20.623  0.00  0.00    +0.000 N 
ATOM     10  H   UNL     1       1.200   6.727  21.417  0.00  0.00    +0.000 HD
BRANCH   8  11
ATOM     11  C   UNL     1       1.200   8.936  20.132  0.00  0.00    +0.000 A 
ATOM     12  C   UNL     1       1.076  10.034  19.273  0.00  0.00    +0.000 A 
ATOM     13  C   UNL     1       0.363  11.161  19.694  0.00  0.00    +0.000 A 
ATOM     14  C   UNL     1      -0.225  11.188  20.961  0.00  0.00    +0.000 A 
ATOM     15  C   UNL     1      -0.110  10.085  21.805  0.00  0.00    +0.000 A 
ATOM     16 CL   UNL     1      -0.844  10.114  23.360  0.00  0.00    +0.000 Cl
ATOM     17  C   UNL     1       0.594   8.958  21.395  0.00  0.00    +0.000 A 
ENDBRANCH   8  11
ENDBRANCH   1   9
BRANCH   5  18
ATOM     18  N   UNL     1       4.737   3.761  17.996  0.00  0.00    +0.000 N 
ATOM     19  C   UNL     1       6.022   4.282  17.943  0.00  0.00    +0.000 C 
ATOM     20  O   UNL     1       6.626   4.778  18.889  0.00  0.00    +0.000 OA
ATOM     21  H   UNL     1       4.451   3.155  17.237  0.00  0.00    +0.000 HD
BRANCH  19  22
ATOM     22  C   UNL     1       6.680   4.140  16.578  0.00  0.00    +0.000 C 
ATOM     23  C   UNL     1       5.750   3.529  15.536  0.00  0.00    +0.000 C 
ATOM     24  C   UNL     1       6.357   3.937  14.201  0.00  0.00    +0.000 C 
ATOM     25  C   UNL     1       7.085   5.254  14.451  0.00  0.00    +0.000 C 
ATOM     26  C   UNL     1       7.024   5.497  15.953  0.00  0.00    +0.000 C 
ENDBRANCH  19  22
ENDBRANCH   5  18
TORSDOF 4
ENDMDL
MODEL 8
REMARK VINA RESULT:      -7.7      3.432      8.757
REMARK  Name = 
REMARK  4 active torsions:
REMARK  status: ('A' for Active; 'I' for Inactive)
REMARK    1  A    between atoms: C_2  and  C_18
REMARK    2  A    between atoms: N_3  and  C_4
REMARK    3  A    between atoms: C_8  and  N_9
REMARK    4  A    between atoms: C_10  and  C_12
REMARK                            x       y       z     vdW  Elec       q    Type
REMARK                         _______ _______ _______ _____ _____    ______ ____
ROOT
ATOM      1  C   UNL     1       4.090   4.069  17.699  0.00  0.00    +0.000 A 
ATOM      2  C   UNL     1       4.080   2.887  18.442  0.00  0.00    +0.000 A 
ATOM      3  C   UNL     1       3.491   2.844  19.703  0.00  0.00    +0.000 A 
ATOM      4  C   UNL     1       2.920   3.991  20.243  0.00  0.00    +0.000 A 
ATOM      5  C   UNL     1       2.939   5.196  19.538  0.00  0.00    +0.000 A 
ATOM      6  C   UNL     1       3.522   5.229  18.258  0.00  0.00    +0.000 A 
ENDROOT
BRANCH   1   9
ATOM      7  O   UNL     1       6.848   4.762  16.938  0.00  0.00    +0.000 OA
ATOM      8  C   UNL     1       5.972   4.494  16.125  0.00  0.00    +0.000 C 
ATOM      9  N   UNL     1       4.657   4.146  16.401  0.00  0.00    +0.000 N 
ATOM     10  H   UNL     1       4.095   3.793  15.638  0.00  0.00    +0.000 HD
BRANCH   8  11
ATOM     11  C   UNL     1       6.375   4.460  14.696  0.00  0.00    +0.000 A 
ATOM     12  C   UNL     1       7.452   5.204  14.202  0.00  0.00    +0.000 A 
ATOM     13  C   UNL     1       7.804   5.094  12.854  0.00  0.00    +0.000 A 
ATOM     14  C   UNL     1       7.087   4.246  12.007  0.00  0.00    +0.000 A 
ATOM     15  C   UNL     1       6.025   3.497  12.509  0.00  0.00    +0.000 A 
ATOM     16 CL   UNL     1       5.151   2.442  11.469  0.00  0.00    +0.000 Cl
ATOM     17  C   UNL     1       5.669   3.595  13.850  0.00  0.00    +0.000 A 
ENDBRANCH   8  11
ENDBRANCH   1   9
BRANCH   5  18
ATOM     18  N   UNL     1       2.350   6.376  20.054  0.00  0.00    +0.000 N 
ATOM     19  C   UNL     1       2.131   7.545  19.339  0.00  0.00    +0.000 C 
ATOM     20  O   UNL     1       2.247   7.665  18.123  0.00  0.00    +0.000 OA
ATOM     21  H   UNL     1       1.977   6.330  20.994  0.00  0.00    +0.000 HD
BRANCH  19  22
ATOM     22  C   UNL     1       1.663   8.707  20.202  0.00  0.00    +0.000 C 
ATOM     23  C   UNL     1       0.696   9.632  19.471  0.00  0.00    +0.000 C 
ATOM     24  C   UNL     1      -0.032  10.374  20.583  0.00  0.00    +0.000 C 
ATOM     25  C   UNL     1      -0.036   9.436  21.786  0.00  0.00    +0.000 C 
ATOM     26  C   UNL     1       0.828   8.243  21.401  0.00  0.00    +0.000 C 
ENDBRANCH  19  22
ENDBRANCH   5  18
TORSDOF 4
ENDMDL
MODEL 9
REMARK VINA RESULT:      -7.5      4.633     10.167
REMARK  Name = 
REMARK  4 active torsions:
REMARK  status: ('A' for Active; 'I' for Inactive)
REMARK    1  A    between atoms: C_2  and  C_18
REMARK    2  A    between atoms: N_3  and  C_4
REMARK    3  A    between atoms: C_8  and  N_9
REMARK    4  A    between atoms: C_10  and  C_12
REMARK                            x       y       z     vdW  Elec       q    Type
REMARK                         _______ _______ _______ _____ _____    ______ ____
ROOT
ATOM      1  C   UNL     1       0.894   9.966  18.162  0.00  0.00    +0.000 A 
ATOM      2  C   UNL     1       1.422  11.118  18.749  0.00  0.00    +0.000 A 
ATOM      3  C   UNL     1       0.589  12.161  19.144  0.00  0.00    +0.000 A 
ATOM      4  C   UNL     1      -0.783  12.070  18.939  0.00  0.00    +0.000 A 
ATOM      5  C   UNL     1      -1.340  10.944  18.329  0.00  0.00    +0.000 A 
ATOM      6  C   UNL     1      -0.494   9.888  17.946  0.00  0.00    +0.000 A 
ENDROOT
BRANCH   1   9
ATOM      7  O   UNL     1       1.966   7.786  19.825  0.00  0.00    +0.000 OA
ATOM      8  C   UNL     1       2.184   7.888  18.624  0.00  0.00    +0.000 C 
ATOM      9  N   UNL     1       1.708   8.873  17.770  0.00  0.00    +0.000 N 
ATOM     10  H   UNL     1       1.836   8.735  16.776  0.00  0.00    +0.000 HD
BRANCH   8  11
ATOM     11  C   UNL     1       2.978   6.800  17.996  0.00  0.00    +0.000 A 
ATOM     12  C   UNL     1       4.209   7.032  17.375  0.00  0.00    +0.000 A 
ATOM     13  C   UNL     1       4.924   5.956  16.840  0.00  0.00    +0.000 A 
ATOM     14  C   UNL     1       4.413   4.659  16.929  0.00  0.00    +0.000 A 
ATOM     15  C   UNL     1       3.193   4.434  17.563  0.00  0.00    +0.000 A 
ATOM     16 CL   UNL     1       2.571   2.835  17.684  0.00  0.00    +0.000 Cl
ATOM     17  C   UNL     1       2.476   5.496  18.101  0.00  0.00    +0.000 A 
ENDBRANCH   8  11
ENDBRANCH   1   9
BRANCH   5  18
ATOM     18  N   UNL     1      -2.735  10.816  18.124  0.00  0.00    +0.000 N 
ATOM     19  C   UNL     1      -3.399  11.063  16.930  0.00  0.00    +0.000 C 
ATOM     20  O   UNL     1      -2.859  11.248  15.844  0.00  0.00    +0.000 OA
ATOM     21  H   UNL     1      -3.278  10.426  18.884  0.00  0.00    +0.000 HD
BRANCH  19  22
ATOM     22  C   UNL     1      -4.915  11.031  17.059  0.00  0.00    +0.000 C 
ATOM     23  C   UNL     1      -5.380  10.521  18.419  0.00  0.00    +0.000 C 
ATOM     24  C   UNL     1      -6.807  11.036  18.548  0.00  0.00    +0.000 C 
ATOM     25  C   UNL     1      -6.870  12.319  17.726  0.00  0.00    +0.000 C 
ATOM     26  C   UNL     1      -5.533  12.433  17.007  0.00  0.00    +0.000 C 
ENDBRANCH  19  22
ENDBRANCH   5  18
TORSDOF 4
ENDMDL
