MODEL 1
REMARK VINA RESULT:      -6.7      0.000      0.000
REMARK  Name = 
REMARK  11 active torsions:
REMARK  status: ('A' for Active; 'I' for Inactive)
REMARK    1  A    between atoms: C_1  and  C_2
REMARK    2  A    between atoms: C_2  and  O_3
REMARK    3  A    between atoms: O_3  and  C_4
REMARK    4  A    between atoms: C_4  and  C_6
REMARK    5  A    between atoms: C_6  and  N_7
REMARK    6  A    between atoms: C_10  and  C_11
REMARK    7  A    between atoms: N_13  and  C_14
REMARK    8  A    between atoms: C_14  and  O_15
REMARK    9  A    between atoms: O_15  and  C_16
REMARK   10  A    between atoms: C_16  and  C_17
REMARK   11  A    between atoms: C_17  and  O_18
REMARK                            x       y       z     vdW  Elec       q    Type
REMARK                         _______ _______ _______ _____ _____    ______ ____
ROOT
ATOM      1  N   UNL     1       6.567   5.229  17.756  0.00  0.00    +0.000 N 
ATOM      2  C   UNL     1       6.809   4.594  16.558  0.00  0.00    +0.000 A 
ATOM      3  O   UNL     1       7.927   4.477  16.057  0.00  0.00    +0.000 OA
ATOM      4  C   UNL     1       5.616   4.068  15.869  0.00  0.00    +0.000 A 
ATOM      5  C   UNL     1       5.698   3.757  14.410  0.00  0.00    +0.000 C 
ATOM      6  C   UNL     1       4.512   3.878  16.595  0.00  0.00    +0.000 A 
ATOM      7  N   UNL     1       4.455   4.213  17.927  0.00  0.00    +0.000 N 
ATOM      8  C   UNL     1       5.460   4.947  18.551  0.00  0.00    +0.000 A 
ATOM      9  O   UNL     1       5.387   5.310  19.727  0.00  0.00    +0.000 OA
ENDROOT
BRANCH   1  10
ATOM     10  C   UNL     1       7.669   5.978  18.350  0.00  0.00    +0.000 C 
BRANCH  10  11
ATOM     11  C   UNL     1       7.687   7.409  17.842  0.00  0.00    +0.000 C 
ATOM     12  O   UNL     1       7.137   7.816  16.828  0.00  0.00    +0.000 OA
BRANCH  11  13
ATOM     13  O   UNL     1       8.499   8.159  18.649  0.00  0.00    +0.000 OA
BRANCH  13  15
ATOM     14  C   UNL     1       9.503  10.307  19.244  0.00  0.00    +0.000 C 
ATOM     15  C   UNL     1       8.531   9.560  18.353  0.00  0.00    +0.000 C 
ENDBRANCH  13  15
ENDBRANCH  11  13
ENDBRANCH  10  11
ENDBRANCH   1  10
BRANCH   7  16
ATOM     16  C   UNL     1       3.291   3.799  18.702  0.00  0.00    +0.000 C 
BRANCH  16  17
ATOM     17  O   UNL     1       2.697   2.624  18.132  0.00  0.00    +0.000 OA
BRANCH  17  18
ATOM     18  C   UNL     1       1.437   2.303  18.744  0.00  0.00    +0.000 C 
BRANCH  18  19
ATOM     19  C   UNL     1       1.021   3.439  19.675  0.00  0.00    +0.000 C 
BRANCH  19  20
ATOM     20  O   UNL     1       0.714   2.942  20.978  0.00  0.00    +0.000 OA
ATOM     21  H   UNL     1       1.444   2.338  21.206  0.00  0.00    +0.000 HD
ENDBRANCH  19  20
ENDBRANCH  18  19
ENDBRANCH  17  18
ENDBRANCH  16  17
ENDBRANCH   7  16
TORSDOF 9
ENDMDL
MODEL 2
REMARK VINA RESULT:      -6.6      2.008      3.048
REMARK  Name = 
REMARK  11 active torsions:
REMARK  status: ('A' for Active; 'I' for Inactive)
REMARK    1  A    between atoms: C_1  and  C_2
REMARK    2  A    between atoms: C_2  and  O_3
REMARK    3  A    between atoms: O_3  and  C_4
REMARK    4  A    between atoms: C_4  and  C_6
REMARK    5  A    between atoms: C_6  and  N_7
REMARK    6  A    between atoms: C_10  and  C_11
REMARK    7  A    between atoms: N_13  and  C_14
REMARK    8  A    between atoms: C_14  and  O_15
REMARK    9  A    between atoms: O_15  and  C_16
REMARK   10  A    between atoms: C_16  and  C_17
REMARK   11  A    between atoms: C_17  and  O_18
REMARK                            x       y       z     vdW  Elec       q    Type
REMARK                         _______ _______ _______ _____ _____    ______ ____
ROOT
ATOM      1  N   UNL     1       4.933   5.311  18.229  0.00  0.00    +0.000 N 
ATOM      2  C   UNL     1       4.239   6.280  17.540  0.00  0.00    +0.000 A 
ATOM      3  O   UNL     1       4.512   6.634  16.393  0.00  0.00    +0.000 OA
ATOM      4  C   UNL     1       3.132   6.912  18.280  0.00  0.00    +0.000 A 
ATOM      5  C   UNL     1       2.605   8.229  17.812  0.00  0.00    +0.000 C 
ATOM      6  C   UNL     1       2.638   6.261  19.335  0.00  0.00    +0.000 A 
ATOM      7  N   UNL     1       3.172   5.069  19.766  0.00  0.00    +0.000 N 
ATOM      8  C   UNL     1       4.371   4.569  19.265  0.00  0.00    +0.000 A 
ATOM      9  O   UNL     1       4.892   3.538  19.692  0.00  0.00    +0.000 OA
ENDROOT
BRANCH   1  10
ATOM     10  C   UNL     1       6.181   4.835  17.641  0.00  0.00    +0.000 C 
BRANCH  10  11
ATOM     11  C   UNL     1       7.373   5.564  18.236  0.00  0.00    +0.000 C 
ATOM     12  O   UNL     1       7.791   5.439  19.380  0.00  0.00    +0.000 OA
BRANCH  11  13
ATOM     13  O   UNL     1       7.853   6.459  17.319  0.00  0.00    +0.000 OA
BRANCH  13  15
ATOM     14  C   UNL     1       8.454   8.643  18.236  0.00  0.00    +0.000 C 
ATOM     15  C   UNL     1       7.421   7.813  17.502  0.00  0.00    +0.000 C 
ENDBRANCH  13  15
ENDBRANCH  11  13
ENDBRANCH  10  11
ENDBRANCH   1  10
BRANCH   7  16
ATOM     16  C   UNL     1       2.464   4.319  20.797  0.00  0.00    +0.000 C 
BRANCH  16  17
ATOM     17  O   UNL     1       1.224   3.808  20.287  0.00  0.00    +0.000 OA
BRANCH  17  18
ATOM     18  C   UNL     1       1.301   2.405  19.983  0.00  0.00    +0.000 C 
BRANCH  18  19
ATOM     19  C   UNL     1       1.641   2.225  18.505  0.00  0.00    +0.000 C 
BRANCH  19  20
ATOM     20  O   UNL     1       2.853   1.488  18.348  0.00  0.00    +0.000 OA
ATOM     21  H   UNL     1       3.164   1.300  19.252  0.00  0.00    +0.000 HD
ENDBRANCH  19  20
ENDBRANCH  18  19
ENDBRANCH  17  18
ENDBRANCH  16  17
ENDBRANCH   7  16
TORSDOF 9
ENDMDL
MODEL 3
REMARK VINA RESULT:      -6.5      1.968      4.613
REMARK  Name = 
REMARK  11 active torsions:
REMARK  status: ('A' for Active; 'I' for Inactive)
REMARK    1  A    between atoms: C_1  and  C_2
REMARK    2  A    between atoms: C_2  and  O_3
REMARK    3  A    between atoms: O_3  and  C_4
REMARK    4  A    between atoms: C_4  and  C_6
REMARK    5  A    between atoms: C_6  and  N_7
REMARK    6  A    between atoms: C_10  and  C_11
REMARK    7  A    between atoms: N_13  and  C_14
REMARK    8  A    between atoms: C_14  and  O_15
REMARK    9  A    between atoms: O_15  and  C_16
REMARK   10  A    between atoms: C_16  and  C_17
REMARK   11  A    between atoms: C_17  and  O_18
REMARK                            x       y       z     vdW  Elec       q    Type
REMARK                         _______ _______ _______ _____ _____    ______ ____
ROOT
ATOM      1  N   UNL     1       5.776   5.332  16.514  0.00  0.00    +0.000 N 
ATOM      2  C   UNL     1       6.598   6.178  17.225  0.00  0.00    +0.000 A 
ATOM      3  O   UNL     1       7.033   7.242  16.785  0.00  0.00    +0.000 OA
ATOM      4  C   UNL     1       6.964   5.715  18.576  0.00  0.00    +0.000 A 
ATOM      5  C   UNL     1       8.154   6.314  19.251  0.00  0.00    +0.000 C 
ATOM      6  C   UNL     1       6.195   4.784  19.144  0.00  0.00    +0.000 A 
ATOM      7  N   UNL     1       5.129   4.221  18.481  0.00  0.00    +0.000 N 
ATOM      8  C   UNL     1       4.905   4.434  17.123  0.00  0.00    +0.000 A 
ATOM      9  O   UNL     1       3.993   3.881  16.506  0.00  0.00    +0.000 OA
ENDROOT
BRANCH   1  10
ATOM     10  C   UNL     1       5.587   5.618  15.095  0.00  0.00    +0.000 C 
BRANCH  10  11
ATOM     11  C   UNL     1       6.622   4.892  14.254  0.00  0.00    +0.000 C 
ATOM     12  O   UNL     1       7.772   5.261  14.055  0.00  0.00    +0.000 OA
BRANCH  11  13
ATOM     13  O   UNL     1       6.037   3.800  13.671  0.00  0.00    +0.000 OA
BRANCH  13  15
ATOM     14  C   UNL     1       5.595   2.465  11.673  0.00  0.00    +0.000 C 
ATOM     15  C   UNL     1       6.454   3.527  12.328  0.00  0.00    +0.000 C 
ENDBRANCH  13  15
ENDBRANCH  11  13
ENDBRANCH  10  11
ENDBRANCH   1  10
BRANCH   7  16
ATOM     16  C   UNL     1       4.219   3.359  19.227  0.00  0.00    +0.000 C 
BRANCH  16  17
ATOM     17  O   UNL     1       3.206   4.139  19.878  0.00  0.00    +0.000 OA
BRANCH  17  18
ATOM     18  C   UNL     1       1.935   3.469  19.895  0.00  0.00    +0.000 C 
BRANCH  18  19
ATOM     19  C   UNL     1       1.707   2.779  18.552  0.00  0.00    +0.000 C 
BRANCH  19  20
ATOM     20  O   UNL     1       1.295   3.720  17.561  0.00  0.00    +0.000 OA
ATOM     21  H   UNL     1       0.345   3.868  17.720  0.00  0.00    +0.000 HD
ENDBRANCH  19  20
ENDBRANCH  18  19
ENDBRANCH  17  18
ENDBRANCH  16  17
ENDBRANCH   7  16
TORSDOF 9
ENDMDL
MODEL 4
REMARK VINA RESULT:      -6.4      2.145      4.683
REMARK  Name = 
REMARK  11 active torsions:
REMARK  status: ('A' for Active; 'I' for Inactive)
REMARK    1  A    between atoms: C_1  and  C_2
REMARK    2  A    between atoms: C_2  and  O_3
REMARK    3  A    between atoms: O_3  and  C_4
REMARK    4  A    between atoms: C_4  and  C_6
REMARK    5  A    between atoms: C_6  and  N_7
REMARK    6  A    between atoms: C_10  and  C_11
REMARK    7  A    between atoms: N_13  and  C_14
REMARK    8  A    between atoms: C_14  and  O_15
REMARK    9  A    between atoms: O_15  and  C_16
REMARK   10  A    between atoms: C_16  and  C_17
REMARK   11  A    between atoms: C_17  and  O_18
REMARK                            x       y       z     vdW  Elec       q    Type
REMARK                         _______ _______ _______ _____ _____    ______ ____
ROOT
ATOM      1  N   UNL     1       5.712   5.317  16.500  0.00  0.00    +0.000 N 
ATOM      2  C   UNL     1       6.573   6.139  17.192  0.00  0.00    +0.000 A 
ATOM      3  O   UNL     1       7.082   7.154  16.717  0.00  0.00    +0.000 OA
ATOM      4  C   UNL     1       6.885   5.713  18.569  0.00  0.00    +0.000 A 
ATOM      5  C   UNL     1       8.099   6.266  19.242  0.00  0.00    +0.000 C 
ATOM      6  C   UNL     1       6.048   4.858  19.160  0.00  0.00    +0.000 A 
ATOM      7  N   UNL     1       4.961   4.335  18.500  0.00  0.00    +0.000 N 
ATOM      8  C   UNL     1       4.775   4.502  17.130  0.00  0.00    +0.000 A 
ATOM      9  O   UNL     1       3.841   3.981  16.517  0.00  0.00    +0.000 OA
ENDROOT
BRANCH   1  10
ATOM     10  C   UNL     1       5.567   5.552  15.068  0.00  0.00    +0.000 C 
BRANCH  10  11
ATOM     11  C   UNL     1       6.665   4.848  14.290  0.00  0.00    +0.000 C 
ATOM     12  O   UNL     1       7.763   5.316  14.016  0.00  0.00    +0.000 OA
BRANCH  11  13
ATOM     13  O   UNL     1       6.199   3.637  13.856  0.00  0.00    +0.000 OA
BRANCH  13  15
ATOM     14  C   UNL     1       4.860   3.278  11.843  0.00  0.00    +0.000 C 
ATOM     15  C   UNL     1       6.245   3.435  12.439  0.00  0.00    +0.000 C 
ENDBRANCH  13  15
ENDBRANCH  11  13
ENDBRANCH  10  11
ENDBRANCH   1  10
BRANCH   7  16
ATOM     16  C   UNL     1       3.985   3.565  19.262  0.00  0.00    +0.000 C 
BRANCH  16  17
ATOM     17  O   UNL     1       3.269   4.415  20.168  0.00  0.00    +0.000 OA
BRANCH  17  18
ATOM     18  C   UNL     1       2.179   5.096  19.525  0.00  0.00    +0.000 C 
BRANCH  18  19
ATOM     19  C   UNL     1       2.387   6.604  19.635  0.00  0.00    +0.000 C 
BRANCH  19  20
ATOM     20  O   UNL     1       1.970   7.083  20.913  0.00  0.00    +0.000 OA
ATOM     21  H   UNL     1       1.239   7.702  20.735  0.00  0.00    +0.000 HD
ENDBRANCH  19  20
ENDBRANCH  18  19
ENDBRANCH  17  18
ENDBRANCH  16  17
ENDBRANCH   7  16
TORSDOF 9
ENDMDL
MODEL 5
REMARK VINA RESULT:      -6.4      2.000      3.102
REMARK  Name = 
REMARK  11 active torsions:
REMARK  status: ('A' for Active; 'I' for Inactive)
REMARK    1  A    between atoms: C_1  and  C_2
REMARK    2  A    between atoms: C_2  and  O_3
REMARK    3  A    between atoms: O_3  and  C_4
REMARK    4  A    between atoms: C_4  and  C_6
REMARK    5  A    between atoms: C_6  and  N_7
REMARK    6  A    between atoms: C_10  and  C_11
REMARK    7  A    between atoms: N_13  and  C_14
REMARK    8  A    between atoms: C_14  and  O_15
REMARK    9  A    between atoms: O_15  and  C_16
REMARK   10  A    between atoms: C_16  and  C_17
REMARK   11  A    between atoms: C_17  and  O_18
REMARK                            x       y       z     vdW  Elec       q    Type
REMARK                         _______ _______ _______ _____ _____    ______ ____
ROOT
ATOM      1  N   UNL     1       5.015   5.096  17.942  0.00  0.00    +0.000 N 
ATOM      2  C   UNL     1       4.380   6.150  17.324  0.00  0.00    +0.000 A 
ATOM      3  O   UNL     1       4.598   6.497  16.163  0.00  0.00    +0.000 OA
ATOM      4  C   UNL     1       3.413   6.885  18.161  0.00  0.00    +0.000 A 
ATOM      5  C   UNL     1       3.000   8.261  17.754  0.00  0.00    +0.000 C 
ATOM      6  C   UNL     1       2.936   6.269  19.245  0.00  0.00    +0.000 A 
ATOM      7  N   UNL     1       3.366   5.017  19.616  0.00  0.00    +0.000 N 
ATOM      8  C   UNL     1       4.458   4.399  19.011  0.00  0.00    +0.000 A 
ATOM      9  O   UNL     1       4.893   3.308  19.381  0.00  0.00    +0.000 OA
ENDROOT
BRANCH   1  10
ATOM     10  C   UNL     1       6.150   4.498  17.248  0.00  0.00    +0.000 C 
BRANCH  10  11
ATOM     11  C   UNL     1       7.450   4.806  17.970  0.00  0.00    +0.000 C 
ATOM     12  O   UNL     1       8.485   4.158  17.891  0.00  0.00    +0.000 OA
BRANCH  11  13
ATOM     13  O   UNL     1       7.255   5.873  18.806  0.00  0.00    +0.000 OA
BRANCH  13  15
ATOM     14  C   UNL     1       7.673   7.913  17.528  0.00  0.00    +0.000 C 
ATOM     15  C   UNL     1       8.153   6.972  18.614  0.00  0.00    +0.000 C 
ENDBRANCH  13  15
ENDBRANCH  11  13
ENDBRANCH  10  11
ENDBRANCH   1  10
BRANCH   7  16
ATOM     16  C   UNL     1       2.664   4.327  20.692  0.00  0.00    +0.000 C 
BRANCH  16  17
ATOM     17  O   UNL     1       1.288   4.119  20.343  0.00  0.00    +0.000 OA
BRANCH  17  18
ATOM     18  C   UNL     1       0.994   2.732  20.107  0.00  0.00    +0.000 C 
BRANCH  18  19
ATOM     19  C   UNL     1       1.314   2.387  18.654  0.00  0.00    +0.000 C 
BRANCH  19  20
ATOM     20  O   UNL     1       1.033   3.491  17.795  0.00  0.00    +0.000 OA
ATOM     21  H   UNL     1       0.418   3.149  17.121  0.00  0.00    +0.000 HD
ENDBRANCH  19  20
ENDBRANCH  18  19
ENDBRANCH  17  18
ENDBRANCH  16  17
ENDBRANCH   7  16
TORSDOF 9
ENDMDL
MODEL 6
REMARK VINA RESULT:      -6.3      2.661      6.689
REMARK  Name = 
REMARK  11 active torsions:
REMARK  status: ('A' for Active; 'I' for Inactive)
REMARK    1  A    between atoms: C_1  and  C_2
REMARK    2  A    between atoms: C_2  and  O_3
REMARK    3  A    between atoms: O_3  and  C_4
REMARK    4  A    between atoms: C_4  and  C_6
REMARK    5  A    between atoms: C_6  and  N_7
REMARK    6  A    between atoms: C_10  and  C_11
REMARK    7  A    between atoms: N_13  and  C_14
REMARK    8  A    between atoms: C_14  and  O_15
REMARK    9  A    between atoms: O_15  and  C_16
REMARK   10  A    between atoms: C_16  and  C_17
REMARK   11  A    between atoms: C_17  and  O_18
REMARK                            x       y       z     vdW  Elec       q    Type
REMARK                         _______ _______ _______ _____ _____    ______ ____
ROOT
ATOM      1  N   UNL     1       2.927   5.966  19.478  0.00  0.00    +0.000 N 
ATOM      2  C   UNL     1       2.334   7.208  19.515  0.00  0.00    +0.000 A 
ATOM      3  O   UNL     1       1.783   7.676  20.511  0.00  0.00    +0.000 OA
ATOM      4  C   UNL     1       2.371   7.964  18.249  0.00  0.00    +0.000 A 
ATOM      5  C   UNL     1       1.417   9.096  18.052  0.00  0.00    +0.000 C 
ATOM      6  C   UNL     1       3.278   7.607  17.338  0.00  0.00    +0.000 A 
ATOM      7  N   UNL     1       4.116   6.534  17.532  0.00  0.00    +0.000 N 
ATOM      8  C   UNL     1       3.944   5.639  18.585  0.00  0.00    +0.000 A 
ATOM      9  O   UNL     1       4.647   4.637  18.729  0.00  0.00    +0.000 OA
ENDROOT
BRANCH   1  10
ATOM     10  C   UNL     1       2.703   5.083  20.618  0.00  0.00    +0.000 C 
BRANCH  10  11
ATOM     11  C   UNL     1       1.672   4.019  20.284  0.00  0.00    +0.000 C 
ATOM     12  O   UNL     1       0.462   4.190  20.212  0.00  0.00    +0.000 OA
BRANCH  11  13
ATOM     13  O   UNL     1       2.301   2.809  20.168  0.00  0.00    +0.000 OA
BRANCH  13  15
ATOM     14  C   UNL     1       2.354   2.302  17.778  0.00  0.00    +0.000 C 
ATOM     15  C   UNL     1       1.792   1.950  19.141  0.00  0.00    +0.000 C 
ENDBRANCH  13  15
ENDBRANCH  11  13
ENDBRANCH  10  11
ENDBRANCH   1  10
BRANCH   7  16
ATOM     16  C   UNL     1       5.208   6.321  16.589  0.00  0.00    +0.000 C 
BRANCH  16  17
ATOM     17  O   UNL     1       6.296   7.213  16.868  0.00  0.00    +0.000 OA
BRANCH  17  18
ATOM     18  C   UNL     1       7.419   6.531  17.452  0.00  0.00    +0.000 C 
BRANCH  18  19
ATOM     19  C   UNL     1       7.418   5.073  17.000  0.00  0.00    +0.000 C 
BRANCH  19  20
ATOM     20  O   UNL     1       7.559   4.195  18.117  0.00  0.00    +0.000 OA
ATOM     21  H   UNL     1       8.503   4.225  18.356  0.00  0.00    +0.000 HD
ENDBRANCH  19  20
ENDBRANCH  18  19
ENDBRANCH  17  18
ENDBRANCH  16  17
ENDBRANCH   7  16
TORSDOF 9
ENDMDL
MODEL 7
REMARK VINA RESULT:      -6.3      2.041      3.093
REMARK  Name = 
REMARK  11 active torsions:
REMARK  status: ('A' for Active; 'I' for Inactive)
REMARK    1  A    between atoms: C_1  and  C_2
REMARK    2  A    between atoms: C_2  and  O_3
REMARK    3  A    between atoms: O_3  and  C_4
REMARK    4  A    between atoms: C_4  and  C_6
REMARK    5  A    between atoms: C_6  and  N_7
REMARK    6  A    between atoms: C_10  and  C_11
REMARK    7  A    between atoms: N_13  and  C_14
REMARK    8  A    between atoms: C_14  and  O_15
REMARK    9  A    between atoms: O_15  and  C_16
REMARK   10  A    between atoms: C_16  and  C_17
REMARK   11  A    between atoms: C_17  and  O_18
REMARK                            x       y       z     vdW  Elec       q    Type
REMARK                         _______ _______ _______ _____ _____    ______ ____
ROOT
ATOM      1  N   UNL     1       4.825   5.105  17.107  0.00  0.00    +0.000 N 
ATOM      2  C   UNL     1       4.420   6.382  16.786  0.00  0.00    +0.000 A 
ATOM      3  O   UNL     1       4.944   7.067  15.908  0.00  0.00    +0.000 OA
ATOM      4  C   UNL     1       3.307   6.913  17.594  0.00  0.00    +0.000 A 
ATOM      5  C   UNL     1       3.077   8.389  17.630  0.00  0.00    +0.000 C 
ATOM      6  C   UNL     1       2.539   6.039  18.247  0.00  0.00    +0.000 A 
ATOM      7  N   UNL     1       2.801   4.689  18.226  0.00  0.00    +0.000 N 
ATOM      8  C   UNL     1       3.981   4.170  17.699  0.00  0.00    +0.000 A 
ATOM      9  O   UNL     1       4.255   2.969  17.737  0.00  0.00    +0.000 OA
ENDROOT
BRANCH   1  10
ATOM     10  C   UNL     1       6.071   4.630  16.515  0.00  0.00    +0.000 C 
BRANCH  10  11
ATOM     11  C   UNL     1       7.254   4.959  17.407  0.00  0.00    +0.000 C 
ATOM     12  O   UNL     1       7.664   4.274  18.336  0.00  0.00    +0.000 OA
BRANCH  11  13
ATOM     13  O   UNL     1       7.737   6.195  17.072  0.00  0.00    +0.000 OA
BRANCH  13  15
ATOM     14  C   UNL     1       7.868   8.561  17.668  0.00  0.00    +0.000 C 
ATOM     15  C   UNL     1       7.840   7.127  18.155  0.00  0.00    +0.000 C 
ENDBRANCH  13  15
ENDBRANCH  11  13
ENDBRANCH  10  11
ENDBRANCH   1  10
BRANCH   7  16
ATOM     16  C   UNL     1       1.815   3.777  18.795  0.00  0.00    +0.000 C 
BRANCH  16  17
ATOM     17  O   UNL     1       1.198   4.360  19.952  0.00  0.00    +0.000 OA
BRANCH  17  18
ATOM     18  C   UNL     1       2.034   4.263  21.117  0.00  0.00    +0.000 C 
BRANCH  18  19
ATOM     19  C   UNL     1       2.365   2.797  21.384  0.00  0.00    +0.000 C 
BRANCH  19  20
ATOM     20  O   UNL     1       1.492   2.250  22.372  0.00  0.00    +0.000 OA
ATOM     21  H   UNL     1       1.688   1.296  22.395  0.00  0.00    +0.000 HD
ENDBRANCH  19  20
ENDBRANCH  18  19
ENDBRANCH  17  18
ENDBRANCH  16  17
ENDBRANCH   7  16
TORSDOF 9
ENDMDL
MODEL 8
REMARK VINA RESULT:      -6.2      1.133      1.246
REMARK  Name = 
REMARK  11 active torsions:
REMARK  status: ('A' for Active; 'I' for Inactive)
REMARK    1  A    between atoms: C_1  and  C_2
REMARK    2  A    between atoms: C_2  and  O_3
REMARK    3  A    between atoms: O_3  and  C_4
REMARK    4  A    between atoms: C_4  and  C_6
REMARK    5  A    between atoms: C_6  and  N_7
REMARK    6  A    between atoms: C_10  and  C_11
REMARK    7  A    between atoms: N_13  and  C_14
REMARK    8  A    between atoms: C_14  and  O_15
REMARK    9  A    between atoms: O_15  and  C_16
REMARK   10  A    between atoms: C_16  and  C_17
REMARK   11  A    between atoms: C_17  and  O_18
REMARK                            x       y       z     vdW  Elec       q    Type
REMARK                         _______ _______ _______ _____ _____    ______ ____
ROOT
ATOM      1  N   UNL     1       6.006   5.810  16.892  0.00  0.00    +0.000 N 
ATOM      2  C   UNL     1       6.588   5.237  15.784  0.00  0.00    +0.000 A 
ATOM      3  O   UNL     1       7.689   5.564  15.341  0.00  0.00    +0.000 OA
ATOM      4  C   UNL     1       5.787   4.194  15.117  0.00  0.00    +0.000 A 
ATOM      5  C   UNL     1       6.111   3.821  13.707  0.00  0.00    +0.000 C 
ATOM      6  C   UNL     1       4.810   3.616  15.819  0.00  0.00    +0.000 A 
ATOM      7  N   UNL     1       4.509   4.010  17.102  0.00  0.00    +0.000 N 
ATOM      8  C   UNL     1       5.059   5.154  17.674  0.00  0.00    +0.000 A 
ATOM      9  O   UNL     1       4.745   5.553  18.797  0.00  0.00    +0.000 OA
ENDROOT
BRANCH   1  10
ATOM     10  C   UNL     1       6.639   7.006  17.437  0.00  0.00    +0.000 C 
BRANCH  10  11
ATOM     11  C   UNL     1       7.776   6.638  18.374  0.00  0.00    +0.000 C 
ATOM     12  O   UNL     1       7.995   5.525  18.832  0.00  0.00    +0.000 OA
BRANCH  11  13
ATOM     13  O   UNL     1       8.467   7.773  18.706  0.00  0.00    +0.000 OA
BRANCH  13  15
ATOM     14  C   UNL     1       8.922  10.152  18.388  0.00  0.00    +0.000 C 
ATOM     15  C   UNL     1       8.131   8.939  17.945  0.00  0.00    +0.000 C 
ENDBRANCH  13  15
ENDBRANCH  11  13
ENDBRANCH  10  11
ENDBRANCH   1  10
BRANCH   7  16
ATOM     16  C   UNL     1       3.568   3.209  17.876  0.00  0.00    +0.000 C 
BRANCH  16  17
ATOM     17  O   UNL     1       2.270   3.226  17.265  0.00  0.00    +0.000 OA
BRANCH  17  18
ATOM     18  C   UNL     1       1.269   3.778  18.136  0.00  0.00    +0.000 C 
BRANCH  18  19
ATOM     19  C   UNL     1       1.665   3.524  19.588  0.00  0.00    +0.000 C 
BRANCH  19  20
ATOM     20  O   UNL     1       0.509   3.344  20.406  0.00  0.00    +0.000 OA
ATOM     21  H   UNL     1       0.357   2.382  20.437  0.00  0.00    +0.000 HD
ENDBRANCH  19  20
ENDBRANCH  18  19
ENDBRANCH  17  18
ENDBRANCH  16  17
ENDBRANCH   7  16
TORSDOF 9
ENDMDL
MODEL 9
REMARK VINA RESULT:      -6.2      2.112      4.588
REMARK  Name = 
REMARK  11 active torsions:
REMARK  status: ('A' for Active; 'I' for Inactive)
REMARK    1  A    between atoms: C_1  and  C_2
REMARK    2  A    between atoms: C_2  and  O_3
REMARK    3  A    between atoms: O_3  and  C_4
REMARK    4  A    between atoms: C_4  and  C_6
REMARK    5  A    between atoms: C_6  and  N_7
REMARK    6  A    between atoms: C_10  and  C_11
REMARK    7  A    between atoms: N_13  and  C_14
REMARK    8  A    between atoms: C_14  and  O_15
REMARK    9  A    between atoms: O_15  and  C_16
REMARK   10  A    between atoms: C_16  and  C_17
REMARK   11  A    between atoms: C_17  and  O_18
REMARK                            x       y       z     vdW  Elec       q    Type
REMARK                         _______ _______ _______ _____ _____    ______ ____
ROOT
ATOM      1  N   UNL     1       5.613   5.187  16.507  0.00  0.00    +0.000 N 
ATOM      2  C   UNL     1       6.484   5.966  17.236  0.00  0.00    +0.000 A 
ATOM      3  O   UNL     1       7.048   6.965  16.790  0.00  0.00    +0.000 OA
ATOM      4  C   UNL     1       6.735   5.511  18.616  0.00  0.00    +0.000 A 
ATOM      5  C   UNL     1       7.948   6.007  19.333  0.00  0.00    +0.000 C 
ATOM      6  C   UNL     1       5.848   4.683  19.169  0.00  0.00    +0.000 A 
ATOM      7  N   UNL     1       4.762   4.211  18.469  0.00  0.00    +0.000 N 
ATOM      8  C   UNL     1       4.626   4.402  17.096  0.00  0.00    +0.000 A 
ATOM      9  O   UNL     1       3.692   3.926  16.448  0.00  0.00    +0.000 OA
ENDROOT
BRANCH   1  10
ATOM     10  C   UNL     1       5.523   5.445  15.074  0.00  0.00    +0.000 C 
BRANCH  10  11
ATOM     11  C   UNL     1       6.656   4.763  14.328  0.00  0.00    +0.000 C 
ATOM     12  O   UNL     1       7.790   5.202  14.189  0.00  0.00    +0.000 OA
BRANCH  11  13
ATOM     13  O   UNL     1       6.183   3.616  13.750  0.00  0.00    +0.000 OA
BRANCH  13  15
ATOM     14  C   UNL     1       5.746   2.282  11.749  0.00  0.00    +0.000 C 
ATOM     15  C   UNL     1       6.098   3.640  12.320  0.00  0.00    +0.000 C 
ENDBRANCH  13  15
ENDBRANCH  11  13
ENDBRANCH  10  11
ENDBRANCH   1  10
BRANCH   7  16
ATOM     16  C   UNL     1       3.733   3.471  19.190  0.00  0.00    +0.000 C 
BRANCH  16  17
ATOM     17  O   UNL     1       2.628   4.328  19.512  0.00  0.00    +0.000 OA
BRANCH  17  18
ATOM     18  C   UNL     1       2.404   4.412  20.929  0.00  0.00    +0.000 C 
BRANCH  18  19
ATOM     19  C   UNL     1       2.529   3.021  21.546  0.00  0.00    +0.000 C 
BRANCH  19  20
ATOM     20  O   UNL     1       1.265   2.561  22.022  0.00  0.00    +0.000 OA
ATOM     21  H   UNL     1       0.647   3.301  21.882  0.00  0.00    +0.000 HD
ENDBRANCH  19  20
ENDBRANCH  18  19
ENDBRANCH  17  18
ENDBRANCH  16  17
ENDBRANCH   7  16
TORSDOF 9
ENDMDL
