MODEL 1
REMARK VINA RESULT:      -8.0      0.000      0.000
REMARK  Name = 
REMARK  3 active torsions:
REMARK  status: ('A' for Active; 'I' for Inactive)
REMARK    1  A    between atoms: C_1  and  C_2
REMARK    2  A    between atoms: N_9  and  C_10
REMARK    3  A    between atoms: C_17  and  C_18
REMARK                            x       y       z     vdW  Elec       q    Type
REMARK                         _______ _______ _______ _____ _____    ______ ____
ROOT
ATOM      1  C   UNL     1       7.829   6.964  17.972  0.00  0.00    +0.000 C 
ATOM      2  C   UNL     1       7.163   6.131  16.933  0.00  0.00    +0.000 A 
ATOM      3  N   UNL     1       7.725   6.098  15.682  0.00  0.00    +0.000 NA
ATOM      4  N   UNL     1       7.219   5.312  14.576  0.00  0.00    +0.000 NA
ATOM      5  C   UNL     1       6.139   4.512  14.696  0.00  0.00    +0.000 A 
ATOM      6 CL   UNL     1       5.570   3.604  13.394  0.00  0.00    +0.000 Cl
ATOM      7  C   UNL     1       5.508   4.491  15.950  0.00  0.00    +0.000 A 
ATOM      8  N   UNL     1       4.461   3.788  16.406  0.00  0.00    +0.000 NA
ATOM      9  N   UNL     1       4.205   4.235  17.663  0.00  0.00    +0.000 N 
ATOM     10  C   UNL     1       5.184   5.121  18.112  0.00  0.00    +0.000 A 
ATOM     11  C   UNL     1       5.300   5.643  19.501  0.00  0.00    +0.000 C 
ATOM     12  C   UNL     1       6.015   5.315  17.022  0.00  0.00    +0.000 A 
ENDROOT
BRANCH   9  13
ATOM     13  C   UNL     1       3.017   3.747  18.287  0.00  0.00    +0.000 A 
ATOM     14  C   UNL     1       1.816   3.580  17.589  0.00  0.00    +0.000 A 
ATOM     15  C   UNL     1       0.692   3.064  18.244  0.00  0.00    +0.000 A 
ATOM     16  C   UNL     1       0.761   2.704  19.590  0.00  0.00    +0.000 A 
ATOM     17  C   UNL     1       1.959   2.850  20.284  0.00  0.00    +0.000 A 
ATOM     18 CL   UNL     1       2.052   2.400  21.941  0.00  0.00    +0.000 Cl
ATOM     19  C   UNL     1       3.085   3.359  19.639  0.00  0.00    +0.000 A 
ENDBRANCH   9  13
TORSDOF 1
ENDMDL
MODEL 2
REMARK VINA RESULT:      -7.7      3.989      5.746
REMARK  Name = 
REMARK  3 active torsions:
REMARK  status: ('A' for Active; 'I' for Inactive)
REMARK    1  A    between atoms: C_1  and  C_2
REMARK    2  A    between atoms: N_9  and  C_10
REMARK    3  A    between atoms: C_17  and  C_18
REMARK                            x       y       z     vdW  Elec       q    Type
REMARK                         _______ _______ _______ _____ _____    ______ ____
ROOT
ATOM      1  C   UNL     1       4.878   4.114  16.688  0.00  0.00    +0.000 C 
ATOM      2  C   UNL     1       3.993   3.892  17.864  0.00  0.00    +0.000 A 
ATOM      3  N   UNL     1       3.839   2.606  18.317  0.00  0.00    +0.000 NA
ATOM      4  N   UNL     1       3.043   2.229  19.466  0.00  0.00    +0.000 NA
ATOM      5  C   UNL     1       2.389   3.140  20.218  0.00  0.00    +0.000 A 
ATOM      6 CL   UNL     1       1.470   2.679  21.554  0.00  0.00    +0.000 Cl
ATOM      7  C   UNL     1       2.500   4.482  19.818  0.00  0.00    +0.000 A 
ATOM      8  N   UNL     1       2.021   5.612  20.359  0.00  0.00    +0.000 NA
ATOM      9  N   UNL     1       2.337   6.620  19.506  0.00  0.00    +0.000 N 
ATOM     10  C   UNL     1       3.173   6.190  18.475  0.00  0.00    +0.000 A 
ATOM     11  C   UNL     1       3.848   7.076  17.488  0.00  0.00    +0.000 C 
ATOM     12  C   UNL     1       3.272   4.820  18.646  0.00  0.00    +0.000 A 
ENDROOT
BRANCH   9  13
ATOM     13  C   UNL     1       1.775   7.901  19.791  0.00  0.00    +0.000 A 
ATOM     14  C   UNL     1       1.646   8.899  18.818  0.00  0.00    +0.000 A 
ATOM     15  C   UNL     1       1.052  10.124  19.147  0.00  0.00    +0.000 A 
ATOM     16  C   UNL     1       0.579  10.356  20.439  0.00  0.00    +0.000 A 
ATOM     17  C   UNL     1       0.688   9.360  21.405  0.00  0.00    +0.000 A 
ATOM     18 CL   UNL     1       0.099   9.638  22.996  0.00  0.00    +0.000 Cl
ATOM     19  C   UNL     1       1.272   8.135  21.086  0.00  0.00    +0.000 A 
ENDBRANCH   9  13
TORSDOF 1
ENDMDL
MODEL 3
REMARK VINA RESULT:      -7.6      1.015      1.054
REMARK  Name = 
REMARK  3 active torsions:
REMARK  status: ('A' for Active; 'I' for Inactive)
REMARK    1  A    between atoms: C_1  and  C_2
REMARK    2  A    between atoms: N_9  and  C_10
REMARK    3  A    between atoms: C_17  and  C_18
REMARK                            x       y       z     vdW  Elec       q    Type
REMARK                         _______ _______ _______ _____ _____    ______ ____
ROOT
ATOM      1  C   UNL     1       7.847   7.000  17.947  0.00  0.00    +0.000 C 
ATOM      2  C   UNL     1       7.256   6.160  16.870  0.00  0.00    +0.000 A 
ATOM      3  N   UNL     1       7.850   6.190  15.634  0.00  0.00    +0.000 NA
ATOM      4  N   UNL     1       7.418   5.408  14.495  0.00  0.00    +0.000 NA
ATOM      5  C   UNL     1       6.381   4.547  14.566  0.00  0.00    +0.000 A 
ATOM      6 CL   UNL     1       5.897   3.644  13.227  0.00  0.00    +0.000 Cl
ATOM      7  C   UNL     1       5.720   4.458  15.802  0.00  0.00    +0.000 A 
ATOM      8  N   UNL     1       4.703   3.686  16.211  0.00  0.00    +0.000 NA
ATOM      9  N   UNL     1       4.390   4.085  17.471  0.00  0.00    +0.000 N 
ATOM     10  C   UNL     1       5.306   5.012  17.969  0.00  0.00    +0.000 A 
ATOM     11  C   UNL     1       5.357   5.503  19.373  0.00  0.00    +0.000 C 
ATOM     12  C   UNL     1       6.153   5.280  16.907  0.00  0.00    +0.000 A 
ENDROOT
BRANCH   9  13
ATOM     13  C   UNL     1       3.215   3.517  18.050  0.00  0.00    +0.000 A 
ATOM     14  C   UNL     1       2.838   2.187  17.834  0.00  0.00    +0.000 A 
ATOM     15  C   UNL     1       1.694   1.673  18.457  0.00  0.00    +0.000 A 
ATOM     16  C   UNL     1       0.929   2.477  19.303  0.00  0.00    +0.000 A 
ATOM     17  C   UNL     1       1.310   3.795  19.536  0.00  0.00    +0.000 A 
ATOM     18 CL   UNL     1       0.375   4.787  20.583  0.00  0.00    +0.000 Cl
ATOM     19  C   UNL     1       2.450   4.314  18.924  0.00  0.00    +0.000 A 
ENDBRANCH   9  13
TORSDOF 1
ENDMDL
MODEL 4
REMARK VINA RESULT:      -7.2      2.157      6.057
REMARK  Name = 
REMARK  3 active torsions:
REMARK  status: ('A' for Active; 'I' for Inactive)
REMARK    1  A    between atoms: C_1  and  C_2
REMARK    2  A    between atoms: N_9  and  C_10
REMARK    3  A    between atoms: C_17  and  C_18
REMARK                            x       y       z     vdW  Elec       q    Type
REMARK                         _______ _______ _______ _____ _____    ______ ____
ROOT
ATOM      1  C   UNL     1       1.981   7.498  20.114  0.00  0.00    +0.000 C 
ATOM      2  C   UNL     1       2.093   6.047  19.801  0.00  0.00    +0.000 A 
ATOM      3  N   UNL     1       1.361   5.170  20.560  0.00  0.00    +0.000 NA
ATOM      4  N   UNL     1       1.334   3.736  20.361  0.00  0.00    +0.000 NA
ATOM      5  C   UNL     1       2.029   3.133  19.374  0.00  0.00    +0.000 A 
ATOM      6 CL   UNL     1       1.980   1.462  19.159  0.00  0.00    +0.000 Cl
ATOM      7  C   UNL     1       2.804   3.967  18.551  0.00  0.00    +0.000 A 
ATOM      8  N   UNL     1       3.561   3.699  17.477  0.00  0.00    +0.000 NA
ATOM      9  N   UNL     1       4.175   4.860  17.130  0.00  0.00    +0.000 N 
ATOM     10  C   UNL     1       3.701   5.943  17.870  0.00  0.00    +0.000 A 
ATOM     11  C   UNL     1       4.028   7.372  17.609  0.00  0.00    +0.000 C 
ATOM     12  C   UNL     1       2.838   5.389  18.799  0.00  0.00    +0.000 A 
ENDROOT
BRANCH   9  13
ATOM     13  C   UNL     1       5.172   4.778  16.112  0.00  0.00    +0.000 A 
ATOM     14  C   UNL     1       6.497   5.174  16.323  0.00  0.00    +0.000 A 
ATOM     15  C   UNL     1       7.441   5.037  15.298  0.00  0.00    +0.000 A 
ATOM     16  C   UNL     1       7.072   4.497  14.065  0.00  0.00    +0.000 A 
ATOM     17  C   UNL     1       5.760   4.084  13.857  0.00  0.00    +0.000 A 
ATOM     18 CL   UNL     1       5.303   3.410  12.342  0.00  0.00    +0.000 Cl
ATOM     19  C   UNL     1       4.815   4.212  14.873  0.00  0.00    +0.000 A 
ENDBRANCH   9  13
TORSDOF 1
ENDMDL
MODEL 5
REMARK VINA RESULT:      -7.2      4.027      5.106
REMARK  Name = 
REMARK  3 active torsions:
REMARK  status: ('A' for Active; 'I' for Inactive)
REMARK    1  A    between atoms: C_1  and  C_2
REMARK    2  A    between atoms: N_9  and  C_10
REMARK    3  A    between atoms: C_17  and  C_18
REMARK                            x       y       z     vdW  Elec       q    Type
REMARK                         _______ _______ _______ _____ _____    ______ ____
ROOT
ATOM      1  C   UNL     1       3.144   2.506  19.831  0.00  0.00    +0.000 C 
ATOM      2  C   UNL     1       3.598   3.568  18.892  0.00  0.00    +0.000 A 
ATOM      3  N   UNL     1       4.501   3.220  17.919  0.00  0.00    +0.000 NA
ATOM      4  N   UNL     1       5.012   4.125  16.911  0.00  0.00    +0.000 NA
ATOM      5  C   UNL     1       4.616   5.413  16.833  0.00  0.00    +0.000 A 
ATOM      6 CL   UNL     1       5.223   6.448  15.649  0.00  0.00    +0.000 Cl
ATOM      7  C   UNL     1       3.689   5.846  17.795  0.00  0.00    +0.000 A 
ATOM      8  N   UNL     1       3.073   7.024  17.968  0.00  0.00    +0.000 NA
ATOM      9  N   UNL     1       2.358   6.928  19.119  0.00  0.00    +0.000 N 
ATOM     10  C   UNL     1       2.363   5.631  19.631  0.00  0.00    +0.000 A 
ATOM     11  C   UNL     1       1.530   5.151  20.768  0.00  0.00    +0.000 C 
ATOM     12  C   UNL     1       3.227   4.927  18.809  0.00  0.00    +0.000 A 
ENDROOT
BRANCH   9  13
ATOM     13  C   UNL     1       1.753   8.129  19.599  0.00  0.00    +0.000 A 
ATOM     14  C   UNL     1       1.448   9.205  18.758  0.00  0.00    +0.000 A 
ATOM     15  C   UNL     1       0.820  10.344  19.279  0.00  0.00    +0.000 A 
ATOM     16  C   UNL     1       0.487  10.411  20.632  0.00  0.00    +0.000 A 
ATOM     17  C   UNL     1       0.772   9.336  21.469  0.00  0.00    +0.000 A 
ATOM     18 CL   UNL     1       0.357   9.412  23.135  0.00  0.00    +0.000 Cl
ATOM     19  C   UNL     1       1.392   8.196  20.959  0.00  0.00    +0.000 A 
ENDBRANCH   9  13
TORSDOF 1
ENDMDL
MODEL 6
REMARK VINA RESULT:      -7.2      3.912      4.686
REMARK  Name = 
REMARK  3 active torsions:
REMARK  status: ('A' for Active; 'I' for Inactive)
REMARK    1  A    between atoms: C_1  and  C_2
REMARK    2  A    between atoms: N_9  and  C_10
REMARK    3  A    between atoms: C_17  and  C_18
REMARK                            x       y       z     vdW  Elec       q    Type
REMARK                         _______ _______ _______ _____ _____    ______ ____
ROOT
ATOM      1  C   UNL     1       3.661   2.506  17.427  0.00  0.00    +0.000 C 
ATOM      2  C   UNL     1       4.488   3.743  17.441  0.00  0.00    +0.000 A 
ATOM      3  N   UNL     1       5.820   3.628  17.132  0.00  0.00    +0.000 NA
ATOM      4  N   UNL     1       6.747   4.738  17.069  0.00  0.00    +0.000 NA
ATOM      5  C   UNL     1       6.362   6.012  17.294  0.00  0.00    +0.000 A 
ATOM      6 CL   UNL     1       7.459   7.289  17.213  0.00  0.00    +0.000 Cl
ATOM      7  C   UNL     1       5.009   6.212  17.616  0.00  0.00    +0.000 A 
ATOM      8  N   UNL     1       4.309   7.331  17.850  0.00  0.00    +0.000 NA
ATOM      9  N   UNL     1       3.060   6.943  18.219  0.00  0.00    +0.000 N 
ATOM     10  C   UNL     1       2.875   5.568  18.072  0.00  0.00    +0.000 A 
ATOM     11  C   UNL     1       1.576   4.855  18.209  0.00  0.00    +0.000 C 
ATOM     12  C   UNL     1       4.118   5.079  17.707  0.00  0.00    +0.000 A 
ENDROOT
BRANCH   9  13
ATOM     13  C   UNL     1       2.183   7.967  18.687  0.00  0.00    +0.000 A 
ATOM     14  C   UNL     1       1.599   8.907  17.830  0.00  0.00    +0.000 A 
ATOM     15  C   UNL     1       0.717   9.867  18.341  0.00  0.00    +0.000 A 
ATOM     16  C   UNL     1       0.407   9.889  19.701  0.00  0.00    +0.000 A 
ATOM     17  C   UNL     1       0.970   8.945  20.554  0.00  0.00    +0.000 A 
ATOM     18 CL   UNL     1       0.584   8.964  22.230  0.00  0.00    +0.000 Cl
ATOM     19  C   UNL     1       1.845   7.982  20.055  0.00  0.00    +0.000 A 
ENDBRANCH   9  13
TORSDOF 1
ENDMDL
MODEL 7
REMARK VINA RESULT:      -7.2      4.165      5.247
REMARK  Name = 
REMARK  3 active torsions:
REMARK  status: ('A' for Active; 'I' for Inactive)
REMARK    1  A    between atoms: C_1  and  C_2
REMARK    2  A    between atoms: N_9  and  C_10
REMARK    3  A    between atoms: C_17  and  C_18
REMARK                            x       y       z     vdW  Elec       q    Type
REMARK                         _______ _______ _______ _____ _____    ______ ____
ROOT
ATOM      1  C   UNL     1       3.253   2.558  20.531  0.00  0.00    +0.000 C 
ATOM      2  C   UNL     1       4.028   3.594  19.795  0.00  0.00    +0.000 A 
ATOM      3  N   UNL     1       5.278   3.256  19.340  0.00  0.00    +0.000 NA
ATOM      4  N   UNL     1       6.141   4.136  18.581  0.00  0.00    +0.000 NA
ATOM      5  C   UNL     1       5.768   5.385  18.233  0.00  0.00    +0.000 A 
ATOM      6 CL   UNL     1       6.789   6.392  17.346  0.00  0.00    +0.000 Cl
ATOM      7  C   UNL     1       4.498   5.805  18.662  0.00  0.00    +0.000 A 
ATOM      8  N   UNL     1       3.823   6.945  18.454  0.00  0.00    +0.000 NA
ATOM      9  N   UNL     1       2.682   6.864  19.187  0.00  0.00    +0.000 N 
ATOM     10  C   UNL     1       2.514   5.602  19.756  0.00  0.00    +0.000 A 
ATOM     11  C   UNL     1       1.289   5.130  20.457  0.00  0.00    +0.000 C 
ATOM     12  C   UNL     1       3.677   4.916  19.449  0.00  0.00    +0.000 A 
ENDROOT
BRANCH   9  13
ATOM     13  C   UNL     1       1.882   8.044  19.258  0.00  0.00    +0.000 A 
ATOM     14  C   UNL     1       1.532   8.785  18.123  0.00  0.00    +0.000 A 
ATOM     15  C   UNL     1       0.714   9.914  18.249  0.00  0.00    +0.000 A 
ATOM     16  C   UNL     1       0.234  10.303  19.500  0.00  0.00    +0.000 A 
ATOM     17  C   UNL     1       0.563   9.560  20.629  0.00  0.00    +0.000 A 
ATOM     18 CL   UNL     1      -0.032  10.031  22.171  0.00  0.00    +0.000 Cl
ATOM     19  C   UNL     1       1.373   8.431  20.513  0.00  0.00    +0.000 A 
ENDBRANCH   9  13
TORSDOF 1
ENDMDL
MODEL 8
REMARK VINA RESULT:      -7.1      4.184      5.417
REMARK  Name = 
REMARK  3 active torsions:
REMARK  status: ('A' for Active; 'I' for Inactive)
REMARK    1  A    between atoms: C_1  and  C_2
REMARK    2  A    between atoms: N_9  and  C_10
REMARK    3  A    between atoms: C_17  and  C_18
REMARK                            x       y       z     vdW  Elec       q    Type
REMARK                         _______ _______ _______ _____ _____    ______ ____
ROOT
ATOM      1  C   UNL     1       2.682   2.172  19.187  0.00  0.00    +0.000 C 
ATOM      2  C   UNL     1       3.268   3.331  18.459  0.00  0.00    +0.000 A 
ATOM      3  N   UNL     1       4.186   3.070  17.473  0.00  0.00    +0.000 NA
ATOM      4  N   UNL     1       4.819   4.081  16.653  0.00  0.00    +0.000 NA
ATOM      5  C   UNL     1       4.535   5.394  16.782  0.00  0.00    +0.000 A 
ATOM      6 CL   UNL     1       5.283   6.554  15.813  0.00  0.00    +0.000 Cl
ATOM      7  C   UNL     1       3.600   5.742  17.771  0.00  0.00    +0.000 A 
ATOM      8  N   UNL     1       3.076   6.925  18.121  0.00  0.00    +0.000 NA
ATOM      9  N   UNL     1       2.300   6.703  19.214  0.00  0.00    +0.000 N 
ATOM     10  C   UNL     1       2.172   5.343  19.497  0.00  0.00    +0.000 A 
ATOM     11  C   UNL     1       1.247   4.757  20.505  0.00  0.00    +0.000 C 
ATOM     12  C   UNL     1       3.015   4.712  18.597  0.00  0.00    +0.000 A 
ENDROOT
BRANCH   9  13
ATOM     13  C   UNL     1       1.773   7.856  19.870  0.00  0.00    +0.000 A 
ATOM     14  C   UNL     1       1.636   7.933  21.260  0.00  0.00    +0.000 A 
ATOM     15  C   UNL     1       1.146   9.104  21.852  0.00  0.00    +0.000 A 
ATOM     16  C   UNL     1       0.801  10.203  21.064  0.00  0.00    +0.000 A 
ATOM     17  C   UNL     1       0.952  10.138  19.682  0.00  0.00    +0.000 A 
ATOM     18 CL   UNL     1       0.536  11.492  18.708  0.00  0.00    +0.000 Cl
ATOM     19  C   UNL     1       1.444   8.978  19.085  0.00  0.00    +0.000 A 
ENDBRANCH   9  13
TORSDOF 1
ENDMDL
MODEL 9
REMARK VINA RESULT:      -7.1      4.377      6.145
REMARK  Name = 
REMARK  3 active torsions:
REMARK  status: ('A' for Active; 'I' for Inactive)
REMARK    1  A    between atoms: C_1  and  C_2
REMARK    2  A    between atoms: N_9  and  C_10
REMARK    3  A    between atoms: C_17  and  C_18
REMARK                            x       y       z     vdW  Elec       q    Type
REMARK                         _______ _______ _______ _____ _____    ______ ____
ROOT
ATOM      1  C   UNL     1       4.546   4.545  16.697  0.00  0.00    +0.000 C 
ATOM      2  C   UNL     1       3.752   4.209  17.910  0.00  0.00    +0.000 A 
ATOM      3  N   UNL     1       3.654   2.887  18.265  0.00  0.00    +0.000 NA
ATOM      4  N   UNL     1       2.950   2.401  19.433  0.00  0.00    +0.000 NA
ATOM      5  C   UNL     1       2.334   3.232  20.300  0.00  0.00    +0.000 A 
ATOM      6 CL   UNL     1       1.522   2.643  21.655  0.00  0.00    +0.000 Cl
ATOM      7  C   UNL     1       2.391   4.604  20.005  0.00  0.00    +0.000 A 
ATOM      8  N   UNL     1       1.931   5.675  20.668  0.00  0.00    +0.000 NA
ATOM      9  N   UNL     1       2.167   6.756  19.879  0.00  0.00    +0.000 N 
ATOM     10  C   UNL     1       2.934   6.430  18.761  0.00  0.00    +0.000 A 
ATOM     11  C   UNL     1       3.521   7.408  17.805  0.00  0.00    +0.000 C 
ATOM     12  C   UNL     1       3.071   5.053  18.812  0.00  0.00    +0.000 A 
ENDROOT
BRANCH   9  13
ATOM     13  C   UNL     1       1.602   7.995  20.307  0.00  0.00    +0.000 A 
ATOM     14  C   UNL     1       1.391   8.300  21.656  0.00  0.00    +0.000 A 
ATOM     15  C   UNL     1       0.868   9.547  22.018  0.00  0.00    +0.000 A 
ATOM     16  C   UNL     1       0.562  10.496  21.042  0.00  0.00    +0.000 A 
ATOM     17  C   UNL     1       0.787  10.205  19.700  0.00  0.00    +0.000 A 
ATOM     18 CL   UNL     1       0.419  11.374  18.494  0.00  0.00    +0.000 Cl
ATOM     19  C   UNL     1       1.313   8.968  19.330  0.00  0.00    +0.000 A 
ENDBRANCH   9  13
TORSDOF 1
ENDMDL
