MODEL 1
REMARK VINA RESULT:      -5.7      0.000      0.000
REMARK  Name = 
REMARK  13 active torsions:
REMARK  status: ('A' for Active; 'I' for Inactive)
REMARK    1  A    between atoms: N_1  and  C_2
REMARK    2  A    between atoms: C_2  and  C_3
REMARK    3  A    between atoms: C_3  and  C_4
REMARK    4  A    between atoms: C_4  and  C_5
REMARK    5  A    between atoms: C_5  and  C_6
REMARK    6  A    between atoms: C_6  and  C_7
REMARK    7  A    between atoms: C_7  and  C_8
REMARK    8  A    between atoms: C_8  and  C_9
REMARK    9  A    between atoms: C_9  and  C_10
REMARK   10  A    between atoms: C_13  and  C_14
REMARK   11  A    between atoms: C_14  and  C_15
REMARK   12  A    between atoms: C_15  and  C_16
REMARK   13  A    between atoms: C_16  and  N_17
REMARK                            x       y       z     vdW  Elec       q    Type
REMARK                         _______ _______ _______ _____ _____    ______ ____
ROOT
ATOM      1  C   UNL     1       4.537   5.424  19.440  0.00  0.00    +0.000 C 
ENDROOT
BRANCH   1   2
ATOM      2  C   UNL     1       5.523   5.108  18.359  0.00  0.00    +0.000 A 
ATOM      3  C   UNL     1       6.852   4.794  18.515  0.00  0.00    +0.000 A 
ATOM      4  C   UNL     1       7.519   4.595  17.276  0.00  0.00    +0.000 A 
ATOM      5  C   UNL     1       6.678   4.779  16.198  0.00  0.00    +0.000 A 
ATOM      6  S   UNL     1       5.082   5.157  16.707  0.00  0.00    +0.000 S 
BRANCH   5   7
ATOM      7  C   UNL     1       6.993   4.656  14.731  0.00  0.00    +0.000 C 
BRANCH   7   8
ATOM      8  C   UNL     1       5.839   4.044  13.936  0.00  0.00    +0.000 C 
BRANCH   8   9
ATOM      9  C   UNL     1       6.274   3.527  12.566  0.00  0.00    +0.000 C 
BRANCH   9  10
ATOM     10  N   UNL     1       5.090   3.179  11.790  0.00  0.00    +0.000 NA
ATOM     11  H   UNL     1       4.436   3.961  11.791  0.00  0.00    +0.000 HD
ATOM     12  H   UNL     1       4.611   2.399  12.234  0.00  0.00    +0.000 HD
ENDBRANCH   9  10
ENDBRANCH   8   9
ENDBRANCH   7   8
ENDBRANCH   5   7
ENDBRANCH   1   2
BRANCH   1  13
ATOM     13  C   UNL     1       3.357   6.250  18.954  0.00  0.00    +0.000 C 
BRANCH  13  14
ATOM     14  C   UNL     1       2.048   5.497  19.172  0.00  0.00    +0.000 C 
BRANCH  14  15
ATOM     15  C   UNL     1       2.077   4.765  20.507  0.00  0.00    +0.000 C 
BRANCH  15  16
ATOM     16  C   UNL     1       1.146   3.559  20.492  0.00  0.00    +0.000 C 
BRANCH  16  17
ATOM     17  C   UNL     1       1.901   2.310  20.055  0.00  0.00    +0.000 C 
BRANCH  17  18
ATOM     18  C   UNL     1       1.846   2.147  18.539  0.00  0.00    +0.000 C 
BRANCH  18  19
ATOM     19  C   UNL     1       3.251   2.035  17.956  0.00  0.00    +0.000 C 
BRANCH  19  20
ATOM     20  N   UNL     1       3.897   0.828  18.456  0.00  0.00    +0.000 NA
ATOM     21  H   UNL     1       4.262   1.004  19.390  0.00  0.00    +0.000 HD
ATOM     22  H   UNL     1       4.702   0.604  17.871  0.00  0.00    +0.000 HD
ENDBRANCH  19  20
ENDBRANCH  18  19
ENDBRANCH  17  18
ENDBRANCH  16  17
ENDBRANCH  15  16
ENDBRANCH  14  15
ENDBRANCH  13  14
ENDBRANCH   1  13
TORSDOF 13
ENDMDL
MODEL 2
REMARK VINA RESULT:      -5.7      4.681      8.175
REMARK  Name = 
REMARK  13 active torsions:
REMARK  status: ('A' for Active; 'I' for Inactive)
REMARK    1  A    between atoms: N_1  and  C_2
REMARK    2  A    between atoms: C_2  and  C_3
REMARK    3  A    between atoms: C_3  and  C_4
REMARK    4  A    between atoms: C_4  and  C_5
REMARK    5  A    between atoms: C_5  and  C_6
REMARK    6  A    between atoms: C_6  and  C_7
REMARK    7  A    between atoms: C_7  and  C_8
REMARK    8  A    between atoms: C_8  and  C_9
REMARK    9  A    between atoms: C_9  and  C_10
REMARK   10  A    between atoms: C_13  and  C_14
REMARK   11  A    between atoms: C_14  and  C_15
REMARK   12  A    between atoms: C_15  and  C_16
REMARK   13  A    between atoms: C_16  and  N_17
REMARK                            x       y       z     vdW  Elec       q    Type
REMARK                         _______ _______ _______ _____ _____    ______ ____
ROOT
ATOM      1  C   UNL     1       6.578   4.748  17.710  0.00  0.00    +0.000 C 
ENDROOT
BRANCH   1   2
ATOM      2  C   UNL     1       5.090   4.711  17.871  0.00  0.00    +0.000 A 
ATOM      3  C   UNL     1       4.194   5.691  17.516  0.00  0.00    +0.000 A 
ATOM      4  C   UNL     1       2.854   5.357  17.851  0.00  0.00    +0.000 A 
ATOM      5  C   UNL     1       2.764   4.129  18.472  0.00  0.00    +0.000 A 
ATOM      6  S   UNL     1       4.305   3.383  18.608  0.00  0.00    +0.000 S 
BRANCH   5   7
ATOM      7  C   UNL     1       1.535   3.419  18.972  0.00  0.00    +0.000 C 
BRANCH   7   8
ATOM      8  C   UNL     1       0.976   4.050  20.249  0.00  0.00    +0.000 C 
BRANCH   8   9
ATOM      9  C   UNL     1       1.981   4.047  21.398  0.00  0.00    +0.000 C 
BRANCH   9  10
ATOM     10  N   UNL     1       1.944   2.747  22.059  0.00  0.00    +0.000 NA
ATOM     11  H   UNL     1       2.838   2.273  21.936  0.00  0.00    +0.000 HD
ATOM     12  H   UNL     1       1.241   2.161  21.616  0.00  0.00    +0.000 HD
ENDBRANCH   9  10
ENDBRANCH   8   9
ENDBRANCH   7   8
ENDBRANCH   5   7
ENDBRANCH   1   2
BRANCH   1  13
ATOM     13  C   UNL     1       7.087   6.060  17.134  0.00  0.00    +0.000 C 
BRANCH  13  14
ATOM     14  C   UNL     1       7.670   6.939  18.236  0.00  0.00    +0.000 C 
BRANCH  14  15
ATOM     15  C   UNL     1       7.731   8.390  17.777  0.00  0.00    +0.000 C 
BRANCH  15  16
ATOM     16  C   UNL     1       8.830   9.152  18.507  0.00  0.00    +0.000 C 
BRANCH  16  17
ATOM     17  C   UNL     1       8.811  10.623  18.110  0.00  0.00    +0.000 C 
BRANCH  17  18
ATOM     18  C   UNL     1       9.880  11.402  18.870  0.00  0.00    +0.000 C 
BRANCH  18  19
ATOM     19  C   UNL     1      10.671  12.299  17.925  0.00  0.00    +0.000 C 
BRANCH  19  20
ATOM     20  N   UNL     1      11.847  11.589  17.439  0.00  0.00    +0.000 NA
ATOM     21  H   UNL     1      12.147  10.915  18.140  0.00  0.00    +0.000 HD
ATOM     22  H   UNL     1      12.618  12.245  17.321  0.00  0.00    +0.000 HD
ENDBRANCH  19  20
ENDBRANCH  18  19
ENDBRANCH  17  18
ENDBRANCH  16  17
ENDBRANCH  15  16
ENDBRANCH  14  15
ENDBRANCH  13  14
ENDBRANCH   1  13
TORSDOF 13
ENDMDL
MODEL 3
REMARK VINA RESULT:      -5.6      4.155      7.595
REMARK  Name = 
REMARK  13 active torsions:
REMARK  status: ('A' for Active; 'I' for Inactive)
REMARK    1  A    between atoms: N_1  and  C_2
REMARK    2  A    between atoms: C_2  and  C_3
REMARK    3  A    between atoms: C_3  and  C_4
REMARK    4  A    between atoms: C_4  and  C_5
REMARK    5  A    between atoms: C_5  and  C_6
REMARK    6  A    between atoms: C_6  and  C_7
REMARK    7  A    between atoms: C_7  and  C_8
REMARK    8  A    between atoms: C_8  and  C_9
REMARK    9  A    between atoms: C_9  and  C_10
REMARK   10  A    between atoms: C_13  and  C_14
REMARK   11  A    between atoms: C_14  and  C_15
REMARK   12  A    between atoms: C_15  and  C_16
REMARK   13  A    between atoms: C_16  and  N_17
REMARK                            x       y       z     vdW  Elec       q    Type
REMARK                         _______ _______ _______ _____ _____    ______ ____
ROOT
ATOM      1  C   UNL     1       4.702   6.329  17.347  0.00  0.00    +0.000 C 
ENDROOT
BRANCH   1   2
ATOM      2  C   UNL     1       3.905   5.085  17.589  0.00  0.00    +0.000 A 
ATOM      3  C   UNL     1       4.193   3.817  17.143  0.00  0.00    +0.000 A 
ATOM      4  C   UNL     1       3.202   2.867  17.511  0.00  0.00    +0.000 A 
ATOM      5  C   UNL     1       2.168   3.443  18.221  0.00  0.00    +0.000 A 
ATOM      6  S   UNL     1       2.434   5.123  18.459  0.00  0.00    +0.000 S 
BRANCH   5   7
ATOM      7  C   UNL     1       0.941   2.784  18.791  0.00  0.00    +0.000 C 
BRANCH   7   8
ATOM      8  C   UNL     1       0.678   3.197  20.241  0.00  0.00    +0.000 C 
BRANCH   8   9
ATOM      9  C   UNL     1       1.598   2.491  21.233  0.00  0.00    +0.000 C 
BRANCH   9  10
ATOM     10  N   UNL     1       2.289   3.492  22.037  0.00  0.00    +0.000 NA
ATOM     11  H   UNL     1       1.607   4.062  22.537  0.00  0.00    +0.000 HD
ATOM     12  H   UNL     1       2.802   4.122  21.426  0.00  0.00    +0.000 HD
ENDBRANCH   9  10
ENDBRANCH   8   9
ENDBRANCH   7   8
ENDBRANCH   5   7
ENDBRANCH   1   2
BRANCH   1  13
ATOM     13  C   UNL     1       5.670   6.204  16.181  0.00  0.00    +0.000 C 
BRANCH  13  14
ATOM     14  C   UNL     1       7.091   5.974  16.686  0.00  0.00    +0.000 C 
BRANCH  14  15
ATOM     15  C   UNL     1       7.363   6.840  17.910  0.00  0.00    +0.000 C 
BRANCH  15  16
ATOM     16  C   UNL     1       7.786   8.246  17.505  0.00  0.00    +0.000 C 
BRANCH  16  17
ATOM     17  C   UNL     1       8.589   8.902  18.622  0.00  0.00    +0.000 C 
BRANCH  17  18
ATOM     18  C   UNL     1       8.948  10.339  18.258  0.00  0.00    +0.000 C 
BRANCH  18  19
ATOM     19  C   UNL     1       9.917  10.929  19.277  0.00  0.00    +0.000 C 
BRANCH  19  20
ATOM     20  N   UNL     1       9.321  10.885  20.607  0.00  0.00    +0.000 NA
ATOM     21  H   UNL     1       9.919  10.343  21.227  0.00  0.00    +0.000 HD
ATOM     22  H   UNL     1       8.429  10.394  20.566  0.00  0.00    +0.000 HD
ENDBRANCH  19  20
ENDBRANCH  18  19
ENDBRANCH  17  18
ENDBRANCH  16  17
ENDBRANCH  15  16
ENDBRANCH  14  15
ENDBRANCH  13  14
ENDBRANCH   1  13
TORSDOF 13
ENDMDL
MODEL 4
REMARK VINA RESULT:      -5.6      2.012      6.819
REMARK  Name = 
REMARK  13 active torsions:
REMARK  status: ('A' for Active; 'I' for Inactive)
REMARK    1  A    between atoms: N_1  and  C_2
REMARK    2  A    between atoms: C_2  and  C_3
REMARK    3  A    between atoms: C_3  and  C_4
REMARK    4  A    between atoms: C_4  and  C_5
REMARK    5  A    between atoms: C_5  and  C_6
REMARK    6  A    between atoms: C_6  and  C_7
REMARK    7  A    between atoms: C_7  and  C_8
REMARK    8  A    between atoms: C_8  and  C_9
REMARK    9  A    between atoms: C_9  and  C_10
REMARK   10  A    between atoms: C_13  and  C_14
REMARK   11  A    between atoms: C_14  and  C_15
REMARK   12  A    between atoms: C_15  and  C_16
REMARK   13  A    between atoms: C_16  and  N_17
REMARK                            x       y       z     vdW  Elec       q    Type
REMARK                         _______ _______ _______ _____ _____    ______ ____
ROOT
ATOM      1  C   UNL     1       5.560   5.963  17.680  0.00  0.00    +0.000 C 
ENDROOT
BRANCH   1   2
ATOM      2  C   UNL     1       4.450   4.965  17.782  0.00  0.00    +0.000 A 
ATOM      3  C   UNL     1       4.392   3.726  17.188  0.00  0.00    +0.000 A 
ATOM      4  C   UNL     1       3.172   3.047  17.451  0.00  0.00    +0.000 A 
ATOM      5  C   UNL     1       2.317   3.798  18.232  0.00  0.00    +0.000 A 
ATOM      6  S   UNL     1       3.024   5.302  18.664  0.00  0.00    +0.000 S 
BRANCH   5   7
ATOM      7  C   UNL     1       0.944   3.437  18.733  0.00  0.00    +0.000 C 
BRANCH   7   8
ATOM      8  C   UNL     1       0.772   3.727  20.225  0.00  0.00    +0.000 C 
BRANCH   8   9
ATOM      9  C   UNL     1       1.409   2.659  21.111  0.00  0.00    +0.000 C 
BRANCH   9  10
ATOM     10  N   UNL     1       2.249   3.308  22.111  0.00  0.00    +0.000 NA
ATOM     11  H   UNL     1       2.126   4.319  22.059  0.00  0.00    +0.000 HD
ATOM     12  H   UNL     1       3.227   3.123  21.904  0.00  0.00    +0.000 HD
ENDBRANCH   9  10
ENDBRANCH   8   9
ENDBRANCH   7   8
ENDBRANCH   5   7
ENDBRANCH   1   2
BRANCH   1  13
ATOM     13  C   UNL     1       6.590   5.609  16.619  0.00  0.00    +0.000 C 
BRANCH  13  14
ATOM     14  C   UNL     1       5.957   5.618  15.232  0.00  0.00    +0.000 C 
BRANCH  14  15
ATOM     15  C   UNL     1       6.720   4.689  14.297  0.00  0.00    +0.000 C 
BRANCH  15  16
ATOM     16  C   UNL     1       5.769   3.774  13.536  0.00  0.00    +0.000 C 
BRANCH  16  17
ATOM     17  C   UNL     1       6.370   3.383  12.191  0.00  0.00    +0.000 C 
BRANCH  17  18
ATOM     18  C   UNL     1       5.566   2.259  11.545  0.00  0.00    +0.000 C 
BRANCH  18  19
ATOM     19  C   UNL     1       6.493   1.194  10.967  0.00  0.00    +0.000 C 
BRANCH  19  20
ATOM     20  N   UNL     1       6.137  -0.113  11.502  0.00  0.00    +0.000 NA
ATOM     21  H   UNL     1       6.291  -0.823  10.789  0.00  0.00    +0.000 HD
ATOM     22  H   UNL     1       5.141  -0.135  11.719  0.00  0.00    +0.000 HD
ENDBRANCH  19  20
ENDBRANCH  18  19
ENDBRANCH  17  18
ENDBRANCH  16  17
ENDBRANCH  15  16
ENDBRANCH  14  15
ENDBRANCH  13  14
ENDBRANCH   1  13
TORSDOF 13
ENDMDL
MODEL 5
REMARK VINA RESULT:      -5.4      5.685      8.746
REMARK  Name = 
REMARK  13 active torsions:
REMARK  status: ('A' for Active; 'I' for Inactive)
REMARK    1  A    between atoms: N_1  and  C_2
REMARK    2  A    between atoms: C_2  and  C_3
REMARK    3  A    between atoms: C_3  and  C_4
REMARK    4  A    between atoms: C_4  and  C_5
REMARK    5  A    between atoms: C_5  and  C_6
REMARK    6  A    between atoms: C_6  and  C_7
REMARK    7  A    between atoms: C_7  and  C_8
REMARK    8  A    between atoms: C_8  and  C_9
REMARK    9  A    between atoms: C_9  and  C_10
REMARK   10  A    between atoms: C_13  and  C_14
REMARK   11  A    between atoms: C_14  and  C_15
REMARK   12  A    between atoms: C_15  and  C_16
REMARK   13  A    between atoms: C_16  and  N_17
REMARK                            x       y       z     vdW  Elec       q    Type
REMARK                         _______ _______ _______ _____ _____    ______ ____
ROOT
ATOM      1  C   UNL     1       7.818   7.000  18.106  0.00  0.00    +0.000 C 
ENDROOT
BRANCH   1   2
ATOM      2  C   UNL     1       6.578   6.287  17.664  0.00  0.00    +0.000 A 
ATOM      3  C   UNL     1       6.057   6.242  16.392  0.00  0.00    +0.000 A 
ATOM      4  C   UNL     1       4.838   5.514  16.324  0.00  0.00    +0.000 A 
ATOM      5  C   UNL     1       4.450   5.033  17.557  0.00  0.00    +0.000 A 
ATOM      6  S   UNL     1       5.590   5.443  18.775  0.00  0.00    +0.000 S 
BRANCH   5   7
ATOM      7  C   UNL     1       3.234   4.217  17.905  0.00  0.00    +0.000 C 
BRANCH   7   8
ATOM      8  C   UNL     1       2.228   5.000  18.751  0.00  0.00    +0.000 C 
BRANCH   8   9
ATOM      9  C   UNL     1       2.068   4.428  20.158  0.00  0.00    +0.000 C 
BRANCH   9  10
ATOM     10  N   UNL     1       0.711   3.918  20.313  0.00  0.00    +0.000 NA
ATOM     11  H   UNL     1       0.672   3.278  21.104  0.00  0.00    +0.000 HD
ATOM     12  H   UNL     1       0.456   3.378  19.489  0.00  0.00    +0.000 HD
ENDBRANCH   9  10
ENDBRANCH   8   9
ENDBRANCH   7   8
ENDBRANCH   5   7
ENDBRANCH   1   2
BRANCH   1  13
ATOM     13  C   UNL     1       7.819   8.478  17.750  0.00  0.00    +0.000 C 
BRANCH  13  14
ATOM     14  C   UNL     1       8.716   9.259  18.705  0.00  0.00    +0.000 C 
BRANCH  14  15
ATOM     15  C   UNL     1       9.037  10.631  18.125  0.00  0.00    +0.000 C 
BRANCH  15  16
ATOM     16  C   UNL     1       9.521  11.585  19.209  0.00  0.00    +0.000 C 
BRANCH  16  17
ATOM     17  C   UNL     1      11.034  11.755  19.132  0.00  0.00    +0.000 C 
BRANCH  17  18
ATOM     18  C   UNL     1      11.491  11.883  17.682  0.00  0.00    +0.000 C 
BRANCH  18  19
ATOM     19  C   UNL     1      11.913  13.315  17.373  0.00  0.00    +0.000 C 
BRANCH  19  20
ATOM     20  N   UNL     1      11.222  13.786  16.179  0.00  0.00    +0.000 NA
ATOM     21  H   UNL     1      10.316  14.167  16.443  0.00  0.00    +0.000 HD
ATOM     22  H   UNL     1      11.034  12.999  15.560  0.00  0.00    +0.000 HD
ENDBRANCH  19  20
ENDBRANCH  18  19
ENDBRANCH  17  18
ENDBRANCH  16  17
ENDBRANCH  15  16
ENDBRANCH  14  15
ENDBRANCH  13  14
ENDBRANCH   1  13
TORSDOF 13
ENDMDL
MODEL 6
REMARK VINA RESULT:      -5.4      2.816      7.354
REMARK  Name = 
REMARK  13 active torsions:
REMARK  status: ('A' for Active; 'I' for Inactive)
REMARK    1  A    between atoms: N_1  and  C_2
REMARK    2  A    between atoms: C_2  and  C_3
REMARK    3  A    between atoms: C_3  and  C_4
REMARK    4  A    between atoms: C_4  and  C_5
REMARK    5  A    between atoms: C_5  and  C_6
REMARK    6  A    between atoms: C_6  and  C_7
REMARK    7  A    between atoms: C_7  and  C_8
REMARK    8  A    between atoms: C_8  and  C_9
REMARK    9  A    between atoms: C_9  and  C_10
REMARK   10  A    between atoms: C_13  and  C_14
REMARK   11  A    between atoms: C_14  and  C_15
REMARK   12  A    between atoms: C_15  and  C_16
REMARK   13  A    between atoms: C_16  and  N_17
REMARK                            x       y       z     vdW  Elec       q    Type
REMARK                         _______ _______ _______ _____ _____    ______ ____
ROOT
ATOM      1  C   UNL     1       5.375   4.559  14.502  0.00  0.00    +0.000 C 
ENDROOT
BRANCH   1   2
ATOM      2  C   UNL     1       5.369   4.461  15.995  0.00  0.00    +0.000 A 
ATOM      3  C   UNL     1       6.417   4.723  16.846  0.00  0.00    +0.000 A 
ATOM      4  C   UNL     1       6.089   4.485  18.209  0.00  0.00    +0.000 A 
ATOM      5  C   UNL     1       4.796   4.029  18.361  0.00  0.00    +0.000 A 
ATOM      6  S   UNL     1       3.987   3.930  16.850  0.00  0.00    +0.000 S 
BRANCH   5   7
ATOM      7  C   UNL     1       4.071   3.671  19.631  0.00  0.00    +0.000 C 
BRANCH   7   8
ATOM      8  C   UNL     1       2.580   4.006  19.566  0.00  0.00    +0.000 C 
BRANCH   8   9
ATOM      9  C   UNL     1       2.127   4.910  20.710  0.00  0.00    +0.000 C 
BRANCH   9  10
ATOM     10  N   UNL     1       2.452   6.293  20.381  0.00  0.00    +0.000 NA
ATOM     11  H   UNL     1       1.953   6.922  21.008  0.00  0.00    +0.000 HD
ATOM     12  H   UNL     1       2.127   6.502  19.440  0.00  0.00    +0.000 HD
ENDBRANCH   9  10
ENDBRANCH   8   9
ENDBRANCH   7   8
ENDBRANCH   5   7
ENDBRANCH   1   2
BRANCH   1  13
ATOM     13  C   UNL     1       6.675   4.082  13.873  0.00  0.00    +0.000 C 
BRANCH  13  14
ATOM     14  C   UNL     1       6.441   3.630  12.435  0.00  0.00    +0.000 C 
BRANCH  14  15
ATOM     15  C   UNL     1       4.962   3.725  12.086  0.00  0.00    +0.000 C 
BRANCH  15  16
ATOM     16  C   UNL     1       4.512   2.521  11.269  0.00  0.00    +0.000 C 
BRANCH  16  17
ATOM     17  C   UNL     1       3.253   2.854  10.478  0.00  0.00    +0.000 C 
BRANCH  17  18
ATOM     18  C   UNL     1       3.183   4.348  10.176  0.00  0.00    +0.000 C 
BRANCH  18  19
ATOM     19  C   UNL     1       2.745   4.589   8.735  0.00  0.00    +0.000 C 
BRANCH  19  20
ATOM     20  N   UNL     1       1.682   5.586   8.703  0.00  0.00    +0.000 NA
ATOM     21  H   UNL     1       1.596   6.017   9.622  0.00  0.00    +0.000 HD
ATOM     22  H   UNL     1       0.790   5.129   8.516  0.00  0.00    +0.000 HD
ENDBRANCH  19  20
ENDBRANCH  18  19
ENDBRANCH  17  18
ENDBRANCH  16  17
ENDBRANCH  15  16
ENDBRANCH  14  15
ENDBRANCH  13  14
ENDBRANCH   1  13
TORSDOF 13
ENDMDL
MODEL 7
REMARK VINA RESULT:      -5.4      1.916      6.577
REMARK  Name = 
REMARK  13 active torsions:
REMARK  status: ('A' for Active; 'I' for Inactive)
REMARK    1  A    between atoms: N_1  and  C_2
REMARK    2  A    between atoms: C_2  and  C_3
REMARK    3  A    between atoms: C_3  and  C_4
REMARK    4  A    between atoms: C_4  and  C_5
REMARK    5  A    between atoms: C_5  and  C_6
REMARK    6  A    between atoms: C_6  and  C_7
REMARK    7  A    between atoms: C_7  and  C_8
REMARK    8  A    between atoms: C_8  and  C_9
REMARK    9  A    between atoms: C_9  and  C_10
REMARK   10  A    between atoms: C_13  and  C_14
REMARK   11  A    between atoms: C_14  and  C_15
REMARK   12  A    between atoms: C_15  and  C_16
REMARK   13  A    between atoms: C_16  and  N_17
REMARK                            x       y       z     vdW  Elec       q    Type
REMARK                         _______ _______ _______ _____ _____    ______ ____
ROOT
ATOM      1  C   UNL     1       4.383   6.408  17.063  0.00  0.00    +0.000 C 
ENDROOT
BRANCH   1   2
ATOM      2  C   UNL     1       4.058   5.116  17.744  0.00  0.00    +0.000 A 
ATOM      3  C   UNL     1       3.537   3.983  17.165  0.00  0.00    +0.000 A 
ATOM      4  C   UNL     1       3.302   2.944  18.106  0.00  0.00    +0.000 A 
ATOM      5  C   UNL     1       3.638   3.321  19.391  0.00  0.00    +0.000 A 
ATOM      6  S   UNL     1       4.266   4.918  19.430  0.00  0.00    +0.000 S 
BRANCH   5   7
ATOM      7  C   UNL     1       3.545   2.514  20.659  0.00  0.00    +0.000 C 
BRANCH   7   8
ATOM      8  C   UNL     1       2.336   2.904  21.511  0.00  0.00    +0.000 C 
BRANCH   8   9
ATOM      9  C   UNL     1       1.368   3.828  20.775  0.00  0.00    +0.000 C 
BRANCH   9  10
ATOM     10  N   UNL     1       0.302   3.028  20.185  0.00  0.00    +0.000 NA
ATOM     11  H   UNL     1       0.450   2.043  20.401  0.00  0.00    +0.000 HD
ATOM     12  H   UNL     1       0.336   3.112  19.172  0.00  0.00    +0.000 HD
ENDBRANCH   9  10
ENDBRANCH   8   9
ENDBRANCH   7   8
ENDBRANCH   5   7
ENDBRANCH   1   2
BRANCH   1  13
ATOM     13  C   UNL     1       5.246   6.233  15.823  0.00  0.00    +0.000 C 
BRANCH  13  14
ATOM     14  C   UNL     1       6.666   5.836  16.210  0.00  0.00    +0.000 C 
BRANCH  14  15
ATOM     15  C   UNL     1       6.944   4.397  15.794  0.00  0.00    +0.000 C 
BRANCH  15  16
ATOM     16  C   UNL     1       6.328   4.089  14.436  0.00  0.00    +0.000 C 
BRANCH  16  17
ATOM     17  C   UNL     1       7.217   4.619  13.316  0.00  0.00    +0.000 C 
BRANCH  17  18
ATOM     18  C   UNL     1       6.964   3.859  12.018  0.00  0.00    +0.000 C 
BRANCH  18  19
ATOM     19  C   UNL     1       5.666   3.063  12.102  0.00  0.00    +0.000 C 
BRANCH  19  20
ATOM     20  N   UNL     1       5.872   1.725  11.561  0.00  0.00    +0.000 NA
ATOM     21  H   UNL     1       5.903   1.774  10.545  0.00  0.00    +0.000 HD
ATOM     22  H   UNL     1       5.075   1.135  11.796  0.00  0.00    +0.000 HD
ENDBRANCH  19  20
ENDBRANCH  18  19
ENDBRANCH  17  18
ENDBRANCH  16  17
ENDBRANCH  15  16
ENDBRANCH  14  15
ENDBRANCH  13  14
ENDBRANCH   1  13
TORSDOF 13
ENDMDL
MODEL 8
REMARK VINA RESULT:      -5.4      3.406      4.240
REMARK  Name = 
REMARK  13 active torsions:
REMARK  status: ('A' for Active; 'I' for Inactive)
REMARK    1  A    between atoms: N_1  and  C_2
REMARK    2  A    between atoms: C_2  and  C_3
REMARK    3  A    between atoms: C_3  and  C_4
REMARK    4  A    between atoms: C_4  and  C_5
REMARK    5  A    between atoms: C_5  and  C_6
REMARK    6  A    between atoms: C_6  and  C_7
REMARK    7  A    between atoms: C_7  and  C_8
REMARK    8  A    between atoms: C_8  and  C_9
REMARK    9  A    between atoms: C_9  and  C_10
REMARK   10  A    between atoms: C_13  and  C_14
REMARK   11  A    between atoms: C_14  and  C_15
REMARK   12  A    between atoms: C_15  and  C_16
REMARK   13  A    between atoms: C_16  and  N_17
REMARK                            x       y       z     vdW  Elec       q    Type
REMARK                         _______ _______ _______ _____ _____    ______ ____
ROOT
ATOM      1  C   UNL     1       2.232   5.809  18.046  0.00  0.00    +0.000 C 
ENDROOT
BRANCH   1   2
ATOM      2  C   UNL     1       3.720   5.776  18.203  0.00  0.00    +0.000 A 
ATOM      3  C   UNL     1       4.431   5.224  19.242  0.00  0.00    +0.000 A 
ATOM      4  C   UNL     1       5.834   5.406  19.105  0.00  0.00    +0.000 A 
ATOM      5  C   UNL     1       6.158   6.112  17.964  0.00  0.00    +0.000 A 
ATOM      6  S   UNL     1       4.755   6.513  17.058  0.00  0.00    +0.000 S 
BRANCH   5   7
ATOM      7  C   UNL     1       7.521   6.504  17.460  0.00  0.00    +0.000 C 
BRANCH   7   8
ATOM      8  C   UNL     1       8.218   7.506  18.382  0.00  0.00    +0.000 C 
BRANCH   8   9
ATOM      9  C   UNL     1       8.081   8.948  17.898  0.00  0.00    +0.000 C 
BRANCH   9  10
ATOM     10  N   UNL     1       8.876   9.816  18.759  0.00  0.00    +0.000 NA
ATOM     11  H   UNL     1       9.856   9.539  18.717  0.00  0.00    +0.000 HD
ATOM     12  H   UNL     1       8.582   9.696  19.726  0.00  0.00    +0.000 HD
ENDBRANCH   9  10
ENDBRANCH   8   9
ENDBRANCH   7   8
ENDBRANCH   5   7
ENDBRANCH   1   2
BRANCH   1  13
ATOM     13  C   UNL     1       1.660   4.521  17.477  0.00  0.00    +0.000 C 
BRANCH  13  14
ATOM     14  C   UNL     1       2.764   3.489  17.269  0.00  0.00    +0.000 C 
BRANCH  14  15
ATOM     15  C   UNL     1       2.471   2.232  18.079  0.00  0.00    +0.000 C 
BRANCH  15  16
ATOM     16  C   UNL     1       1.044   2.242  18.611  0.00  0.00    +0.000 C 
BRANCH  16  17
ATOM     17  C   UNL     1       1.043   2.190  20.134  0.00  0.00    +0.000 C 
BRANCH  17  18
ATOM     18  C   UNL     1       1.081   3.597  20.723  0.00  0.00    +0.000 C 
BRANCH  18  19
ATOM     19  C   UNL     1       2.271   3.759  21.662  0.00  0.00    +0.000 C 
BRANCH  19  20
ATOM     20  N   UNL     1       2.904   2.465  21.884  0.00  0.00    +0.000 NA
ATOM     21  H   UNL     1       2.190   1.775  22.111  0.00  0.00    +0.000 HD
ATOM     22  H   UNL     1       3.519   2.519  22.695  0.00  0.00    +0.000 HD
ENDBRANCH  19  20
ENDBRANCH  18  19
ENDBRANCH  17  18
ENDBRANCH  16  17
ENDBRANCH  15  16
ENDBRANCH  14  15
ENDBRANCH  13  14
ENDBRANCH   1  13
TORSDOF 13
ENDMDL
MODEL 9
REMARK VINA RESULT:      -5.4      1.298      1.409
REMARK  Name = 
REMARK  13 active torsions:
REMARK  status: ('A' for Active; 'I' for Inactive)
REMARK    1  A    between atoms: N_1  and  C_2
REMARK    2  A    between atoms: C_2  and  C_3
REMARK    3  A    between atoms: C_3  and  C_4
REMARK    4  A    between atoms: C_4  and  C_5
REMARK    5  A    between atoms: C_5  and  C_6
REMARK    6  A    between atoms: C_6  and  C_7
REMARK    7  A    between atoms: C_7  and  C_8
REMARK    8  A    between atoms: C_8  and  C_9
REMARK    9  A    between atoms: C_9  and  C_10
REMARK   10  A    between atoms: C_13  and  C_14
REMARK   11  A    between atoms: C_14  and  C_15
REMARK   12  A    between atoms: C_15  and  C_16
REMARK   13  A    between atoms: C_16  and  N_17
REMARK                            x       y       z     vdW  Elec       q    Type
REMARK                         _______ _______ _______ _____ _____    ______ ____
ROOT
ATOM      1  C   UNL     1       3.718   6.366  17.849  0.00  0.00    +0.000 C 
ENDROOT
BRANCH   1   2
ATOM      2  C   UNL     1       4.488   5.527  16.878  0.00  0.00    +0.000 A 
ATOM      3  C   UNL     1       4.678   4.167  16.927  0.00  0.00    +0.000 A 
ATOM      4  C   UNL     1       5.501   3.688  15.872  0.00  0.00    +0.000 A 
ATOM      5  C   UNL     1       5.934   4.707  15.048  0.00  0.00    +0.000 A 
ATOM      6  S   UNL     1       5.305   6.225  15.548  0.00  0.00    +0.000 S 
BRANCH   5   7
ATOM      7  C   UNL     1       6.809   4.617  13.827  0.00  0.00    +0.000 C 
BRANCH   7   8
ATOM      8  C   UNL     1       6.366   3.508  12.871  0.00  0.00    +0.000 C 
BRANCH   8   9
ATOM      9  C   UNL     1       4.940   3.703  12.361  0.00  0.00    +0.000 C 
BRANCH   9  10
ATOM     10  N   UNL     1       4.672   2.726  11.312  0.00  0.00    +0.000 NA
ATOM     11  H   UNL     1       3.801   2.236  11.512  0.00  0.00    +0.000 HD
ATOM     12  H   UNL     1       5.407   2.023  11.309  0.00  0.00    +0.000 HD
ENDBRANCH   9  10
ENDBRANCH   8   9
ENDBRANCH   7   8
ENDBRANCH   5   7
ENDBRANCH   1   2
BRANCH   1  13
ATOM     13  C   UNL     1       3.706   5.794  19.258  0.00  0.00    +0.000 C 
BRANCH  13  14
ATOM     14  C   UNL     1       2.360   6.049  19.929  0.00  0.00    +0.000 C 
BRANCH  14  15
ATOM     15  C   UNL     1       2.016   4.905  20.873  0.00  0.00    +0.000 C 
BRANCH  15  16
ATOM     16  C   UNL     1       0.975   3.979  20.257  0.00  0.00    +0.000 C 
BRANCH  16  17
ATOM     17  C   UNL     1       1.423   2.526  20.367  0.00  0.00    +0.000 C 
BRANCH  17  18
ATOM     18  C   UNL     1       2.049   2.052  19.060  0.00  0.00    +0.000 C 
BRANCH  18  19
ATOM     19  C   UNL     1       3.553   1.862  19.218  0.00  0.00    +0.000 C 
BRANCH  19  20
ATOM     20  N   UNL     1       4.014   0.808  18.324  0.00  0.00    +0.000 NA
ATOM     21  H   UNL     1       4.508   1.224  17.538  0.00  0.00    +0.000 HD
ATOM     22  H   UNL     1       3.211   0.317  17.932  0.00  0.00    +0.000 HD
ENDBRANCH  19  20
ENDBRANCH  18  19
ENDBRANCH  17  18
ENDBRANCH  16  17
ENDBRANCH  15  16
ENDBRANCH  14  15
ENDBRANCH  13  14
ENDBRANCH   1  13
TORSDOF 13
ENDMDL
