MODEL 1
REMARK VINA RESULT:      -8.2      0.000      0.000
REMARK  Name = 
REMARK  10 active torsions:
REMARK  status: ('A' for Active; 'I' for Inactive)
REMARK    1  A    between atoms: C_1  and  C_2
REMARK    2  A    between atoms: C_2  and  C_3
REMARK    3  A    between atoms: C_6  and  C_7
REMARK    4  A    between atoms: C_9  and  C_10
REMARK    5  A    between atoms: C_10  and  O_11
REMARK    6  A    between atoms: C_12  and  O_13
REMARK    7  A    between atoms: C_14  and  O_15
REMARK    8  A    between atoms: C_16  and  O_17
REMARK    9  A    between atoms: C_19  and  C_20
REMARK   10  A    between atoms: C_20  and  C_21
REMARK                            x       y       z     vdW  Elec       q    Type
REMARK                         _______ _______ _______ _____ _____    ______ ____
ROOT
ATOM      1  C   UNL     1       0.949   9.085  20.629  0.00  0.00    +0.000 A 
ATOM      2  C   UNL     1       1.481   7.928  21.231  0.00  0.00    +0.000 A 
ATOM      3  C   UNL     1       2.093   6.929  20.476  0.00  0.00    +0.000 A 
ATOM      4  C   UNL     1       2.185   7.049  19.086  0.00  0.00    +0.000 A 
ATOM      5  C   UNL     1       1.717   8.232  18.491  0.00  0.00    +0.000 A 
ATOM      6  C   UNL     1       1.119   9.265  19.244  0.00  0.00    +0.000 A 
ENDROOT
BRANCH   4   7
ATOM      7  C   UNL     1       2.704   5.893  18.248  0.00  0.00    +0.000 C 
ATOM      8  O   UNL     1       1.899   4.750  18.552  0.00  0.00    +0.000 OA
ATOM      9  C   UNL     1       2.295   3.538  17.914  0.00  0.00    +0.000 C 
ATOM     10  C   UNL     1       3.736   3.172  18.295  0.00  0.00    +0.000 C 
ATOM     11  C   UNL     1       4.671   4.327  17.913  0.00  0.00    +0.000 C 
ATOM     12  C   UNL     1       4.203   5.644  18.554  0.00  0.00    +0.000 C 
BRANCH  10  13
ATOM     13  O   UNL     1       4.126   1.946  17.662  0.00  0.00    +0.000 OA
ATOM     14  H   UNL     1       3.792   1.952  16.746  0.00  0.00    +0.000 HD
ENDBRANCH  10  13
BRANCH  11  15
ATOM     15  O   UNL     1       6.019   4.017  18.288  0.00  0.00    +0.000 OA
ATOM     16  H   UNL     1       6.505   4.853  18.405  0.00  0.00    +0.000 HD
ENDBRANCH  11  15
BRANCH  12  17
ATOM     17  O   UNL     1       5.032   6.724  18.096  0.00  0.00    +0.000 OA
ATOM     18  H   UNL     1       4.846   7.515  18.630  0.00  0.00    +0.000 HD
ENDBRANCH  12  17
BRANCH   9  19
ATOM     19  C   UNL     1       1.304   2.446  18.349  0.00  0.00    +0.000 C 
BRANCH  19  20
ATOM     20  O   UNL     1       1.913   1.423  19.126  0.00  0.00    +0.000 OA
ATOM     21  H   UNL     1       1.571   0.567  18.791  0.00  0.00    +0.000 HD
ENDBRANCH  19  20
ENDBRANCH   9  19
ENDBRANCH   4   7
BRANCH   1  23
ATOM     22  C   UNL     1      -0.064   9.502  22.907  0.00  0.00    +0.000 C 
ATOM     23  C   UNL     1       0.193  10.046  21.512  0.00  0.00    +0.000 C 
ENDBRANCH   1  23
BRANCH   6  24
ATOM     24  C   UNL     1       0.677  10.520  18.511  0.00  0.00    +0.000 C 
BRANCH  24  25
ATOM     25  C   UNL     1      -0.800  10.665  18.198  0.00  0.00    +0.000 A 
ATOM     26  C   UNL     1      -1.372   9.757  17.265  0.00  0.00    +0.000 A 
ATOM     27  C   UNL     1      -2.748   9.733  17.015  0.00  0.00    +0.000 A 
ATOM     28  C   UNL     1      -3.524  10.621  17.715  0.00  0.00    +0.000 A 
ATOM     29  C   UNL     1      -2.980  11.533  18.583  0.00  0.00    +0.000 A 
ATOM     30  C   UNL     1      -1.631  11.600  18.834  0.00  0.00    +0.000 A 
ATOM     31  C   UNL     1      -4.312  12.116  18.956  0.00  0.00    +0.000 C 
ATOM     32  C   UNL     1      -4.934  11.051  17.994  0.00  0.00    +0.000 C 
ENDBRANCH  24  25
ENDBRANCH   6  24
TORSDOF 9
ENDMDL
MODEL 2
REMARK VINA RESULT:      -8.2      3.272      8.426
REMARK  Name = 
REMARK  10 active torsions:
REMARK  status: ('A' for Active; 'I' for Inactive)
REMARK    1  A    between atoms: C_1  and  C_2
REMARK    2  A    between atoms: C_2  and  C_3
REMARK    3  A    between atoms: C_6  and  C_7
REMARK    4  A    between atoms: C_9  and  C_10
REMARK    5  A    between atoms: C_10  and  O_11
REMARK    6  A    between atoms: C_12  and  O_13
REMARK    7  A    between atoms: C_14  and  O_15
REMARK    8  A    between atoms: C_16  and  O_17
REMARK    9  A    between atoms: C_19  and  C_20
REMARK   10  A    between atoms: C_20  and  C_21
REMARK                            x       y       z     vdW  Elec       q    Type
REMARK                         _______ _______ _______ _____ _____    ______ ____
ROOT
ATOM      1  C   UNL     1       3.208   3.733  19.579  0.00  0.00    +0.000 A 
ATOM      2  C   UNL     1       1.889   4.131  19.874  0.00  0.00    +0.000 A 
ATOM      3  C   UNL     1       1.524   5.475  19.910  0.00  0.00    +0.000 A 
ATOM      4  C   UNL     1       2.470   6.473  19.659  0.00  0.00    +0.000 A 
ATOM      5  C   UNL     1       3.769   6.077  19.298  0.00  0.00    +0.000 A 
ATOM      6  C   UNL     1       4.149   4.720  19.230  0.00  0.00    +0.000 A 
ENDROOT
BRANCH   4   7
ATOM      7  C   UNL     1       2.115   7.937  19.856  0.00  0.00    +0.000 C 
ATOM      8  O   UNL     1       1.256   8.018  20.997  0.00  0.00    +0.000 OA
ATOM      9  C   UNL     1       0.749   9.318  21.287  0.00  0.00    +0.000 C 
ATOM     10  C   UNL     1      -0.052   9.866  20.098  0.00  0.00    +0.000 C 
ATOM     11  C   UNL     1       0.843   9.888  18.851  0.00  0.00    +0.000 C 
ATOM     12  C   UNL     1       1.437   8.496  18.579  0.00  0.00    +0.000 C 
BRANCH  10  13
ATOM     13  O   UNL     1      -0.571  11.167  20.398  0.00  0.00    +0.000 OA
ATOM     14  H   UNL     1      -1.380  11.061  20.932  0.00  0.00    +0.000 HD
ENDBRANCH  10  13
BRANCH  11  15
ATOM     15  O   UNL     1       0.105  10.368  17.720  0.00  0.00    +0.000 OA
ATOM     16  H   UNL     1       0.065   9.658  17.056  0.00  0.00    +0.000 HD
ENDBRANCH  11  15
BRANCH  12  17
ATOM     17  O   UNL     1       2.351   8.570  17.474  0.00  0.00    +0.000 OA
ATOM     18  H   UNL     1       3.140   9.067  17.747  0.00  0.00    +0.000 HD
ENDBRANCH  12  17
BRANCH   9  19
ATOM     19  C   UNL     1      -0.126   9.199  22.546  0.00  0.00    +0.000 C 
BRANCH  19  20
ATOM     20  O   UNL     1      -0.139  10.388  23.325  0.00  0.00    +0.000 OA
ATOM     21  H   UNL     1      -1.027  10.450  23.738  0.00  0.00    +0.000 HD
ENDBRANCH  19  20
ENDBRANCH   9  19
ENDBRANCH   4   7
BRANCH   1  23
ATOM     22  C   UNL     1       3.345   1.509  18.387  0.00  0.00    +0.000 C 
ATOM     23  C   UNL     1       3.536   2.266  19.691  0.00  0.00    +0.000 C 
ENDBRANCH   1  23
BRANCH   6  24
ATOM     24  C   UNL     1       5.567   4.396  18.795  0.00  0.00    +0.000 C 
BRANCH  24  25
ATOM     25  C   UNL     1       5.895   4.529  17.319  0.00  0.00    +0.000 A 
ATOM     26  C   UNL     1       7.174   5.042  16.969  0.00  0.00    +0.000 A 
ATOM     27  C   UNL     1       7.610   5.077  15.640  0.00  0.00    +0.000 A 
ATOM     28  C   UNL     1       6.751   4.588  14.689  0.00  0.00    +0.000 A 
ATOM     29  C   UNL     1       5.498   4.132  15.008  0.00  0.00    +0.000 A 
ATOM     30  C   UNL     1       5.028   4.106  16.299  0.00  0.00    +0.000 A 
ATOM     31  C   UNL     1       5.160   3.778  13.590  0.00  0.00    +0.000 C 
ATOM     32  C   UNL     1       6.604   4.264  13.232  0.00  0.00    +0.000 C 
ENDBRANCH  24  25
ENDBRANCH   6  24
TORSDOF 9
ENDMDL
MODEL 3
REMARK VINA RESULT:      -8.0      0.483      1.205
REMARK  Name = 
REMARK  10 active torsions:
REMARK  status: ('A' for Active; 'I' for Inactive)
REMARK    1  A    between atoms: C_1  and  C_2
REMARK    2  A    between atoms: C_2  and  C_3
REMARK    3  A    between atoms: C_6  and  C_7
REMARK    4  A    between atoms: C_9  and  C_10
REMARK    5  A    between atoms: C_10  and  O_11
REMARK    6  A    between atoms: C_12  and  O_13
REMARK    7  A    between atoms: C_14  and  O_15
REMARK    8  A    between atoms: C_16  and  O_17
REMARK    9  A    between atoms: C_19  and  C_20
REMARK   10  A    between atoms: C_20  and  C_21
REMARK                            x       y       z     vdW  Elec       q    Type
REMARK                         _______ _______ _______ _____ _____    ______ ____
ROOT
ATOM      1  C   UNL     1       1.073   9.031  20.688  0.00  0.00    +0.000 A 
ATOM      2  C   UNL     1       1.586   7.843  21.244  0.00  0.00    +0.000 A 
ATOM      3  C   UNL     1       2.146   6.848  20.445  0.00  0.00    +0.000 A 
ATOM      4  C   UNL     1       2.205   7.004  19.057  0.00  0.00    +0.000 A 
ATOM      5  C   UNL     1       1.758   8.216  18.508  0.00  0.00    +0.000 A 
ATOM      6  C   UNL     1       1.212   9.245  19.304  0.00  0.00    +0.000 A 
ENDROOT
BRANCH   4   7
ATOM      7  C   UNL     1       2.666   5.857  18.174  0.00  0.00    +0.000 C 
ATOM      8  O   UNL     1       1.914   4.699  18.551  0.00  0.00    +0.000 OA
ATOM      9  C   UNL     1       2.272   3.494  17.879  0.00  0.00    +0.000 C 
ATOM     10  C   UNL     1       3.749   3.155  18.124  0.00  0.00    +0.000 C 
ATOM     11  C   UNL     1       4.623   4.327  17.658  0.00  0.00    +0.000 C 
ATOM     12  C   UNL     1       4.191   5.636  18.340  0.00  0.00    +0.000 C 
BRANCH  10  13
ATOM     13  O   UNL     1       4.102   1.936  17.458  0.00  0.00    +0.000 OA
ATOM     14  H   UNL     1       5.059   1.952  17.273  0.00  0.00    +0.000 HD
ENDBRANCH  10  13
BRANCH  11  15
ATOM     15  O   UNL     1       6.006   4.044  17.907  0.00  0.00    +0.000 OA
ATOM     16  H   UNL     1       6.517   4.289  17.115  0.00  0.00    +0.000 HD
ENDBRANCH  11  15
BRANCH  12  17
ATOM     17  O   UNL     1       4.954   6.731  17.808  0.00  0.00    +0.000 OA
ATOM     18  H   UNL     1       4.529   7.047  16.993  0.00  0.00    +0.000 HD
ENDBRANCH  12  17
BRANCH   9  19
ATOM     19  C   UNL     1       1.346   2.384  18.403  0.00  0.00    +0.000 C 
BRANCH  19  20
ATOM     20  O   UNL     1       2.040   1.391  19.148  0.00  0.00    +0.000 OA
ATOM     21  H   UNL     1       1.771   1.498  20.085  0.00  0.00    +0.000 HD
ENDBRANCH  19  20
ENDBRANCH   9  19
ENDBRANCH   4   7
BRANCH   1  23
ATOM     22  C   UNL     1      -0.419   9.292  22.711  0.00  0.00    +0.000 C 
ATOM     23  C   UNL     1       0.371   9.990  21.617  0.00  0.00    +0.000 C 
ENDBRANCH   1  23
BRANCH   6  24
ATOM     24  C   UNL     1       0.789  10.532  18.617  0.00  0.00    +0.000 C 
BRANCH  24  25
ATOM     25  C   UNL     1      -0.680  10.694  18.274  0.00  0.00    +0.000 A 
ATOM     26  C   UNL     1      -1.443  11.614  19.043  0.00  0.00    +0.000 A 
ATOM     27  C   UNL     1      -2.767  11.922  18.715  0.00  0.00    +0.000 A 
ATOM     28  C   UNL     1      -3.296  11.302  17.612  0.00  0.00    +0.000 A 
ATOM     29  C   UNL     1      -2.586  10.378  16.888  0.00  0.00    +0.000 A 
ATOM     30  C   UNL     1      -1.293  10.034  17.197  0.00  0.00    +0.000 A 
ATOM     31  C   UNL     1      -3.700  10.147  15.910  0.00  0.00    +0.000 C 
ATOM     32  C   UNL     1      -4.495  11.227  16.714  0.00  0.00    +0.000 C 
ENDBRANCH  24  25
ENDBRANCH   6  24
TORSDOF 9
ENDMDL
MODEL 4
REMARK VINA RESULT:      -7.9      1.258      1.465
REMARK  Name = 
REMARK  10 active torsions:
REMARK  status: ('A' for Active; 'I' for Inactive)
REMARK    1  A    between atoms: C_1  and  C_2
REMARK    2  A    between atoms: C_2  and  C_3
REMARK    3  A    between atoms: C_6  and  C_7
REMARK    4  A    between atoms: C_9  and  C_10
REMARK    5  A    between atoms: C_10  and  O_11
REMARK    6  A    between atoms: C_12  and  O_13
REMARK    7  A    between atoms: C_14  and  O_15
REMARK    8  A    between atoms: C_16  and  O_17
REMARK    9  A    between atoms: C_19  and  C_20
REMARK   10  A    between atoms: C_20  and  C_21
REMARK                            x       y       z     vdW  Elec       q    Type
REMARK                         _______ _______ _______ _____ _____    ______ ____
ROOT
ATOM      1  C   UNL     1       0.791   9.265  20.652  0.00  0.00    +0.000 A 
ATOM      2  C   UNL     1       1.402   8.110  21.178  0.00  0.00    +0.000 A 
ATOM      3  C   UNL     1       2.093   7.216  20.363  0.00  0.00    +0.000 A 
ATOM      4  C   UNL     1       2.190   7.442  18.987  0.00  0.00    +0.000 A 
ATOM      5  C   UNL     1       1.641   8.627  18.471  0.00  0.00    +0.000 A 
ATOM      6  C   UNL     1       0.962   9.557  19.286  0.00  0.00    +0.000 A 
ENDROOT
BRANCH   4   7
ATOM      7  C   UNL     1       2.801   6.390  18.077  0.00  0.00    +0.000 C 
ATOM      8  O   UNL     1       3.075   5.238  18.880  0.00  0.00    +0.000 OA
ATOM      9  C   UNL     1       3.733   4.168  18.206  0.00  0.00    +0.000 C 
ATOM     10  C   UNL     1       5.080   4.633  17.635  0.00  0.00    +0.000 C 
ATOM     11  C   UNL     1       4.847   5.820  16.691  0.00  0.00    +0.000 C 
ATOM     12  C   UNL     1       4.082   6.946  17.405  0.00  0.00    +0.000 C 
BRANCH  10  13
ATOM     13  O   UNL     1       5.744   3.552  16.970  0.00  0.00    +0.000 OA
ATOM     14  H   UNL     1       6.195   3.905  16.181  0.00  0.00    +0.000 HD
ENDBRANCH  10  13
BRANCH  11  15
ATOM     15  O   UNL     1       6.097   6.290  16.170  0.00  0.00    +0.000 OA
ATOM     16  H   UNL     1       6.815   5.784  16.589  0.00  0.00    +0.000 HD
ENDBRANCH  11  15
BRANCH  12  17
ATOM     17  O   UNL     1       3.787   7.996  16.471  0.00  0.00    +0.000 OA
ATOM     18  H   UNL     1       4.061   8.847  16.852  0.00  0.00    +0.000 HD
ENDBRANCH  12  17
BRANCH   9  19
ATOM     19  C   UNL     1       3.917   3.029  19.223  0.00  0.00    +0.000 C 
BRANCH  19  20
ATOM     20  O   UNL     1       5.272   2.852  19.616  0.00  0.00    +0.000 OA
ATOM     21  H   UNL     1       5.303   2.054  20.185  0.00  0.00    +0.000 HD
ENDBRANCH  19  20
ENDBRANCH   9  19
ENDBRANCH   4   7
BRANCH   1  23
ATOM     22  C   UNL     1      -0.472   9.353  22.839  0.00  0.00    +0.000 C 
ATOM     23  C   UNL     1      -0.042  10.103  21.589  0.00  0.00    +0.000 C 
ENDBRANCH   1  23
BRANCH   6  24
ATOM     24  C   UNL     1       0.435  10.825  18.637  0.00  0.00    +0.000 C 
BRANCH  24  25
ATOM     25  C   UNL     1      -1.040  10.873  18.286  0.00  0.00    +0.000 A 
ATOM     26  C   UNL     1      -1.530   9.921  17.350  0.00  0.00    +0.000 A 
ATOM     27  C   UNL     1      -2.894   9.807  17.067  0.00  0.00    +0.000 A 
ATOM     28  C   UNL     1      -3.742  10.651  17.738  0.00  0.00    +0.000 A 
ATOM     29  C   UNL     1      -3.280  11.604  18.609  0.00  0.00    +0.000 A 
ATOM     30  C   UNL     1      -1.944  11.760  18.892  0.00  0.00    +0.000 A 
ATOM     31  C   UNL     1      -4.654  12.105  18.942  0.00  0.00    +0.000 C 
ATOM     32  C   UNL     1      -5.183  10.993  17.977  0.00  0.00    +0.000 C 
ENDBRANCH  24  25
ENDBRANCH   6  24
TORSDOF 9
ENDMDL
MODEL 5
REMARK VINA RESULT:      -7.8      1.095      1.667
REMARK  Name = 
REMARK  10 active torsions:
REMARK  status: ('A' for Active; 'I' for Inactive)
REMARK    1  A    between atoms: C_1  and  C_2
REMARK    2  A    between atoms: C_2  and  C_3
REMARK    3  A    between atoms: C_6  and  C_7
REMARK    4  A    between atoms: C_9  and  C_10
REMARK    5  A    between atoms: C_10  and  O_11
REMARK    6  A    between atoms: C_12  and  O_13
REMARK    7  A    between atoms: C_14  and  O_15
REMARK    8  A    between atoms: C_16  and  O_17
REMARK    9  A    between atoms: C_19  and  C_20
REMARK   10  A    between atoms: C_20  and  C_21
REMARK                            x       y       z     vdW  Elec       q    Type
REMARK                         _______ _______ _______ _____ _____    ______ ____
ROOT
ATOM      1  C   UNL     1       0.948   8.463  20.666  0.00  0.00    +0.000 A 
ATOM      2  C   UNL     1       1.496   7.201  20.971  0.00  0.00    +0.000 A 
ATOM      3  C   UNL     1       2.244   6.487  20.037  0.00  0.00    +0.000 A 
ATOM      4  C   UNL     1       2.462   7.006  18.758  0.00  0.00    +0.000 A 
ATOM      5  C   UNL     1       1.975   8.293  18.474  0.00  0.00    +0.000 A 
ATOM      6  C   UNL     1       1.239   9.042  19.417  0.00  0.00    +0.000 A 
ENDROOT
BRANCH   4   7
ATOM      7  C   UNL     1       3.136   6.162  17.690  0.00  0.00    +0.000 C 
ATOM      8  O   UNL     1       2.821   4.794  17.966  0.00  0.00    +0.000 OA
ATOM      9  C   UNL     1       3.442   3.840  17.107  0.00  0.00    +0.000 C 
ATOM     10  C   UNL     1       4.970   3.960  17.179  0.00  0.00    +0.000 C 
ATOM     11  C   UNL     1       5.385   5.390  16.807  0.00  0.00    +0.000 C 
ATOM     12  C   UNL     1       4.665   6.417  17.696  0.00  0.00    +0.000 C 
BRANCH  10  13
ATOM     13  O   UNL     1       5.591   2.991  16.324  0.00  0.00    +0.000 OA
ATOM     14  H   UNL     1       6.140   3.463  15.671  0.00  0.00    +0.000 HD
ENDBRANCH  10  13
BRANCH  11  15
ATOM     15  O   UNL     1       6.809   5.532  16.897  0.00  0.00    +0.000 OA
ATOM     16  H   UNL     1       7.006   6.389  17.316  0.00  0.00    +0.000 HD
ENDBRANCH  11  15
BRANCH  12  17
ATOM     17  O   UNL     1       4.990   7.746  17.257  0.00  0.00    +0.000 OA
ATOM     18  H   UNL     1       4.908   7.789  16.289  0.00  0.00    +0.000 HD
ENDBRANCH  12  17
BRANCH   9  19
ATOM     19  C   UNL     1       2.966   2.447  17.549  0.00  0.00    +0.000 C 
BRANCH  19  20
ATOM     20  O   UNL     1       4.004   1.664  18.124  0.00  0.00    +0.000 OA
ATOM     21  H   UNL     1       4.678   1.524  17.425  0.00  0.00    +0.000 HD
ENDBRANCH  19  20
ENDBRANCH   9  19
ENDBRANCH   4   7
BRANCH   1  23
ATOM     22  C   UNL     1       0.758   9.414  23.000  0.00  0.00    +0.000 C 
ATOM     23  C   UNL     1       0.047   9.099  21.694  0.00  0.00    +0.000 C 
ENDBRANCH   1  23
BRANCH   6  24
ATOM     24  C   UNL     1       0.787  10.438  19.024  0.00  0.00    +0.000 C 
BRANCH  24  25
ATOM     25  C   UNL     1      -0.634  10.597  18.518  0.00  0.00    +0.000 A 
ATOM     26  C   UNL     1      -1.487  11.501  19.209  0.00  0.00    +0.000 A 
ATOM     27  C   UNL     1      -2.767  11.808  18.736  0.00  0.00    +0.000 A 
ATOM     28  C   UNL     1      -3.162  11.203  17.570  0.00  0.00    +0.000 A 
ATOM     29  C   UNL     1      -2.368  10.295  16.918  0.00  0.00    +0.000 A 
ATOM     30  C   UNL     1      -1.116   9.952  17.368  0.00  0.00    +0.000 A 
ATOM     31  C   UNL     1      -3.361  10.074  15.815  0.00  0.00    +0.000 C 
ATOM     32  C   UNL     1      -4.250  11.138  16.540  0.00  0.00    +0.000 C 
ENDBRANCH  24  25
ENDBRANCH   6  24
TORSDOF 9
ENDMDL
MODEL 6
REMARK VINA RESULT:      -7.5      3.317      8.447
REMARK  Name = 
REMARK  10 active torsions:
REMARK  status: ('A' for Active; 'I' for Inactive)
REMARK    1  A    between atoms: C_1  and  C_2
REMARK    2  A    between atoms: C_2  and  C_3
REMARK    3  A    between atoms: C_6  and  C_7
REMARK    4  A    between atoms: C_9  and  C_10
REMARK    5  A    between atoms: C_10  and  O_11
REMARK    6  A    between atoms: C_12  and  O_13
REMARK    7  A    between atoms: C_14  and  O_15
REMARK    8  A    between atoms: C_16  and  O_17
REMARK    9  A    between atoms: C_19  and  C_20
REMARK   10  A    between atoms: C_20  and  C_21
REMARK                            x       y       z     vdW  Elec       q    Type
REMARK                         _______ _______ _______ _____ _____    ______ ____
ROOT
ATOM      1  C   UNL     1       3.656   4.069  19.548  0.00  0.00    +0.000 A 
ATOM      2  C   UNL     1       2.327   4.339  19.930  0.00  0.00    +0.000 A 
ATOM      3  C   UNL     1       1.822   5.637  19.941  0.00  0.00    +0.000 A 
ATOM      4  C   UNL     1       2.634   6.716  19.579  0.00  0.00    +0.000 A 
ATOM      5  C   UNL     1       3.938   6.443  19.133  0.00  0.00    +0.000 A 
ATOM      6  C   UNL     1       4.457   5.132  19.089  0.00  0.00    +0.000 A 
ENDROOT
BRANCH   4   7
ATOM      7  C   UNL     1       2.136   8.142  19.746  0.00  0.00    +0.000 C 
ATOM      8  O   UNL     1       1.315   8.174  20.917  0.00  0.00    +0.000 OA
ATOM      9  C   UNL     1       0.688   9.425  21.188  0.00  0.00    +0.000 C 
ATOM     10  C   UNL     1      -0.207   9.847  20.014  0.00  0.00    +0.000 C 
ATOM     11  C   UNL     1       0.635   9.919  18.734  0.00  0.00    +0.000 C 
ATOM     12  C   UNL     1       1.359   8.586  18.480  0.00  0.00    +0.000 C 
BRANCH  10  13
ATOM     13  O   UNL     1      -0.846  11.099  20.296  0.00  0.00    +0.000 OA
ATOM     14  H   UNL     1      -1.810  10.952  20.332  0.00  0.00    +0.000 HD
ENDBRANCH  10  13
BRANCH  11  15
ATOM     15  O   UNL     1      -0.188  10.283  17.619  0.00  0.00    +0.000 OA
ATOM     16  H   UNL     1      -0.368  11.238  17.668  0.00  0.00    +0.000 HD
ENDBRANCH  11  15
BRANCH  12  17
ATOM     17  O   UNL     1       2.220   8.715  17.338  0.00  0.00    +0.000 OA
ATOM     18  H   UNL     1       1.890   9.433  16.771  0.00  0.00    +0.000 HD
ENDBRANCH  12  17
BRANCH   9  19
ATOM     19  C   UNL     1      -0.124   9.260  22.483  0.00  0.00    +0.000 C 
BRANCH  19  20
ATOM     20  O   UNL     1      -0.172  10.449  23.261  0.00  0.00    +0.000 OA
ATOM     21  H   UNL     1      -0.510  11.160  22.675  0.00  0.00    +0.000 HD
ENDBRANCH  19  20
ENDBRANCH   9  19
ENDBRANCH   4   7
BRANCH   1  23
ATOM     22  C   UNL     1       3.424   1.671  18.785  0.00  0.00    +0.000 C 
ATOM     23  C   UNL     1       4.150   2.651  19.691  0.00  0.00    +0.000 C 
ENDBRANCH   1  23
BRANCH   6  24
ATOM     24  C   UNL     1       5.866   4.939  18.557  0.00  0.00    +0.000 C 
BRANCH  24  25
ATOM     25  C   UNL     1       6.021   4.625  17.081  0.00  0.00    +0.000 A 
ATOM     26  C   UNL     1       4.979   3.896  16.445  0.00  0.00    +0.000 A 
ATOM     27  C   UNL     1       4.976   3.675  15.064  0.00  0.00    +0.000 A 
ATOM     28  C   UNL     1       6.022   4.200  14.347  0.00  0.00    +0.000 A 
ATOM     29  C   UNL     1       7.056   4.865  14.953  0.00  0.00    +0.000 A 
ATOM     30  C   UNL     1       7.103   5.078  16.310  0.00  0.00    +0.000 A 
ATOM     31  C   UNL     1       7.767   5.136  13.660  0.00  0.00    +0.000 C 
ATOM     32  C   UNL     1       6.568   4.409  12.966  0.00  0.00    +0.000 C 
ENDBRANCH  24  25
ENDBRANCH   6  24
TORSDOF 9
ENDMDL
MODEL 7
REMARK VINA RESULT:      -7.4      1.233      1.671
REMARK  Name = 
REMARK  10 active torsions:
REMARK  status: ('A' for Active; 'I' for Inactive)
REMARK    1  A    between atoms: C_1  and  C_2
REMARK    2  A    between atoms: C_2  and  C_3
REMARK    3  A    between atoms: C_6  and  C_7
REMARK    4  A    between atoms: C_9  and  C_10
REMARK    5  A    between atoms: C_10  and  O_11
REMARK    6  A    between atoms: C_12  and  O_13
REMARK    7  A    between atoms: C_14  and  O_15
REMARK    8  A    between atoms: C_16  and  O_17
REMARK    9  A    between atoms: C_19  and  C_20
REMARK   10  A    between atoms: C_20  and  C_21
REMARK                            x       y       z     vdW  Elec       q    Type
REMARK                         _______ _______ _______ _____ _____    ______ ____
ROOT
ATOM      1  C   UNL     1       0.842   9.662  21.133  0.00  0.00    +0.000 A 
ATOM      2  C   UNL     1       1.318   8.589  21.911  0.00  0.00    +0.000 A 
ATOM      3  C   UNL     1       1.841   7.439  21.323  0.00  0.00    +0.000 A 
ATOM      4  C   UNL     1       1.896   7.318  19.931  0.00  0.00    +0.000 A 
ATOM      5  C   UNL     1       1.485   8.414  19.155  0.00  0.00    +0.000 A 
ATOM      6  C   UNL     1       0.979   9.596  19.734  0.00  0.00    +0.000 A 
ENDROOT
BRANCH   4   7
ATOM      7  C   UNL     1       2.313   6.005  19.290  0.00  0.00    +0.000 C 
ATOM      8  O   UNL     1       1.973   4.957  20.203  0.00  0.00    +0.000 OA
ATOM      9  C   UNL     1       2.369   3.648  19.802  0.00  0.00    +0.000 C 
ATOM     10  C   UNL     1       3.890   3.579  19.603  0.00  0.00    +0.000 C 
ATOM     11  C   UNL     1       4.313   4.625  18.563  0.00  0.00    +0.000 C 
ATOM     12  C   UNL     1       3.829   6.027  18.970  0.00  0.00    +0.000 C 
BRANCH  10  13
ATOM     13  O   UNL     1       4.285   2.258  19.213  0.00  0.00    +0.000 OA
ATOM     14  H   UNL     1       5.255   2.190  19.291  0.00  0.00    +0.000 HD
ENDBRANCH  10  13
BRANCH  11  15
ATOM     15  O   UNL     1       5.735   4.598  18.384  0.00  0.00    +0.000 OA
ATOM     16  H   UNL     1       6.152   4.976  19.179  0.00  0.00    +0.000 HD
ENDBRANCH  11  15
BRANCH  12  17
ATOM     17  O   UNL     1       4.146   6.966  17.931  0.00  0.00    +0.000 OA
ATOM     18  H   UNL     1       3.382   7.052  17.336  0.00  0.00    +0.000 HD
ENDBRANCH  12  17
BRANCH   9  19
ATOM     19  C   UNL     1       1.901   2.673  20.895  0.00  0.00    +0.000 C 
BRANCH  19  20
ATOM     20  O   UNL     1       2.874   2.473  21.912  0.00  0.00    +0.000 OA
ATOM     21  H   UNL     1       3.097   1.518  21.912  0.00  0.00    +0.000 HD
ENDBRANCH  19  20
ENDBRANCH   9  19
ENDBRANCH   4   7
BRANCH   1  23
ATOM     22  C   UNL     1      -0.779  10.352  22.946  0.00  0.00    +0.000 C 
ATOM     23  C   UNL     1       0.177  10.807  21.856  0.00  0.00    +0.000 C 
ENDBRANCH   1  23
BRANCH   6  24
ATOM     24  C   UNL     1       0.594  10.738  18.809  0.00  0.00    +0.000 C 
BRANCH  24  25
ATOM     25  C   UNL     1      -0.857  10.830  18.375  0.00  0.00    +0.000 A 
ATOM     26  C   UNL     1      -1.716  11.689  19.112  0.00  0.00    +0.000 A 
ATOM     27  C   UNL     1      -3.031  11.935  18.706  0.00  0.00    +0.000 A 
ATOM     28  C   UNL     1      -3.455  11.315  17.558  0.00  0.00    +0.000 A 
ATOM     29  C   UNL     1      -2.652  10.448  16.862  0.00  0.00    +0.000 A 
ATOM     30  C   UNL     1      -1.364  10.165  17.247  0.00  0.00    +0.000 A 
ATOM     31  C   UNL     1      -3.688  10.182  15.810  0.00  0.00    +0.000 C 
ATOM     32  C   UNL     1      -4.589  11.200  16.584  0.00  0.00    +0.000 C 
ENDBRANCH  24  25
ENDBRANCH   6  24
TORSDOF 9
ENDMDL
MODEL 8
REMARK VINA RESULT:      -7.4      1.305      2.821
REMARK  Name = 
REMARK  10 active torsions:
REMARK  status: ('A' for Active; 'I' for Inactive)
REMARK    1  A    between atoms: C_1  and  C_2
REMARK    2  A    between atoms: C_2  and  C_3
REMARK    3  A    between atoms: C_6  and  C_7
REMARK    4  A    between atoms: C_9  and  C_10
REMARK    5  A    between atoms: C_10  and  O_11
REMARK    6  A    between atoms: C_12  and  O_13
REMARK    7  A    between atoms: C_14  and  O_15
REMARK    8  A    between atoms: C_16  and  O_17
REMARK    9  A    between atoms: C_19  and  C_20
REMARK   10  A    between atoms: C_20  and  C_21
REMARK                            x       y       z     vdW  Elec       q    Type
REMARK                         _______ _______ _______ _____ _____    ______ ____
ROOT
ATOM      1  C   UNL     1       0.539   9.089  20.898  0.00  0.00    +0.000 A 
ATOM      2  C   UNL     1       0.957   7.989  21.674  0.00  0.00    +0.000 A 
ATOM      3  C   UNL     1       1.834   7.033  21.168  0.00  0.00    +0.000 A 
ATOM      4  C   UNL     1       2.319   7.138  19.861  0.00  0.00    +0.000 A 
ATOM      5  C   UNL     1       1.958   8.269  19.110  0.00  0.00    +0.000 A 
ATOM      6  C   UNL     1       1.092   9.261  19.616  0.00  0.00    +0.000 A 
ENDROOT
BRANCH   4   7
ATOM      7  C   UNL     1       3.144   6.015  19.255  0.00  0.00    +0.000 C 
ATOM      8  O   UNL     1       4.098   6.615  18.373  0.00  0.00    +0.000 OA
ATOM      9  C   UNL     1       4.914   5.700  17.645  0.00  0.00    +0.000 C 
ATOM     10  C   UNL     1       4.048   4.768  16.786  0.00  0.00    +0.000 C 
ATOM     11  C   UNL     1       3.055   4.023  17.688  0.00  0.00    +0.000 C 
ATOM     12  C   UNL     1       2.221   5.014  18.517  0.00  0.00    +0.000 C 
BRANCH  10  13
ATOM     13  O   UNL     1       4.873   3.859  16.045  0.00  0.00    +0.000 OA
ATOM     14  H   UNL     1       4.339   3.075  15.817  0.00  0.00    +0.000 HD
ENDBRANCH  10  13
BRANCH  11  15
ATOM     15  O   UNL     1       2.216   3.168  16.900  0.00  0.00    +0.000 OA
ATOM     16  H   UNL     1       2.642   3.030  16.036  0.00  0.00    +0.000 HD
ENDBRANCH  11  15
BRANCH  12  17
ATOM     17  O   UNL     1       1.377   4.289  19.426  0.00  0.00    +0.000 OA
ATOM     18  H   UNL     1       1.703   3.377  19.503  0.00  0.00    +0.000 HD
ENDBRANCH  12  17
BRANCH   9  19
ATOM     19  C   UNL     1       5.874   6.532  16.779  0.00  0.00    +0.000 C 
BRANCH  19  20
ATOM     20  O   UNL     1       5.405   6.712  15.449  0.00  0.00    +0.000 OA
ATOM     21  H   UNL     1       4.564   7.214  15.508  0.00  0.00    +0.000 HD
ENDBRANCH  19  20
ENDBRANCH   9  19
ENDBRANCH   4   7
BRANCH   1  23
ATOM     22  C   UNL     1      -0.615   9.894  22.998  0.00  0.00    +0.000 C 
ATOM     23  C   UNL     1      -0.511   9.999  21.486  0.00  0.00    +0.000 C 
ENDBRANCH   1  23
BRANCH   6  24
ATOM     24  C   UNL     1       0.792  10.463  18.737  0.00  0.00    +0.000 C 
BRANCH  24  25
ATOM     25  C   UNL     1      -0.616  10.594  18.187  0.00  0.00    +0.000 A 
ATOM     26  C   UNL     1      -1.441  11.623  18.718  0.00  0.00    +0.000 A 
ATOM     27  C   UNL     1      -2.703  11.901  18.181  0.00  0.00    +0.000 A 
ATOM     28  C   UNL     1      -3.107  11.139  17.114  0.00  0.00    +0.000 A 
ATOM     29  C   UNL     1      -2.341  10.114  16.622  0.00  0.00    +0.000 A 
ATOM     30  C   UNL     1      -1.108   9.799  17.141  0.00  0.00    +0.000 A 
ATOM     31  C   UNL     1      -3.329   9.763  15.549  0.00  0.00    +0.000 C 
ATOM     32  C   UNL     1      -4.185  10.956  16.087  0.00  0.00    +0.000 C 
ENDBRANCH  24  25
ENDBRANCH   6  24
TORSDOF 9
ENDMDL
MODEL 9
REMARK VINA RESULT:      -7.4      3.446      8.548
REMARK  Name = 
REMARK  10 active torsions:
REMARK  status: ('A' for Active; 'I' for Inactive)
REMARK    1  A    between atoms: C_1  and  C_2
REMARK    2  A    between atoms: C_2  and  C_3
REMARK    3  A    between atoms: C_6  and  C_7
REMARK    4  A    between atoms: C_9  and  C_10
REMARK    5  A    between atoms: C_10  and  O_11
REMARK    6  A    between atoms: C_12  and  O_13
REMARK    7  A    between atoms: C_14  and  O_15
REMARK    8  A    between atoms: C_16  and  O_17
REMARK    9  A    between atoms: C_19  and  C_20
REMARK   10  A    between atoms: C_20  and  C_21
REMARK                            x       y       z     vdW  Elec       q    Type
REMARK                         _______ _______ _______ _____ _____    ______ ____
ROOT
ATOM      1  C   UNL     1       3.133   4.060  17.927  0.00  0.00    +0.000 A 
ATOM      2  C   UNL     1       1.814   4.469  18.202  0.00  0.00    +0.000 A 
ATOM      3  C   UNL     1       1.517   5.783  18.557  0.00  0.00    +0.000 A 
ATOM      4  C   UNL     1       2.535   6.736  18.659  0.00  0.00    +0.000 A 
ATOM      5  C   UNL     1       3.842   6.347  18.319  0.00  0.00    +0.000 A 
ATOM      6  C   UNL     1       4.156   5.028  17.932  0.00  0.00    +0.000 A 
ENDROOT
BRANCH   4   7
ATOM      7  C   UNL     1       2.237   8.124  19.201  0.00  0.00    +0.000 C 
ATOM      8  O   UNL     1       1.615   7.959  20.478  0.00  0.00    +0.000 OA
ATOM      9  C   UNL     1       1.185   9.164  21.107  0.00  0.00    +0.000 C 
ATOM     10  C   UNL     1       0.176   9.907  20.222  0.00  0.00    +0.000 C 
ATOM     11  C   UNL     1       0.814  10.195  18.857  0.00  0.00    +0.000 C 
ATOM     12  C   UNL     1       1.332   8.899  18.211  0.00  0.00    +0.000 C 
BRANCH  10  13
ATOM     13  O   UNL     1      -0.263  11.111  20.863  0.00  0.00    +0.000 OA
ATOM     14  H   UNL     1      -0.266  10.964  21.827  0.00  0.00    +0.000 HD
ENDBRANCH  10  13
BRANCH  11  15
ATOM     15  O   UNL     1      -0.123  10.863  18.002  0.00  0.00    +0.000 OA
ATOM     16  H   UNL     1       0.170  10.754  17.080  0.00  0.00    +0.000 HD
ENDBRANCH  11  15
BRANCH  12  17
ATOM     17  O   UNL     1       2.016   9.211  16.987  0.00  0.00    +0.000 OA
ATOM     18  H   UNL     1       1.376   9.209  16.256  0.00  0.00    +0.000 HD
ENDBRANCH  12  17
BRANCH   9  19
ATOM     19  C   UNL     1       0.568   8.779  22.462  0.00  0.00    +0.000 C 
BRANCH  19  20
ATOM     20  O   UNL     1      -0.826   8.512  22.379  0.00  0.00    +0.000 OA
ATOM     21  H   UNL     1      -1.053   7.938  23.141  0.00  0.00    +0.000 HD
ENDBRANCH  19  20
ENDBRANCH   9  19
ENDBRANCH   4   7
BRANCH   1  23
ATOM     22  C   UNL     1       2.589   1.691  18.618  0.00  0.00    +0.000 C 
ATOM     23  C   UNL     1       3.372   2.592  17.678  0.00  0.00    +0.000 C 
ENDBRANCH   1  23
BRANCH   6  24
ATOM     24  C   UNL     1       5.593   4.718  17.550  0.00  0.00    +0.000 C 
BRANCH  24  25
ATOM     25  C   UNL     1       5.933   4.680  16.072  0.00  0.00    +0.000 A 
ATOM     26  C   UNL     1       7.166   5.255  15.661  0.00  0.00    +0.000 A 
ATOM     27  C   UNL     1       7.621   5.151  14.343  0.00  0.00    +0.000 A 
ATOM     28  C   UNL     1       6.825   4.461  13.463  0.00  0.00    +0.000 A 
ATOM     29  C   UNL     1       5.612   3.941  13.835  0.00  0.00    +0.000 A 
ATOM     30  C   UNL     1       5.125   4.047  15.115  0.00  0.00    +0.000 A 
ATOM     31  C   UNL     1       5.333   3.370  12.476  0.00  0.00    +0.000 C 
ATOM     32  C   UNL     1       6.733   3.932  12.063  0.00  0.00    +0.000 C 
ENDBRANCH  24  25
ENDBRANCH   6  24
TORSDOF 9
ENDMDL
