MODEL 1
REMARK VINA RESULT:      -8.5      0.000      0.000
REMARK  Name = 
REMARK  7 active torsions:
REMARK  status: ('A' for Active; 'I' for Inactive)
REMARK    1  A    between atoms: C_1  and  C_2
REMARK    2  A    between atoms: N_4  and  C_5
REMARK    3  A    between atoms: C_11  and  C_12
REMARK    4  A    between atoms: C_11  and  C_17
REMARK    5  A    between atoms: C_13  and  C_14
REMARK    6  A    between atoms: C_14  and  C_15
REMARK    7  A    between atoms: C_14  and  C_16
REMARK                            x       y       z     vdW  Elec       q    Type
REMARK                         _______ _______ _______ _____ _____    ______ ____
ROOT
ATOM      1  C   UNL     1       5.496   5.075  18.394  0.00  0.00    +0.000 A 
ATOM      2  C   UNL     1       5.442   4.215  17.296  0.00  0.00    +0.000 A 
ATOM      3  C   UNL     1       4.339   3.388  17.089  0.00  0.00    +0.000 A 
ATOM      4  C   UNL     1       3.262   3.447  17.966  0.00  0.00    +0.000 A 
ATOM      5  C   UNL     1       3.265   4.319  19.045  0.00  0.00    +0.000 A 
ATOM      6  C   UNL     1       4.422   5.089  19.290  0.00  0.00    +0.000 A 
ATOM      7  C   UNL     1       2.035   4.347  19.938  0.00  0.00    +0.000 C 
ATOM      8  O   UNL     1       0.866   3.829  19.277  0.00  0.00    +0.000 OA
ATOM      9  C   UNL     1       1.017   2.696  18.540  0.00  0.00    +0.000 C 
ATOM     10  O   UNL     1       0.138   1.855  18.444  0.00  0.00    +0.000 OA
ATOM     11  N   UNL     1       2.179   2.601  17.818  0.00  0.00    +0.000 N 
ATOM     12  H   UNL     1       2.197   1.857  17.133  0.00  0.00    +0.000 HD
ENDROOT
BRANCH   1  16
ATOM     13  C   UNL     1       8.191   7.706  18.290  0.00  0.00    +0.000 C 
ATOM     14  C   UNL     1       7.022   6.925  17.761  0.00  0.00    +0.000 C 
ATOM     15  O   UNL     1       6.543   7.190  16.664  0.00  0.00    +0.000 OA
ATOM     16  N   UNL     1       6.578   5.948  18.639  0.00  0.00    +0.000 N 
ATOM     17  H   UNL     1       6.944   5.977  19.583  0.00  0.00    +0.000 HD
ENDBRANCH   1  16
BRANCH   7  18
ATOM     18  C   UNL     1       2.315   3.543  21.257  0.00  0.00    +0.000 C 
ATOM     19  F   UNL     1       1.227   2.853  21.692  0.00  0.00    +0.000 F 
ATOM     20  F   UNL     1       3.303   2.624  21.112  0.00  0.00    +0.000 F 
ATOM     21  F   UNL     1       2.686   4.351  22.283  0.00  0.00    +0.000 F 
ENDBRANCH   7  18
BRANCH   7  22
ATOM     22  C   UNL     1       1.773   5.804  20.281  0.00  0.00    +0.000 C 
ATOM     23  C   UNL     1       1.550   7.055  20.576  0.00  0.00    +0.000 C 
BRANCH  23  24
ATOM     24  C   UNL     1       1.288   8.513  20.920  0.00  0.00    +0.000 C 
ATOM     25  C   UNL     1       1.174   9.330  19.637  0.00  0.00    +0.000 C 
ATOM     26  C   UNL     1       0.013   8.623  21.751  0.00  0.00    +0.000 C 
ENDBRANCH  23  24
ENDBRANCH   7  22
TORSDOF 4
ENDMDL
MODEL 2
REMARK VINA RESULT:      -8.1      0.844      1.122
REMARK  Name = 
REMARK  7 active torsions:
REMARK  status: ('A' for Active; 'I' for Inactive)
REMARK    1  A    between atoms: C_1  and  C_2
REMARK    2  A    between atoms: N_4  and  C_5
REMARK    3  A    between atoms: C_11  and  C_12
REMARK    4  A    between atoms: C_11  and  C_17
REMARK    5  A    between atoms: C_13  and  C_14
REMARK    6  A    between atoms: C_14  and  C_15
REMARK    7  A    between atoms: C_14  and  C_16
REMARK                            x       y       z     vdW  Elec       q    Type
REMARK                         _______ _______ _______ _____ _____    ______ ____
ROOT
ATOM      1  C   UNL     1       5.151   5.408  17.992  0.00  0.00    +0.000 A 
ATOM      2  C   UNL     1       5.024   4.560  16.890  0.00  0.00    +0.000 A 
ATOM      3  C   UNL     1       3.972   3.650  16.806  0.00  0.00    +0.000 A 
ATOM      4  C   UNL     1       3.015   3.610  17.815  0.00  0.00    +0.000 A 
ATOM      5  C   UNL     1       3.089   4.465  18.904  0.00  0.00    +0.000 A 
ATOM      6  C   UNL     1       4.203   5.323  19.017  0.00  0.00    +0.000 A 
ATOM      7  C   UNL     1       1.985   4.383  19.946  0.00  0.00    +0.000 C 
ATOM      8  O   UNL     1       0.785   3.781  19.427  0.00  0.00    +0.000 OA
ATOM      9  C   UNL     1       0.928   2.673  18.651  0.00  0.00    +0.000 C 
ATOM     10  O   UNL     1       0.113   1.765  18.649  0.00  0.00    +0.000 OA
ATOM     11  N   UNL     1       1.992   2.681  17.786  0.00  0.00    +0.000 N 
ATOM     12  H   UNL     1       1.980   1.950  17.087  0.00  0.00    +0.000 HD
ENDROOT
BRANCH   1  16
ATOM     13  C   UNL     1       8.334   7.312  18.655  0.00  0.00    +0.000 C 
ATOM     14  C   UNL     1       7.438   6.107  18.651  0.00  0.00    +0.000 C 
ATOM     15  O   UNL     1       7.845   5.028  19.071  0.00  0.00    +0.000 OA
ATOM     16  N   UNL     1       6.183   6.362  18.118  0.00  0.00    +0.000 N 
ATOM     17  H   UNL     1       6.060   7.243  17.635  0.00  0.00    +0.000 HD
ENDBRANCH   1  16
BRANCH   7  18
ATOM     18  C   UNL     1       2.494   3.587  21.201  0.00  0.00    +0.000 C 
ATOM     19  F   UNL     1       2.820   4.399  22.240  0.00  0.00    +0.000 F 
ATOM     20  F   UNL     1       1.569   2.720  21.683  0.00  0.00    +0.000 F 
ATOM     21  F   UNL     1       3.605   2.856  20.929  0.00  0.00    +0.000 F 
ENDBRANCH   7  18
BRANCH   7  22
ATOM     22  C   UNL     1       1.656   5.810  20.354  0.00  0.00    +0.000 C 
ATOM     23  C   UNL     1       1.374   7.035  20.702  0.00  0.00    +0.000 C 
BRANCH  23  24
ATOM     24  C   UNL     1       1.046   8.462  21.109  0.00  0.00    +0.000 C 
ATOM     25  C   UNL     1       1.007   9.353  19.872  0.00  0.00    +0.000 C 
ATOM     26  C   UNL     1      -0.292   8.490  21.844  0.00  0.00    +0.000 C 
ENDBRANCH  23  24
ENDBRANCH   7  22
TORSDOF 4
ENDMDL
MODEL 3
REMARK VINA RESULT:      -7.9      0.324      1.089
REMARK  Name = 
REMARK  7 active torsions:
REMARK  status: ('A' for Active; 'I' for Inactive)
REMARK    1  A    between atoms: C_1  and  C_2
REMARK    2  A    between atoms: N_4  and  C_5
REMARK    3  A    between atoms: C_11  and  C_12
REMARK    4  A    between atoms: C_11  and  C_17
REMARK    5  A    between atoms: C_13  and  C_14
REMARK    6  A    between atoms: C_14  and  C_15
REMARK    7  A    between atoms: C_14  and  C_16
REMARK                            x       y       z     vdW  Elec       q    Type
REMARK                         _______ _______ _______ _____ _____    ______ ____
ROOT
ATOM      1  C   UNL     1       5.388   5.208  18.323  0.00  0.00    +0.000 A 
ATOM      2  C   UNL     1       5.365   4.329  17.238  0.00  0.00    +0.000 A 
ATOM      3  C   UNL     1       4.301   3.448  17.055  0.00  0.00    +0.000 A 
ATOM      4  C   UNL     1       3.230   3.469  17.941  0.00  0.00    +0.000 A 
ATOM      5  C   UNL     1       3.202   4.357  19.007  0.00  0.00    +0.000 A 
ATOM      6  C   UNL     1       4.323   5.185  19.228  0.00  0.00    +0.000 A 
ATOM      7  C   UNL     1       1.980   4.340  19.911  0.00  0.00    +0.000 C 
ATOM      8  O   UNL     1       0.831   3.758  19.269  0.00  0.00    +0.000 OA
ATOM      9  C   UNL     1       1.029   2.622  18.548  0.00  0.00    +0.000 C 
ATOM     10  O   UNL     1       0.190   1.738  18.474  0.00  0.00    +0.000 OA
ATOM     11  N   UNL     1       2.188   2.571  17.816  0.00  0.00    +0.000 N 
ATOM     12  H   UNL     1       2.235   1.818  17.143  0.00  0.00    +0.000 HD
ENDROOT
BRANCH   1  16
ATOM     13  C   UNL     1       8.038   7.878  18.108  0.00  0.00    +0.000 C 
ATOM     14  C   UNL     1       6.934   7.002  17.587  0.00  0.00    +0.000 C 
ATOM     15  O   UNL     1       6.550   7.111  16.427  0.00  0.00    +0.000 OA
ATOM     16  N   UNL     1       6.429   6.135  18.544  0.00  0.00    +0.000 N 
ATOM     17  H   UNL     1       6.710   6.295  19.503  0.00  0.00    +0.000 HD
ENDBRANCH   1  16
BRANCH   7  18
ATOM     18  C   UNL     1       2.310   3.571  21.240  0.00  0.00    +0.000 C 
ATOM     19  F   UNL     1       2.704   4.400  22.242  0.00  0.00    +0.000 F 
ATOM     20  F   UNL     1       1.246   2.882  21.724  0.00  0.00    +0.000 F 
ATOM     21  F   UNL     1       3.313   2.670  21.077  0.00  0.00    +0.000 F 
ENDBRANCH   7  18
BRANCH   7  22
ATOM     22  C   UNL     1       1.652   5.789  20.235  0.00  0.00    +0.000 C 
ATOM     23  C   UNL     1       1.370   7.031  20.515  0.00  0.00    +0.000 C 
BRANCH  23  24
ATOM     24  C   UNL     1       1.043   8.480  20.839  0.00  0.00    +0.000 C 
ATOM     25  C   UNL     1       1.746   8.889  22.129  0.00  0.00    +0.000 C 
ATOM     26  C   UNL     1       1.470   9.375  19.678  0.00  0.00    +0.000 C 
ENDBRANCH  23  24
ENDBRANCH   7  22
TORSDOF 4
ENDMDL
MODEL 4
REMARK VINA RESULT:      -7.6      2.021      2.576
REMARK  Name = 
REMARK  7 active torsions:
REMARK  status: ('A' for Active; 'I' for Inactive)
REMARK    1  A    between atoms: C_1  and  C_2
REMARK    2  A    between atoms: N_4  and  C_5
REMARK    3  A    between atoms: C_11  and  C_12
REMARK    4  A    between atoms: C_11  and  C_17
REMARK    5  A    between atoms: C_13  and  C_14
REMARK    6  A    between atoms: C_14  and  C_15
REMARK    7  A    between atoms: C_14  and  C_16
REMARK                            x       y       z     vdW  Elec       q    Type
REMARK                         _______ _______ _______ _____ _____    ______ ____
ROOT
ATOM      1  C   UNL     1       6.376   6.944  17.065  0.00  0.00    +0.000 A 
ATOM      2  C   UNL     1       6.744   5.859  16.266  0.00  0.00    +0.000 A 
ATOM      3  C   UNL     1       5.919   4.742  16.155  0.00  0.00    +0.000 A 
ATOM      4  C   UNL     1       4.697   4.720  16.819  0.00  0.00    +0.000 A 
ATOM      5  C   UNL     1       4.283   5.796  17.589  0.00  0.00    +0.000 A 
ATOM      6  C   UNL     1       5.163   6.885  17.760  0.00  0.00    +0.000 A 
ATOM      7  C   UNL     1       2.918   5.708  18.255  0.00  0.00    +0.000 C 
ATOM      8  O   UNL     1       2.057   4.749  17.615  0.00  0.00    +0.000 OA
ATOM      9  C   UNL     1       2.605   3.554  17.265  0.00  0.00    +0.000 C 
ATOM     10  O   UNL     1       1.974   2.510  17.296  0.00  0.00    +0.000 OA
ATOM     11  N   UNL     1       3.884   3.603  16.772  0.00  0.00    +0.000 N 
ATOM     12  H   UNL     1       4.209   2.748  16.341  0.00  0.00    +0.000 HD
ENDROOT
BRANCH   1  16
ATOM     13  C   UNL     1       8.838   9.625  18.037  0.00  0.00    +0.000 C 
ATOM     14  C   UNL     1       8.168   8.285  18.134  0.00  0.00    +0.000 C 
ATOM     15  O   UNL     1       8.538   7.464  18.967  0.00  0.00    +0.000 OA
ATOM     16  N   UNL     1       7.162   8.109  17.196  0.00  0.00    +0.000 N 
ATOM     17  H   UNL     1       7.103   8.792  16.452  0.00  0.00    +0.000 HD
ENDBRANCH   1  16
BRANCH   7  18
ATOM     18  C   UNL     1       3.089   5.358  19.776  0.00  0.00    +0.000 C 
ATOM     19  F   UNL     1       2.218   4.402  20.195  0.00  0.00    +0.000 F 
ATOM     20  F   UNL     1       4.327   4.887  20.070  0.00  0.00    +0.000 F 
ATOM     21  F   UNL     1       2.884   6.434  20.578  0.00  0.00    +0.000 F 
ENDBRANCH   7  18
BRANCH   7  22
ATOM     22  C   UNL     1       2.275   7.079  18.122  0.00  0.00    +0.000 C 
ATOM     23  C   UNL     1       1.721   8.255  18.008  0.00  0.00    +0.000 C 
BRANCH  23  24
ATOM     24  C   UNL     1       1.078   9.625  17.875  0.00  0.00    +0.000 C 
ATOM     25  C   UNL     1       0.029   9.808  18.968  0.00  0.00    +0.000 C 
ATOM     26  C   UNL     1       2.151  10.707  17.964  0.00  0.00    +0.000 C 
ENDBRANCH  23  24
ENDBRANCH   7  22
TORSDOF 4
ENDMDL
MODEL 5
REMARK VINA RESULT:      -7.1      2.739      5.203
REMARK  Name = 
REMARK  7 active torsions:
REMARK  status: ('A' for Active; 'I' for Inactive)
REMARK    1  A    between atoms: C_1  and  C_2
REMARK    2  A    between atoms: N_4  and  C_5
REMARK    3  A    between atoms: C_11  and  C_12
REMARK    4  A    between atoms: C_11  and  C_17
REMARK    5  A    between atoms: C_13  and  C_14
REMARK    6  A    between atoms: C_14  and  C_15
REMARK    7  A    between atoms: C_14  and  C_16
REMARK                            x       y       z     vdW  Elec       q    Type
REMARK                         _______ _______ _______ _____ _____    ______ ____
ROOT
ATOM      1  C   UNL     1       2.194   7.697  19.213  0.00  0.00    +0.000 A 
ATOM      2  C   UNL     1       1.522   7.653  20.437  0.00  0.00    +0.000 A 
ATOM      3  C   UNL     1       1.353   6.448  21.116  0.00  0.00    +0.000 A 
ATOM      4  C   UNL     1       1.891   5.280  20.588  0.00  0.00    +0.000 A 
ATOM      5  C   UNL     1       2.599   5.293  19.396  0.00  0.00    +0.000 A 
ATOM      6  C   UNL     1       2.691   6.504  18.677  0.00  0.00    +0.000 A 
ATOM      7  C   UNL     1       3.185   3.980  18.903  0.00  0.00    +0.000 C 
ATOM      8  O   UNL     1       3.339   3.017  19.962  0.00  0.00    +0.000 OA
ATOM      9  C   UNL     1       2.312   2.894  20.847  0.00  0.00    +0.000 C 
ATOM     10  O   UNL     1       2.015   1.828  21.362  0.00  0.00    +0.000 OA
ATOM     11  N   UNL     1       1.693   4.062  21.212  0.00  0.00    +0.000 N 
ATOM     12  H   UNL     1       1.068   3.985  22.004  0.00  0.00    +0.000 HD
ENDROOT
BRANCH   1  16
ATOM     13  C   UNL     1       2.063  11.128  17.663  0.00  0.00    +0.000 C 
ATOM     14  C   UNL     1       1.578   9.999  18.527  0.00  0.00    +0.000 C 
ATOM     15  O   UNL     1       0.552  10.118  19.187  0.00  0.00    +0.000 OA
ATOM     16  N   UNL     1       2.411   8.891  18.494  0.00  0.00    +0.000 N 
ATOM     17  H   UNL     1       3.318   9.011  18.061  0.00  0.00    +0.000 HD
ENDBRANCH   1  16
BRANCH   7  18
ATOM     18  C   UNL     1       2.287   3.391  17.758  0.00  0.00    +0.000 C 
ATOM     19  F   UNL     1       1.025   3.894  17.769  0.00  0.00    +0.000 F 
ATOM     20  F   UNL     1       2.779   3.650  16.520  0.00  0.00    +0.000 F 
ATOM     21  F   UNL     1       2.157   2.042  17.848  0.00  0.00    +0.000 F 
ENDBRANCH   7  18
BRANCH   7  22
ATOM     22  C   UNL     1       4.566   4.293  18.351  0.00  0.00    +0.000 C 
ATOM     23  C   UNL     1       5.751   4.564  17.876  0.00  0.00    +0.000 C 
BRANCH  23  24
ATOM     24  C   UNL     1       7.131   4.878  17.324  0.00  0.00    +0.000 C 
ATOM     25  C   UNL     1       7.141   4.665  15.813  0.00  0.00    +0.000 C 
ATOM     26  C   UNL     1       7.510   6.315  17.674  0.00  0.00    +0.000 C 
ENDBRANCH  23  24
ENDBRANCH   7  22
TORSDOF 4
ENDMDL
MODEL 6
REMARK VINA RESULT:      -6.9      2.747      5.167
REMARK  Name = 
REMARK  7 active torsions:
REMARK  status: ('A' for Active; 'I' for Inactive)
REMARK    1  A    between atoms: C_1  and  C_2
REMARK    2  A    between atoms: N_4  and  C_5
REMARK    3  A    between atoms: C_11  and  C_12
REMARK    4  A    between atoms: C_11  and  C_17
REMARK    5  A    between atoms: C_13  and  C_14
REMARK    6  A    between atoms: C_14  and  C_15
REMARK    7  A    between atoms: C_14  and  C_16
REMARK                            x       y       z     vdW  Elec       q    Type
REMARK                         _______ _______ _______ _____ _____    ______ ____
ROOT
ATOM      1  C   UNL     1       2.092   8.021  19.447  0.00  0.00    +0.000 A 
ATOM      2  C   UNL     1       1.236   7.828  20.533  0.00  0.00    +0.000 A 
ATOM      3  C   UNL     1       1.025   6.555  21.060  0.00  0.00    +0.000 A 
ATOM      4  C   UNL     1       1.703   5.467  20.521  0.00  0.00    +0.000 A 
ATOM      5  C   UNL     1       2.590   5.628  19.468  0.00  0.00    +0.000 A 
ATOM      6  C   UNL     1       2.731   6.908  18.891  0.00  0.00    +0.000 A 
ATOM      7  C   UNL     1       3.318   4.394  18.958  0.00  0.00    +0.000 C 
ATOM      8  O   UNL     1       3.350   3.336  19.933  0.00  0.00    +0.000 OA
ATOM      9  C   UNL     1       2.204   3.085  20.620  0.00  0.00    +0.000 C 
ATOM     10  O   UNL     1       1.885   1.963  20.977  0.00  0.00    +0.000 OA
ATOM     11  N   UNL     1       1.472   4.186  20.987  0.00  0.00    +0.000 N 
ATOM     12  H   UNL     1       0.734   4.006  21.654  0.00  0.00    +0.000 HD
ENDROOT
BRANCH   1  16
ATOM     13  C   UNL     1       1.987  11.389  17.762  0.00  0.00    +0.000 C 
ATOM     14  C   UNL     1       1.419  10.089  18.256  0.00  0.00    +0.000 C 
ATOM     15  O   UNL     1       0.230   9.832  18.101  0.00  0.00    +0.000 OA
ATOM     16  N   UNL     1       2.358   9.289  18.889  0.00  0.00    +0.000 N 
ATOM     17  H   UNL     1       3.248   9.716  19.113  0.00  0.00    +0.000 HD
ENDBRANCH   1  16
BRANCH   7  18
ATOM     18  C   UNL     1       2.648   3.891  17.630  0.00  0.00    +0.000 C 
ATOM     19  F   UNL     1       2.500   2.540  17.596  0.00  0.00    +0.000 F 
ATOM     20  F   UNL     1       1.406   4.405  17.442  0.00  0.00    +0.000 F 
ATOM     21  F   UNL     1       3.373   4.220  16.531  0.00  0.00    +0.000 F 
ENDBRANCH   7  18
BRANCH   7  22
ATOM     22  C   UNL     1       4.751   4.813  18.672  0.00  0.00    +0.000 C 
ATOM     23  C   UNL     1       5.980   5.172  18.428  0.00  0.00    +0.000 C 
BRANCH  23  24
ATOM     24  C   UNL     1       7.413   5.592  18.143  0.00  0.00    +0.000 C 
ATOM     25  C   UNL     1       7.418   6.882  17.329  0.00  0.00    +0.000 C 
ATOM     26  C   UNL     1       8.166   5.774  19.458  0.00  0.00    +0.000 C 
ENDBRANCH  23  24
ENDBRANCH   7  22
TORSDOF 4
ENDMDL
MODEL 7
REMARK VINA RESULT:      -6.9      3.138      7.244
REMARK  Name = 
REMARK  7 active torsions:
REMARK  status: ('A' for Active; 'I' for Inactive)
REMARK    1  A    between atoms: C_1  and  C_2
REMARK    2  A    between atoms: N_4  and  C_5
REMARK    3  A    between atoms: C_11  and  C_12
REMARK    4  A    between atoms: C_11  and  C_17
REMARK    5  A    between atoms: C_13  and  C_14
REMARK    6  A    between atoms: C_14  and  C_15
REMARK    7  A    between atoms: C_14  and  C_16
REMARK                            x       y       z     vdW  Elec       q    Type
REMARK                         _______ _______ _______ _____ _____    ______ ____
ROOT
ATOM      1  C   UNL     1       2.794   4.953  17.746  0.00  0.00    +0.000 A 
ATOM      2  C   UNL     1       2.485   6.222  18.240  0.00  0.00    +0.000 A 
ATOM      3  C   UNL     1       3.440   7.237  18.251  0.00  0.00    +0.000 A 
ATOM      4  C   UNL     1       4.707   6.995  17.732  0.00  0.00    +0.000 A 
ATOM      5  C   UNL     1       5.036   5.758  17.197  0.00  0.00    +0.000 A 
ATOM      6  C   UNL     1       4.087   4.716  17.267  0.00  0.00    +0.000 A 
ATOM      7  C   UNL     1       6.431   5.584  16.617  0.00  0.00    +0.000 C 
ATOM      8  O   UNL     1       7.041   6.841  16.271  0.00  0.00    +0.000 OA
ATOM      9  C   UNL     1       6.909   7.863  17.158  0.00  0.00    +0.000 C 
ATOM     10  O   UNL     1       7.781   8.701  17.326  0.00  0.00    +0.000 OA
ATOM     11  N   UNL     1       5.691   7.964  17.780  0.00  0.00    +0.000 N 
ATOM     12  H   UNL     1       5.539   8.827  18.285  0.00  0.00    +0.000 HD
ENDROOT
BRANCH   1  16
ATOM     13  C   UNL     1       0.494   2.044  18.408  0.00  0.00    +0.000 C 
ATOM     14  C   UNL     1       1.520   3.083  18.760  0.00  0.00    +0.000 C 
ATOM     15  O   UNL     1       1.955   3.164  19.903  0.00  0.00    +0.000 OA
ATOM     16  N   UNL     1       1.860   3.897  17.690  0.00  0.00    +0.000 N 
ATOM     17  H   UNL     1       1.277   3.838  16.864  0.00  0.00    +0.000 HD
ENDBRANCH   1  16
BRANCH   7  18
ATOM     18  C   UNL     1       7.337   4.801  17.633  0.00  0.00    +0.000 C 
ATOM     19  F   UNL     1       8.056   5.626  18.438  0.00  0.00    +0.000 F 
ATOM     20  F   UNL     1       6.621   4.001  18.464  0.00  0.00    +0.000 F 
ATOM     21  F   UNL     1       8.238   4.001  17.008  0.00  0.00    +0.000 F 
ENDBRANCH   7  18
BRANCH   7  22
ATOM     22  C   UNL     1       6.280   4.769  15.343  0.00  0.00    +0.000 C 
ATOM     23  C   UNL     1       6.151   4.070  14.249  0.00  0.00    +0.000 C 
BRANCH  23  24
ATOM     24  C   UNL     1       6.000   3.254  12.976  0.00  0.00    +0.000 C 
ATOM     25  C   UNL     1       4.636   3.526  12.350  0.00  0.00    +0.000 C 
ATOM     26  C   UNL     1       7.125   3.606  12.005  0.00  0.00    +0.000 C 
ENDBRANCH  23  24
ENDBRANCH   7  22
TORSDOF 4
ENDMDL
MODEL 8
REMARK VINA RESULT:      -6.9      1.474      1.965
REMARK  Name = 
REMARK  7 active torsions:
REMARK  status: ('A' for Active; 'I' for Inactive)
REMARK    1  A    between atoms: C_1  and  C_2
REMARK    2  A    between atoms: N_4  and  C_5
REMARK    3  A    between atoms: C_11  and  C_12
REMARK    4  A    between atoms: C_11  and  C_17
REMARK    5  A    between atoms: C_13  and  C_14
REMARK    6  A    between atoms: C_14  and  C_15
REMARK    7  A    between atoms: C_14  and  C_16
REMARK                            x       y       z     vdW  Elec       q    Type
REMARK                         _______ _______ _______ _____ _____    ______ ____
ROOT
ATOM      1  C   UNL     1       6.806   5.876  18.057  0.00  0.00    +0.000 A 
ATOM      2  C   UNL     1       7.135   4.942  17.072  0.00  0.00    +0.000 A 
ATOM      3  C   UNL     1       6.210   3.988  16.654  0.00  0.00    +0.000 A 
ATOM      4  C   UNL     1       4.930   3.987  17.198  0.00  0.00    +0.000 A 
ATOM      5  C   UNL     1       4.556   4.924  18.149  0.00  0.00    +0.000 A 
ATOM      6  C   UNL     1       5.527   5.831  18.623  0.00  0.00    +0.000 A 
ATOM      7  C   UNL     1       3.128   4.877  18.668  0.00  0.00    +0.000 C 
ATOM      8  O   UNL     1       2.239   4.191  17.768  0.00  0.00    +0.000 OA
ATOM      9  C   UNL     1       2.688   3.034  17.211  0.00  0.00    +0.000 C 
ATOM     10  O   UNL     1       1.947   2.097  16.961  0.00  0.00    +0.000 OA
ATOM     11  N   UNL     1       4.009   3.019  16.843  0.00  0.00    +0.000 N 
ATOM     12  H   UNL     1       4.282   2.237  16.262  0.00  0.00    +0.000 HD
ENDROOT
BRANCH   1  16
ATOM     13  C   UNL     1       8.844   8.994  18.619  0.00  0.00    +0.000 C 
ATOM     14  C   UNL     1       7.817   8.137  17.936  0.00  0.00    +0.000 C 
ATOM     15  O   UNL     1       7.170   8.576  16.992  0.00  0.00    +0.000 OA
ATOM     16  N   UNL     1       7.696   6.876  18.501  0.00  0.00    +0.000 N 
ATOM     17  H   UNL     1       8.153   6.727  19.392  0.00  0.00    +0.000 HD
ENDBRANCH   1  16
BRANCH   7  18
ATOM     18  C   UNL     1       3.098   4.199  20.085  0.00  0.00    +0.000 C 
ATOM     19  F   UNL     1       4.195   3.434  20.323  0.00  0.00    +0.000 F 
ATOM     20  F   UNL     1       3.047   5.102  21.097  0.00  0.00    +0.000 F 
ATOM     21  F   UNL     1       2.025   3.382  20.241  0.00  0.00    +0.000 F 
ENDBRANCH   7  18
BRANCH   7  22
ATOM     22  C   UNL     1       2.655   6.317  18.788  0.00  0.00    +0.000 C 
ATOM     23  C   UNL     1       2.250   7.552  18.890  0.00  0.00    +0.000 C 
BRANCH  23  24
ATOM     24  C   UNL     1       1.777   8.992  19.009  0.00  0.00    +0.000 C 
ATOM     25  C   UNL     1       0.971   9.373  17.771  0.00  0.00    +0.000 C 
ATOM     26  C   UNL     1       0.940   9.154  20.276  0.00  0.00    +0.000 C 
ENDBRANCH  23  24
ENDBRANCH   7  22
TORSDOF 4
ENDMDL
MODEL 9
REMARK VINA RESULT:      -6.8      2.888      5.153
REMARK  Name = 
REMARK  7 active torsions:
REMARK  status: ('A' for Active; 'I' for Inactive)
REMARK    1  A    between atoms: C_1  and  C_2
REMARK    2  A    between atoms: N_4  and  C_5
REMARK    3  A    between atoms: C_11  and  C_12
REMARK    4  A    between atoms: C_11  and  C_17
REMARK    5  A    between atoms: C_13  and  C_14
REMARK    6  A    between atoms: C_14  and  C_15
REMARK    7  A    between atoms: C_14  and  C_16
REMARK                            x       y       z     vdW  Elec       q    Type
REMARK                         _______ _______ _______ _____ _____    ______ ____
ROOT
ATOM      1  C   UNL     1       2.170   7.066  19.714  0.00  0.00    +0.000 A 
ATOM      2  C   UNL     1       1.586   6.309  20.731  0.00  0.00    +0.000 A 
ATOM      3  C   UNL     1       1.969   4.987  20.948  0.00  0.00    +0.000 A 
ATOM      4  C   UNL     1       2.973   4.425  20.167  0.00  0.00    +0.000 A 
ATOM      5  C   UNL     1       3.602   5.160  19.174  0.00  0.00    +0.000 A 
ATOM      6  C   UNL     1       3.147   6.469  18.910  0.00  0.00    +0.000 A 
ATOM      7  C   UNL     1       4.713   4.484  18.387  0.00  0.00    +0.000 C 
ATOM      8  O   UNL     1       5.277   3.360  19.088  0.00  0.00    +0.000 OA
ATOM      9  C   UNL     1       4.410   2.513  19.706  0.00  0.00    +0.000 C 
ATOM     10  O   UNL     1       4.618   1.313  19.794  0.00  0.00    +0.000 OA
ATOM     11  N   UNL     1       3.335   3.100  20.323  0.00  0.00    +0.000 N 
ATOM     12  H   UNL     1       2.809   2.491  20.935  0.00  0.00    +0.000 HD
ENDROOT
BRANCH   1  16
ATOM     13  C   UNL     1       1.518  10.483  18.266  0.00  0.00    +0.000 C 
ATOM     14  C   UNL     1       1.952   9.045  18.235  0.00  0.00    +0.000 C 
ATOM     15  O   UNL     1       2.338   8.535  17.189  0.00  0.00    +0.000 OA
ATOM     16  N   UNL     1       1.836   8.414  19.465  0.00  0.00    +0.000 N 
ATOM     17  H   UNL     1       1.320   8.903  20.185  0.00  0.00    +0.000 HD
ENDBRANCH   1  16
BRANCH   7  18
ATOM     18  C   UNL     1       4.173   4.034  16.983  0.00  0.00    +0.000 C 
ATOM     19  F   UNL     1       2.835   3.796  16.986  0.00  0.00    +0.000 F 
ATOM     20  F   UNL     1       4.382   4.965  16.018  0.00  0.00    +0.000 F 
ATOM     21  F   UNL     1       4.760   2.889  16.549  0.00  0.00    +0.000 F 
ENDBRANCH   7  18
BRANCH   7  22
ATOM     22  C   UNL     1       5.811   5.517  18.197  0.00  0.00    +0.000 C 
ATOM     23  C   UNL     1       6.753   6.405  18.034  0.00  0.00    +0.000 C 
BRANCH  23  24
ATOM     24  C   UNL     1       7.851   7.439  17.845  0.00  0.00    +0.000 C 
ATOM     25  C   UNL     1       7.237   8.769  17.417  0.00  0.00    +0.000 C 
ATOM     26  C   UNL     1       8.639   7.595  19.143  0.00  0.00    +0.000 C 
ENDBRANCH  23  24
ENDBRANCH   7  22
TORSDOF 4
ENDMDL
