MODEL 1
REMARK VINA RESULT:      -6.6      0.000      0.000
REMARK  Name = 
REMARK  12 active torsions:
REMARK  status: ('A' for Active; 'I' for Inactive)
REMARK    1  A    between atoms: C_1  and  C_2
REMARK    2  A    between atoms: C_2  and  C_3
REMARK    3  A    between atoms: C_3  and  C_4
REMARK    4  A    between atoms: C_4  and  N_5
REMARK    5  A    between atoms: N_5  and  C_6
REMARK    6  A    between atoms: C_7  and  C_9
REMARK    7  A    between atoms: N_13  and  C_14
REMARK    8  A    between atoms: C_14  and  C_15
REMARK    9  A    between atoms: C_15  and  C_17
REMARK   10  A    between atoms: C_22  and  O_23
REMARK   11  A    between atoms: O_23  and  C_24
REMARK   12  A    between atoms: C_25  and  C_26
REMARK                            x       y       z     vdW  Elec       q    Type
REMARK                         _______ _______ _______ _____ _____    ______ ____
ROOT
ATOM      1  C   UNL     1       6.740   5.377  16.007  0.00  0.00    +0.000 A 
ATOM      2  S   UNL     1       7.446   4.518  17.347  0.00  0.00    +0.000 S 
ATOM      3  C   UNL     1       6.457   5.378  18.509  0.00  0.00    +0.000 A 
ATOM      4  O   UNL     1       6.570   5.259  19.717  0.00  0.00    +0.000 OA
ATOM      5  N   UNL     1       5.538   6.143  17.814  0.00  0.00    +0.000 N 
ATOM      6  C   UNL     1       5.678   6.116  16.419  0.00  0.00    +0.000 A 
ATOM      7  C   UNL     1       4.678   6.832  15.565  0.00  0.00    +0.000 C 
ENDROOT
BRANCH   1  10
ATOM      8  N   UNL     1       6.438   4.273  13.725  0.00  0.00    +0.000 N 
ATOM      9  C   UNL     1       5.284   3.440  14.050  0.00  0.00    +0.000 C 
ATOM     10  C   UNL     1       7.157   5.121  14.581  0.00  0.00    +0.000 C 
ATOM     11  O   UNL     1       8.187   5.671  14.182  0.00  0.00    +0.000 OA
BRANCH   8  12
ATOM     12  C   UNL     1       7.043   3.970  12.416  0.00  0.00    +0.000 C 
BRANCH  12  13
ATOM     13  C   UNL     1       6.212   2.967  11.603  0.00  0.00    +0.000 C 
BRANCH  13  15
ATOM     14  C   UNL     1       6.292   0.474  11.201  0.00  0.00    +0.000 C 
ATOM     15  C   UNL     1       7.059   1.786  11.120  0.00  0.00    +0.000 C 
ENDBRANCH  13  15
ENDBRANCH  12  13
ENDBRANCH   8  12
ENDBRANCH   1  10
BRANCH   5  16
ATOM     16  C   UNL     1       4.520   6.870  18.570  0.00  0.00    +0.000 C 
BRANCH  16  17
ATOM     17  C   UNL     1       3.084   6.305  18.474  0.00  0.00    +0.000 C 
ATOM     18  O   UNL     1       2.142   7.063  18.258  0.00  0.00    +0.000 OA
BRANCH  17  19
ATOM     19  C   UNL     1       2.898   4.797  18.506  0.00  0.00    +0.000 A 
ATOM     20  C   UNL     1       2.846   4.158  17.237  0.00  0.00    +0.000 A 
ATOM     21  C   UNL     1       2.649   2.780  17.088  0.00  0.00    +0.000 A 
ATOM     22  C   UNL     1       2.488   1.987  18.207  0.00  0.00    +0.000 A 
ATOM     23  C   UNL     1       2.531   2.586  19.462  0.00  0.00    +0.000 A 
ATOM     24  C   UNL     1       2.735   3.978  19.644  0.00  0.00    +0.000 A 
BRANCH  24  25
ATOM     25  O   UNL     1       2.751   4.214  20.986  0.00  0.00    +0.000 OA
ATOM     26  C   UNL     1       2.116   3.386  21.932  0.00  0.00    +0.000 C 
ENDBRANCH  24  25
ENDBRANCH  17  19
ENDBRANCH  16  17
ENDBRANCH   5  16
TORSDOF 8
ENDMDL
MODEL 2
REMARK VINA RESULT:      -6.3      1.079      1.266
REMARK  Name = 
REMARK  12 active torsions:
REMARK  status: ('A' for Active; 'I' for Inactive)
REMARK    1  A    between atoms: C_1  and  C_2
REMARK    2  A    between atoms: C_2  and  C_3
REMARK    3  A    between atoms: C_3  and  C_4
REMARK    4  A    between atoms: C_4  and  N_5
REMARK    5  A    between atoms: N_5  and  C_6
REMARK    6  A    between atoms: C_7  and  C_9
REMARK    7  A    between atoms: N_13  and  C_14
REMARK    8  A    between atoms: C_14  and  C_15
REMARK    9  A    between atoms: C_15  and  C_17
REMARK   10  A    between atoms: C_22  and  O_23
REMARK   11  A    between atoms: O_23  and  C_24
REMARK   12  A    between atoms: C_25  and  C_26
REMARK                            x       y       z     vdW  Elec       q    Type
REMARK                         _______ _______ _______ _____ _____    ______ ____
ROOT
ATOM      1  C   UNL     1       6.642   5.324  15.937  0.00  0.00    +0.000 A 
ATOM      2  S   UNL     1       7.196   4.407  17.310  0.00  0.00    +0.000 S 
ATOM      3  C   UNL     1       6.294   5.409  18.430  0.00  0.00    +0.000 A 
ATOM      4  O   UNL     1       6.359   5.298  19.642  0.00  0.00    +0.000 OA
ATOM      5  N   UNL     1       5.500   6.271  17.698  0.00  0.00    +0.000 N 
ATOM      6  C   UNL     1       5.672   6.200  16.307  0.00  0.00    +0.000 A 
ATOM      7  C   UNL     1       4.796   7.023  15.414  0.00  0.00    +0.000 C 
ENDROOT
BRANCH   1  10
ATOM      8  N   UNL     1       6.300   4.159  13.692  0.00  0.00    +0.000 N 
ATOM      9  C   UNL     1       5.091   3.413  14.029  0.00  0.00    +0.000 C 
ATOM     10  C   UNL     1       7.060   4.990  14.528  0.00  0.00    +0.000 C 
ATOM     11  O   UNL     1       8.129   5.459  14.126  0.00  0.00    +0.000 OA
BRANCH   8  12
ATOM     12  C   UNL     1       6.902   3.770  12.404  0.00  0.00    +0.000 C 
BRANCH  12  13
ATOM     13  C   UNL     1       6.073   2.711  11.664  0.00  0.00    +0.000 C 
BRANCH  13  15
ATOM     14  C   UNL     1       6.186   0.233  11.189  0.00  0.00    +0.000 C 
ATOM     15  C   UNL     1       6.943   1.553  11.168  0.00  0.00    +0.000 C 
ENDBRANCH  13  15
ENDBRANCH  12  13
ENDBRANCH   8  12
ENDBRANCH   1  10
BRANCH   5  16
ATOM     16  C   UNL     1       4.564   7.137  18.413  0.00  0.00    +0.000 C 
BRANCH  16  17
ATOM     17  C   UNL     1       3.066   6.887  18.121  0.00  0.00    +0.000 C 
ATOM     18  O   UNL     1       2.456   7.640  17.366  0.00  0.00    +0.000 OA
BRANCH  17  19
ATOM     19  C   UNL     1       2.424   5.623  18.670  0.00  0.00    +0.000 A 
ATOM     20  C   UNL     1       2.346   4.531  17.763  0.00  0.00    +0.000 A 
ATOM     21  C   UNL     1       1.759   3.306  18.098  0.00  0.00    +0.000 A 
ATOM     22  C   UNL     1       1.216   3.129  19.355  0.00  0.00    +0.000 A 
ATOM     23  C   UNL     1       1.275   4.182  20.262  0.00  0.00    +0.000 A 
ATOM     24  C   UNL     1       1.870   5.432  19.953  0.00  0.00    +0.000 A 
BRANCH  24  25
ATOM     25  O   UNL     1       1.780   6.210  21.068  0.00  0.00    +0.000 OA
ATOM     26  C   UNL     1       1.249   7.514  21.070  0.00  0.00    +0.000 C 
ENDBRANCH  24  25
ENDBRANCH  17  19
ENDBRANCH  16  17
ENDBRANCH   5  16
TORSDOF 8
ENDMDL
MODEL 3
REMARK VINA RESULT:      -6.3      1.012      1.852
REMARK  Name = 
REMARK  12 active torsions:
REMARK  status: ('A' for Active; 'I' for Inactive)
REMARK    1  A    between atoms: C_1  and  C_2
REMARK    2  A    between atoms: C_2  and  C_3
REMARK    3  A    between atoms: C_3  and  C_4
REMARK    4  A    between atoms: C_4  and  N_5
REMARK    5  A    between atoms: N_5  and  C_6
REMARK    6  A    between atoms: C_7  and  C_9
REMARK    7  A    between atoms: N_13  and  C_14
REMARK    8  A    between atoms: C_14  and  C_15
REMARK    9  A    between atoms: C_15  and  C_17
REMARK   10  A    between atoms: C_22  and  O_23
REMARK   11  A    between atoms: O_23  and  C_24
REMARK   12  A    between atoms: C_25  and  C_26
REMARK                            x       y       z     vdW  Elec       q    Type
REMARK                         _______ _______ _______ _____ _____    ______ ____
ROOT
ATOM      1  C   UNL     1       6.668   5.323  16.229  0.00  0.00    +0.000 A 
ATOM      2  S   UNL     1       7.455   4.503  17.548  0.00  0.00    +0.000 S 
ATOM      3  C   UNL     1       6.508   5.368  18.742  0.00  0.00    +0.000 A 
ATOM      4  O   UNL     1       6.683   5.274  19.945  0.00  0.00    +0.000 OA
ATOM      5  N   UNL     1       5.542   6.102  18.080  0.00  0.00    +0.000 N 
ATOM      6  C   UNL     1       5.613   6.051  16.680  0.00  0.00    +0.000 A 
ATOM      7  C   UNL     1       4.559   6.733  15.863  0.00  0.00    +0.000 C 
ENDROOT
BRANCH   1  10
ATOM      8  N   UNL     1       6.246   4.209  13.972  0.00  0.00    +0.000 N 
ATOM      9  C   UNL     1       5.089   3.405  14.352  0.00  0.00    +0.000 C 
ATOM     10  C   UNL     1       7.018   5.046  14.790  0.00  0.00    +0.000 C 
ATOM     11  O   UNL     1       8.043   5.570  14.343  0.00  0.00    +0.000 OA
BRANCH   8  12
ATOM     12  C   UNL     1       6.789   3.882  12.641  0.00  0.00    +0.000 C 
BRANCH  12  13
ATOM     13  C   UNL     1       5.715   3.347  11.684  0.00  0.00    +0.000 C 
BRANCH  13  15
ATOM     14  C   UNL     1       7.142   1.411  10.911  0.00  0.00    +0.000 C 
ATOM     15  C   UNL     1       5.809   1.828  11.515  0.00  0.00    +0.000 C 
ENDBRANCH  13  15
ENDBRANCH  12  13
ENDBRANCH   8  12
ENDBRANCH   1  10
BRANCH   5  16
ATOM     16  C   UNL     1       4.549   6.826  18.872  0.00  0.00    +0.000 C 
BRANCH  16  17
ATOM     17  C   UNL     1       3.125   6.225  18.869  0.00  0.00    +0.000 C 
ATOM     18  O   UNL     1       2.242   6.746  18.193  0.00  0.00    +0.000 OA
BRANCH  17  19
ATOM     19  C   UNL     1       2.894   4.912  19.600  0.00  0.00    +0.000 A 
ATOM     20  C   UNL     1       2.289   5.022  20.882  0.00  0.00    +0.000 A 
ATOM     21  C   UNL     1       2.034   3.914  21.699  0.00  0.00    +0.000 A 
ATOM     22  C   UNL     1       2.385   2.650  21.267  0.00  0.00    +0.000 A 
ATOM     23  C   UNL     1       2.982   2.514  20.018  0.00  0.00    +0.000 A 
ATOM     24  C   UNL     1       3.247   3.616  19.166  0.00  0.00    +0.000 A 
BRANCH  24  25
ATOM     25  O   UNL     1       3.803   3.123  18.024  0.00  0.00    +0.000 OA
ATOM     26  C   UNL     1       3.861   1.751  17.714  0.00  0.00    +0.000 C 
ENDBRANCH  24  25
ENDBRANCH  17  19
ENDBRANCH  16  17
ENDBRANCH   5  16
TORSDOF 8
ENDMDL
MODEL 4
REMARK VINA RESULT:      -6.1      3.014      5.765
REMARK  Name = 
REMARK  12 active torsions:
REMARK  status: ('A' for Active; 'I' for Inactive)
REMARK    1  A    between atoms: C_1  and  C_2
REMARK    2  A    between atoms: C_2  and  C_3
REMARK    3  A    between atoms: C_3  and  C_4
REMARK    4  A    between atoms: C_4  and  N_5
REMARK    5  A    between atoms: N_5  and  C_6
REMARK    6  A    between atoms: C_7  and  C_9
REMARK    7  A    between atoms: N_13  and  C_14
REMARK    8  A    between atoms: C_14  and  C_15
REMARK    9  A    between atoms: C_15  and  C_17
REMARK   10  A    between atoms: C_22  and  O_23
REMARK   11  A    between atoms: O_23  and  C_24
REMARK   12  A    between atoms: C_25  and  C_26
REMARK                            x       y       z     vdW  Elec       q    Type
REMARK                         _______ _______ _______ _____ _____    ______ ____
ROOT
ATOM      1  C   UNL     1       6.822   5.483  17.671  0.00  0.00    +0.000 A 
ATOM      2  S   UNL     1       7.312   4.892  16.107  0.00  0.00    +0.000 S 
ATOM      3  C   UNL     1       5.824   3.988  15.908  0.00  0.00    +0.000 A 
ATOM      4  O   UNL     1       5.604   3.242  14.969  0.00  0.00    +0.000 OA
ATOM      5  N   UNL     1       4.977   4.311  16.951  0.00  0.00    +0.000 N 
ATOM      6  C   UNL     1       5.524   5.170  17.916  0.00  0.00    +0.000 A 
ATOM      7  C   UNL     1       4.663   5.660  19.038  0.00  0.00    +0.000 C 
ENDROOT
BRANCH   1  10
ATOM      8  N   UNL     1       7.787   7.775  18.245  0.00  0.00    +0.000 N 
ATOM      9  C   UNL     1       7.183   8.533  17.153  0.00  0.00    +0.000 C 
ATOM     10  C   UNL     1       7.696   6.398  18.491  0.00  0.00    +0.000 C 
ATOM     11  O   UNL     1       8.365   5.886  19.394  0.00  0.00    +0.000 OA
BRANCH   8  12
ATOM     12  C   UNL     1       8.804   8.528  19.002  0.00  0.00    +0.000 C 
BRANCH  12  13
ATOM     13  C   UNL     1       8.882  10.000  18.577  0.00  0.00    +0.000 C 
BRANCH  13  15
ATOM     14  C   UNL     1       9.370  11.151  20.773  0.00  0.00    +0.000 C 
ATOM     15  C   UNL     1       9.914  10.776  19.401  0.00  0.00    +0.000 C 
ENDBRANCH  13  15
ENDBRANCH  12  13
ENDBRANCH   8  12
ENDBRANCH   1  10
BRANCH   5  16
ATOM     16  C   UNL     1       3.620   3.766  16.944  0.00  0.00    +0.000 C 
BRANCH  16  17
ATOM     17  C   UNL     1       3.419   2.467  17.758  0.00  0.00    +0.000 C 
ATOM     18  O   UNL     1       3.824   1.396  17.312  0.00  0.00    +0.000 OA
BRANCH  17  19
ATOM     19  C   UNL     1       2.848   2.576  19.163  0.00  0.00    +0.000 A 
ATOM     20  C   UNL     1       1.457   2.864  19.239  0.00  0.00    +0.000 A 
ATOM     21  C   UNL     1       0.781   3.027  20.453  0.00  0.00    +0.000 A 
ATOM     22  C   UNL     1       1.473   2.916  21.642  0.00  0.00    +0.000 A 
ATOM     23  C   UNL     1       2.836   2.638  21.598  0.00  0.00    +0.000 A 
ATOM     24  C   UNL     1       3.546   2.461  20.383  0.00  0.00    +0.000 A 
BRANCH  24  25
ATOM     25  O   UNL     1       4.839   2.175  20.707  0.00  0.00    +0.000 OA
ATOM     26  C   UNL     1       5.247   0.963  21.295  0.00  0.00    +0.000 C 
ENDBRANCH  24  25
ENDBRANCH  17  19
ENDBRANCH  16  17
ENDBRANCH   5  16
TORSDOF 8
ENDMDL
MODEL 5
REMARK VINA RESULT:      -6.0      5.289      7.554
REMARK  Name = 
REMARK  12 active torsions:
REMARK  status: ('A' for Active; 'I' for Inactive)
REMARK    1  A    between atoms: C_1  and  C_2
REMARK    2  A    between atoms: C_2  and  C_3
REMARK    3  A    between atoms: C_3  and  C_4
REMARK    4  A    between atoms: C_4  and  N_5
REMARK    5  A    between atoms: N_5  and  C_6
REMARK    6  A    between atoms: C_7  and  C_9
REMARK    7  A    between atoms: N_13  and  C_14
REMARK    8  A    between atoms: C_14  and  C_15
REMARK    9  A    between atoms: C_15  and  C_17
REMARK   10  A    between atoms: C_22  and  O_23
REMARK   11  A    between atoms: O_23  and  C_24
REMARK   12  A    between atoms: C_25  and  C_26
REMARK                            x       y       z     vdW  Elec       q    Type
REMARK                         _______ _______ _______ _____ _____    ______ ____
ROOT
ATOM      1  C   UNL     1       2.480   6.898  19.611  0.00  0.00    +0.000 A 
ATOM      2  S   UNL     1       1.452   6.721  21.005  0.00  0.00    +0.000 S 
ATOM      3  C   UNL     1       0.831   8.351  20.839  0.00  0.00    +0.000 A 
ATOM      4  O   UNL     1       0.075   8.874  21.640  0.00  0.00    +0.000 OA
ATOM      5  N   UNL     1       1.306   8.877  19.653  0.00  0.00    +0.000 N 
ATOM      6  C   UNL     1       2.201   8.053  18.954  0.00  0.00    +0.000 A 
ATOM      7  C   UNL     1       2.705   8.484  17.611  0.00  0.00    +0.000 C 
ENDROOT
BRANCH   1  10
ATOM      8  N   UNL     1       2.935   4.784  18.254  0.00  0.00    +0.000 N 
ATOM      9  C   UNL     1       1.582   4.567  17.751  0.00  0.00    +0.000 C 
ATOM     10  C   UNL     1       3.377   5.785  19.130  0.00  0.00    +0.000 C 
ATOM     11  O   UNL     1       4.535   5.764  19.558  0.00  0.00    +0.000 OA
BRANCH   8  12
ATOM     12  C   UNL     1       3.854   3.660  17.998  0.00  0.00    +0.000 C 
BRANCH  12  13
ATOM     13  C   UNL     1       4.411   3.672  16.569  0.00  0.00    +0.000 C 
BRANCH  13  15
ATOM     14  C   UNL     1       5.408   5.866  15.810  0.00  0.00    +0.000 C 
ATOM     15  C   UNL     1       5.683   4.517  16.460  0.00  0.00    +0.000 C 
ENDBRANCH  13  15
ENDBRANCH  12  13
ENDBRANCH   8  12
ENDBRANCH   1  10
BRANCH   5  16
ATOM     16  C   UNL     1       0.833  10.195  19.233  0.00  0.00    +0.000 C 
BRANCH  16  17
ATOM     17  C   UNL     1      -0.462  10.202  18.389  0.00  0.00    +0.000 C 
ATOM     18  O   UNL     1      -0.569   9.450  17.423  0.00  0.00    +0.000 OA
BRANCH  17  19
ATOM     19  C   UNL     1      -1.633  11.046  18.870  0.00  0.00    +0.000 A 
ATOM     20  C   UNL     1      -1.409  11.779  20.067  0.00  0.00    +0.000 A 
ATOM     21  C   UNL     1      -2.391  12.581  20.662  0.00  0.00    +0.000 A 
ATOM     22  C   UNL     1      -3.641  12.672  20.084  0.00  0.00    +0.000 A 
ATOM     23  C   UNL     1      -3.890  11.962  18.913  0.00  0.00    +0.000 A 
ATOM     24  C   UNL     1      -2.913  11.148  18.285  0.00  0.00    +0.000 A 
BRANCH  24  25
ATOM     25  O   UNL     1      -3.479  10.631  17.158  0.00  0.00    +0.000 OA
ATOM     26  C   UNL     1      -3.093  10.994  15.854  0.00  0.00    +0.000 C 
ENDBRANCH  24  25
ENDBRANCH  17  19
ENDBRANCH  16  17
ENDBRANCH   5  16
TORSDOF 8
ENDMDL
MODEL 6
REMARK VINA RESULT:      -6.0      3.470      7.540
REMARK  Name = 
REMARK  12 active torsions:
REMARK  status: ('A' for Active; 'I' for Inactive)
REMARK    1  A    between atoms: C_1  and  C_2
REMARK    2  A    between atoms: C_2  and  C_3
REMARK    3  A    between atoms: C_3  and  C_4
REMARK    4  A    between atoms: C_4  and  N_5
REMARK    5  A    between atoms: N_5  and  C_6
REMARK    6  A    between atoms: C_7  and  C_9
REMARK    7  A    between atoms: N_13  and  C_14
REMARK    8  A    between atoms: C_14  and  C_15
REMARK    9  A    between atoms: C_15  and  C_17
REMARK   10  A    between atoms: C_22  and  O_23
REMARK   11  A    between atoms: O_23  and  C_24
REMARK   12  A    between atoms: C_25  and  C_26
REMARK                            x       y       z     vdW  Elec       q    Type
REMARK                         _______ _______ _______ _____ _____    ______ ____
ROOT
ATOM      1  C   UNL     1       2.144   7.069  19.382  0.00  0.00    +0.000 A 
ATOM      2  S   UNL     1       1.417   6.201  20.705  0.00  0.00    +0.000 S 
ATOM      3  C   UNL     1       2.511   4.847  20.507  0.00  0.00    +0.000 A 
ATOM      4  O   UNL     1       2.429   3.810  21.144  0.00  0.00    +0.000 OA
ATOM      5  N   UNL     1       3.463   5.193  19.567  0.00  0.00    +0.000 N 
ATOM      6  C   UNL     1       3.275   6.445  18.964  0.00  0.00    +0.000 A 
ATOM      7  C   UNL     1       4.299   6.960  18.001  0.00  0.00    +0.000 C 
ENDROOT
BRANCH   1  10
ATOM      8  N   UNL     1       1.229   9.402  19.872  0.00  0.00    +0.000 N 
ATOM      9  C   UNL     1       1.070   9.262  21.317  0.00  0.00    +0.000 C 
ATOM     10  C   UNL     1       1.660   8.432  18.956  0.00  0.00    +0.000 C 
ATOM     11  O   UNL     1       1.629   8.671  17.745  0.00  0.00    +0.000 OA
BRANCH   8  12
ATOM     12  C   UNL     1       0.619  10.625  19.321  0.00  0.00    +0.000 C 
BRANCH  12  13
ATOM     13  C   UNL     1       1.050  11.889  20.078  0.00  0.00    +0.000 C 
BRANCH  13  15
ATOM     14  C   UNL     1       2.536  12.522  18.136  0.00  0.00    +0.000 C 
ATOM     15  C   UNL     1       1.483  13.005  19.123  0.00  0.00    +0.000 C 
ENDBRANCH  13  15
ENDBRANCH  12  13
ENDBRANCH   8  12
ENDBRANCH   1  10
BRANCH   5  16
ATOM     16  C   UNL     1       4.561   4.262  19.309  0.00  0.00    +0.000 C 
BRANCH  16  17
ATOM     17  C   UNL     1       4.518   3.542  17.942  0.00  0.00    +0.000 C 
ATOM     18  O   UNL     1       3.670   2.679  17.730  0.00  0.00    +0.000 OA
BRANCH  17  19
ATOM     19  C   UNL     1       5.447   4.028  16.840  0.00  0.00    +0.000 A 
ATOM     20  C   UNL     1       4.885   4.059  15.534  0.00  0.00    +0.000 A 
ATOM     21  C   UNL     1       5.612   4.453  14.404  0.00  0.00    +0.000 A 
ATOM     22  C   UNL     1       6.935   4.821  14.537  0.00  0.00    +0.000 A 
ATOM     23  C   UNL     1       7.512   4.796  15.802  0.00  0.00    +0.000 A 
ATOM     24  C   UNL     1       6.799   4.409  16.965  0.00  0.00    +0.000 A 
BRANCH  24  25
ATOM     25  O   UNL     1       7.652   4.529  18.022  0.00  0.00    +0.000 OA
ATOM     26  C   UNL     1       7.813   5.715  18.765  0.00  0.00    +0.000 C 
ENDBRANCH  24  25
ENDBRANCH  17  19
ENDBRANCH  16  17
ENDBRANCH   5  16
TORSDOF 8
ENDMDL
MODEL 7
REMARK VINA RESULT:      -5.9      5.334      7.774
REMARK  Name = 
REMARK  12 active torsions:
REMARK  status: ('A' for Active; 'I' for Inactive)
REMARK    1  A    between atoms: C_1  and  C_2
REMARK    2  A    between atoms: C_2  and  C_3
REMARK    3  A    between atoms: C_3  and  C_4
REMARK    4  A    between atoms: C_4  and  N_5
REMARK    5  A    between atoms: N_5  and  C_6
REMARK    6  A    between atoms: C_7  and  C_9
REMARK    7  A    between atoms: N_13  and  C_14
REMARK    8  A    between atoms: C_14  and  C_15
REMARK    9  A    between atoms: C_15  and  C_17
REMARK   10  A    between atoms: C_22  and  O_23
REMARK   11  A    between atoms: O_23  and  C_24
REMARK   12  A    between atoms: C_25  and  C_26
REMARK                            x       y       z     vdW  Elec       q    Type
REMARK                         _______ _______ _______ _____ _____    ______ ____
ROOT
ATOM      1  C   UNL     1       2.470   6.914  19.484  0.00  0.00    +0.000 A 
ATOM      2  S   UNL     1       1.486   6.681  20.901  0.00  0.00    +0.000 S 
ATOM      3  C   UNL     1       0.874   8.321  20.830  0.00  0.00    +0.000 A 
ATOM      4  O   UNL     1       0.149   8.812  21.678  0.00  0.00    +0.000 OA
ATOM      5  N   UNL     1       1.315   8.898  19.654  0.00  0.00    +0.000 N 
ATOM      6  C   UNL     1       2.180   8.100  18.890  0.00  0.00    +0.000 A 
ATOM      7  C   UNL     1       2.644   8.590  17.553  0.00  0.00    +0.000 C 
ENDROOT
BRANCH   1  10
ATOM      8  N   UNL     1       2.847   4.823  18.068  0.00  0.00    +0.000 N 
ATOM      9  C   UNL     1       1.463   4.597  17.662  0.00  0.00    +0.000 C 
ATOM     10  C   UNL     1       3.341   5.819  18.923  0.00  0.00    +0.000 C 
ATOM     11  O   UNL     1       4.528   5.806  19.265  0.00  0.00    +0.000 OA
BRANCH   8  12
ATOM     12  C   UNL     1       3.757   3.714  17.730  0.00  0.00    +0.000 C 
BRANCH  12  13
ATOM     13  C   UNL     1       3.045   2.355  17.713  0.00  0.00    +0.000 C 
BRANCH  13  15
ATOM     14  C   UNL     1       4.311   2.195  19.894  0.00  0.00    +0.000 C 
ATOM     15  C   UNL     1       3.569   1.424  18.811  0.00  0.00    +0.000 C 
ENDBRANCH  13  15
ENDBRANCH  12  13
ENDBRANCH   8  12
ENDBRANCH   1  10
BRANCH   5  16
ATOM     16  C   UNL     1       0.840  10.237  19.311  0.00  0.00    +0.000 C 
BRANCH  16  17
ATOM     17  C   UNL     1      -0.470  10.292  18.492  0.00  0.00    +0.000 C 
ATOM     18  O   UNL     1      -0.610   9.566  17.511  0.00  0.00    +0.000 OA
BRANCH  17  19
ATOM     19  C   UNL     1      -1.613  11.148  19.014  0.00  0.00    +0.000 A 
ATOM     20  C   UNL     1      -1.317  11.930  20.164  0.00  0.00    +0.000 A 
ATOM     21  C   UNL     1      -2.264  12.750  20.789  0.00  0.00    +0.000 A 
ATOM     22  C   UNL     1      -3.551  12.811  20.291  0.00  0.00    +0.000 A 
ATOM     23  C   UNL     1      -3.869  12.053  19.169  0.00  0.00    +0.000 A 
ATOM     24  C   UNL     1      -2.929  11.219  18.511  0.00  0.00    +0.000 A 
BRANCH  24  25
ATOM     25  O   UNL     1      -3.564  10.655  17.445  0.00  0.00    +0.000 OA
ATOM     26  C   UNL     1      -3.446  11.129  16.125  0.00  0.00    +0.000 C 
ENDBRANCH  24  25
ENDBRANCH  17  19
ENDBRANCH  16  17
ENDBRANCH   5  16
TORSDOF 8
ENDMDL
MODEL 8
REMARK VINA RESULT:      -5.9      4.922      8.674
REMARK  Name = 
REMARK  12 active torsions:
REMARK  status: ('A' for Active; 'I' for Inactive)
REMARK    1  A    between atoms: C_1  and  C_2
REMARK    2  A    between atoms: C_2  and  C_3
REMARK    3  A    between atoms: C_3  and  C_4
REMARK    4  A    between atoms: C_4  and  N_5
REMARK    5  A    between atoms: N_5  and  C_6
REMARK    6  A    between atoms: C_7  and  C_9
REMARK    7  A    between atoms: N_13  and  C_14
REMARK    8  A    between atoms: C_14  and  C_15
REMARK    9  A    between atoms: C_15  and  C_17
REMARK   10  A    between atoms: C_22  and  O_23
REMARK   11  A    between atoms: O_23  and  C_24
REMARK   12  A    between atoms: C_25  and  C_26
REMARK                            x       y       z     vdW  Elec       q    Type
REMARK                         _______ _______ _______ _____ _____    ______ ____
ROOT
ATOM      1  C   UNL     1       1.044   9.766  19.452  0.00  0.00    +0.000 A 
ATOM      2  S   UNL     1       1.613   9.326  17.866  0.00  0.00    +0.000 S 
ATOM      3  C   UNL     1       2.410   7.890  18.476  0.00  0.00    +0.000 A 
ATOM      4  O   UNL     1       3.107   7.159  17.793  0.00  0.00    +0.000 OA
ATOM      5  N   UNL     1       2.067   7.734  19.805  0.00  0.00    +0.000 N 
ATOM      6  C   UNL     1       1.279   8.765  20.339  0.00  0.00    +0.000 A 
ATOM      7  C   UNL     1       0.771   8.651  21.744  0.00  0.00    +0.000 C 
ENDROOT
BRANCH   1  10
ATOM      8  N   UNL     1      -1.095  11.138  19.215  0.00  0.00    +0.000 N 
ATOM      9  C   UNL     1      -1.836  10.220  18.356  0.00  0.00    +0.000 C 
ATOM     10  C   UNL     1       0.216  11.003  19.693  0.00  0.00    +0.000 C 
ATOM     11  O   UNL     1       0.745  11.928  20.316  0.00  0.00    +0.000 OA
BRANCH   8  12
ATOM     12  C   UNL     1      -1.733  12.459  19.366  0.00  0.00    +0.000 C 
BRANCH  12  13
ATOM     13  C   UNL     1      -2.781  12.480  20.487  0.00  0.00    +0.000 C 
BRANCH  13  15
ATOM     14  C   UNL     1      -2.154  11.930  22.872  0.00  0.00    +0.000 C 
ATOM     15  C   UNL     1      -2.199  13.011  21.801  0.00  0.00    +0.000 C 
ENDBRANCH  13  15
ENDBRANCH  12  13
ENDBRANCH   8  12
ENDBRANCH   1  10
BRANCH   5  16
ATOM     16  C   UNL     1       2.521   6.536  20.510  0.00  0.00    +0.000 C 
BRANCH  16  17
ATOM     17  C   UNL     1       1.739   5.240  20.198  0.00  0.00    +0.000 C 
ATOM     18  O   UNL     1       0.555   5.148  20.514  0.00  0.00    +0.000 OA
BRANCH  17  19
ATOM     19  C   UNL     1       2.425   4.163  19.373  0.00  0.00    +0.000 A 
ATOM     20  C   UNL     1       1.559   3.226  18.745  0.00  0.00    +0.000 A 
ATOM     21  C   UNL     1       2.029   2.156  17.974  0.00  0.00    +0.000 A 
ATOM     22  C   UNL     1       3.387   1.975  17.811  0.00  0.00    +0.000 A 
ATOM     23  C   UNL     1       4.258   2.874  18.418  0.00  0.00    +0.000 A 
ATOM     24  C   UNL     1       3.812   3.971  19.197  0.00  0.00    +0.000 A 
BRANCH  24  25
ATOM     25  O   UNL     1       4.918   4.654  19.608  0.00  0.00    +0.000 OA
ATOM     26  C   UNL     1       5.849   5.235  18.727  0.00  0.00    +0.000 C 
ENDBRANCH  24  25
ENDBRANCH  17  19
ENDBRANCH  16  17
ENDBRANCH   5  16
TORSDOF 8
ENDMDL
MODEL 9
REMARK VINA RESULT:      -5.9      5.260      7.384
REMARK  Name = 
REMARK  12 active torsions:
REMARK  status: ('A' for Active; 'I' for Inactive)
REMARK    1  A    between atoms: C_1  and  C_2
REMARK    2  A    between atoms: C_2  and  C_3
REMARK    3  A    between atoms: C_3  and  C_4
REMARK    4  A    between atoms: C_4  and  N_5
REMARK    5  A    between atoms: N_5  and  C_6
REMARK    6  A    between atoms: C_7  and  C_9
REMARK    7  A    between atoms: N_13  and  C_14
REMARK    8  A    between atoms: C_14  and  C_15
REMARK    9  A    between atoms: C_15  and  C_17
REMARK   10  A    between atoms: C_22  and  O_23
REMARK   11  A    between atoms: O_23  and  C_24
REMARK   12  A    between atoms: C_25  and  C_26
REMARK                            x       y       z     vdW  Elec       q    Type
REMARK                         _______ _______ _______ _____ _____    ______ ____
ROOT
ATOM      1  C   UNL     1       2.659   7.221  18.652  0.00  0.00    +0.000 A 
ATOM      2  S   UNL     1       2.418   8.747  17.849  0.00  0.00    +0.000 S 
ATOM      3  C   UNL     1       1.183   9.232  18.993  0.00  0.00    +0.000 A 
ATOM      4  O   UNL     1       0.529  10.256  18.892  0.00  0.00    +0.000 OA
ATOM      5  N   UNL     1       1.137   8.293  20.006  0.00  0.00    +0.000 N 
ATOM      6  C   UNL     1       1.984   7.188  19.830  0.00  0.00    +0.000 A 
ATOM      7  C   UNL     1       2.083   6.157  20.911  0.00  0.00    +0.000 C 
ENDROOT
BRANCH   1  10
ATOM      8  N   UNL     1       3.293   4.938  17.703  0.00  0.00    +0.000 N 
ATOM      9  C   UNL     1       1.962   4.338  17.702  0.00  0.00    +0.000 C 
ATOM     10  C   UNL     1       3.664   6.209  18.165  0.00  0.00    +0.000 C 
ATOM     11  O   UNL     1       4.856   6.526  18.206  0.00  0.00    +0.000 OA
BRANCH   8  12
ATOM     12  C   UNL     1       4.378   3.982  17.420  0.00  0.00    +0.000 C 
BRANCH  12  13
ATOM     13  C   UNL     1       4.746   3.935  15.930  0.00  0.00    +0.000 C 
BRANCH  13  15
ATOM     14  C   UNL     1       6.557   4.317  14.211  0.00  0.00    +0.000 C 
ATOM     15  C   UNL     1       6.193   4.372  15.688  0.00  0.00    +0.000 C 
ENDBRANCH  13  15
ENDBRANCH  12  13
ENDBRANCH   8  12
ENDBRANCH   1  10
BRANCH   5  16
ATOM     16  C   UNL     1       0.255   8.537  21.146  0.00  0.00    +0.000 C 
BRANCH  16  17
ATOM     17  C   UNL     1       0.749   9.596  22.158  0.00  0.00    +0.000 C 
ATOM     18  O   UNL     1       1.841   9.460  22.704  0.00  0.00    +0.000 OA
BRANCH  17  19
ATOM     19  C   UNL     1      -0.077  10.859  22.343  0.00  0.00    +0.000 A 
ATOM     20  C   UNL     1      -1.281  10.702  23.083  0.00  0.00    +0.000 A 
ATOM     21  C   UNL     1      -2.171  11.756  23.319  0.00  0.00    +0.000 A 
ATOM     22  C   UNL     1      -1.894  13.010  22.813  0.00  0.00    +0.000 A 
ATOM     23  C   UNL     1      -0.726  13.193  22.081  0.00  0.00    +0.000 A 
ATOM     24  C   UNL     1       0.198  12.145  21.832  0.00  0.00    +0.000 A 
BRANCH  24  25
ATOM     25  O   UNL     1       1.231  12.676  21.120  0.00  0.00    +0.000 OA
ATOM     26  C   UNL     1       1.337  14.043  20.798  0.00  0.00    +0.000 C 
ENDBRANCH  24  25
ENDBRANCH  17  19
ENDBRANCH  16  17
ENDBRANCH   5  16
TORSDOF 8
ENDMDL
