MODEL 1
REMARK VINA RESULT:      -7.9      0.000      0.000
REMARK  Name = 
REMARK  6 active torsions:
REMARK  status: ('A' for Active; 'I' for Inactive)
REMARK    1  A    between atoms: C_1  and  C_2
REMARK    2  A    between atoms: C_6  and  C_7
REMARK    3  A    between atoms: C_15  and  N_16
REMARK    4  A    between atoms: N_16  and  C_17
REMARK    5  A    between atoms: N_16  and  C_18
REMARK    6  A    between atoms: C_18  and  C_19
REMARK                            x       y       z     vdW  Elec       q    Type
REMARK                         _______ _______ _______ _____ _____    ______ ____
ROOT
ATOM      1  C   UNL     1       6.684   4.206  12.926  0.00  0.00    +0.000 C 
ATOM      2  O   UNL     1       7.611   4.784  12.360  0.00  0.00    +0.000 OA
ATOM      3  N   UNL     1       6.475   4.318  14.293  0.00  0.00    +0.000 N 
ATOM      4  C   UNL     1       7.259   5.260  15.076  0.00  0.00    +0.000 C 
ATOM      5  C   UNL     1       7.187   4.730  16.510  0.00  0.00    +0.000 C 
ATOM      6  C   UNL     1       7.355   5.773  17.600  0.00  0.00    +0.000 C 
ATOM      7  C   UNL     1       6.191   6.745  17.656  0.00  0.00    +0.000 C 
ATOM      8  C   UNL     1       4.872   6.013  17.861  0.00  0.00    +0.000 C 
ATOM      9  C   UNL     1       4.592   4.886  16.835  0.00  0.00    +0.000 C 
ATOM     10  C   UNL     1       5.842   3.984  16.564  0.00  0.00    +0.000 C 
ATOM     11  C   UNL     1       5.814   3.342  15.168  0.00  0.00    +0.000 C 
ENDROOT
BRANCH   1  17
ATOM     12  C   UNL     1       7.179   1.395  11.259  0.00  0.00    +0.000 C 
ATOM     13  C   UNL     1       5.991   2.250  11.469  0.00  0.00    +0.000 A 
ATOM     14  O   UNL     1       4.858   1.843  10.839  0.00  0.00    +0.000 OA
ATOM     15  N   UNL     1       3.842   2.753  11.078  0.00  0.00    +0.000 NA
ATOM     16  C   UNL     1       4.394   3.694  11.843  0.00  0.00    +0.000 A 
ATOM     17  C   UNL     1       5.740   3.413  12.165  0.00  0.00    +0.000 A 
ENDBRANCH   1  17
BRANCH   9  18
ATOM     18  N   UNL     1       3.370   4.076  17.166  0.00  0.00    +0.000 NA
ATOM     19  C   UNL     1       3.691   2.775  17.776  0.00  0.00    +0.000 C 
BRANCH  18  20
ATOM     20  C   UNL     1       2.443   4.846  18.042  0.00  0.00    +0.000 C 
BRANCH  20  21
ATOM     21  C   UNL     1       2.163   4.214  19.385  0.00  0.00    +0.000 A 
ATOM     22  C   UNL     1       2.779   4.431  20.603  0.00  0.00    +0.000 A 
ATOM     23  C   UNL     1       2.205   3.652  21.651  0.00  0.00    +0.000 A 
ATOM     24  C   UNL     1       1.179   2.853  21.201  0.00  0.00    +0.000 A 
ATOM     25  S   UNL     1       0.918   3.033  19.523  0.00  0.00    +0.000 S 
ENDBRANCH  20  21
ENDBRANCH  18  20
ENDBRANCH   9  18
TORSDOF 4
ENDMDL
MODEL 2
REMARK VINA RESULT:      -7.2      4.002      6.360
REMARK  Name = 
REMARK  6 active torsions:
REMARK  status: ('A' for Active; 'I' for Inactive)
REMARK    1  A    between atoms: C_1  and  C_2
REMARK    2  A    between atoms: C_6  and  C_7
REMARK    3  A    between atoms: C_15  and  N_16
REMARK    4  A    between atoms: N_16  and  C_17
REMARK    5  A    between atoms: N_16  and  C_18
REMARK    6  A    between atoms: C_18  and  C_19
REMARK                            x       y       z     vdW  Elec       q    Type
REMARK                         _______ _______ _______ _____ _____    ______ ____
ROOT
ATOM      1  C   UNL     1       5.794   4.787  17.391  0.00  0.00    +0.000 C 
ATOM      2  O   UNL     1       6.253   3.721  16.984  0.00  0.00    +0.000 OA
ATOM      3  N   UNL     1       4.465   4.917  17.767  0.00  0.00    +0.000 N 
ATOM      4  C   UNL     1       3.609   3.742  17.841  0.00  0.00    +0.000 C 
ATOM      5  C   UNL     1       2.186   4.288  17.713  0.00  0.00    +0.000 C 
ATOM      6  C   UNL     1       1.102   3.441  18.356  0.00  0.00    +0.000 C 
ATOM      7  C   UNL     1       1.205   3.422  19.870  0.00  0.00    +0.000 C 
ATOM      8  C   UNL     1       1.148   4.831  20.444  0.00  0.00    +0.000 C 
ATOM      9  C   UNL     1       2.180   5.817  19.840  0.00  0.00    +0.000 C 
ATOM     10  C   UNL     1       2.281   5.715  18.282  0.00  0.00    +0.000 C 
ATOM     11  C   UNL     1       3.658   6.143  17.751  0.00  0.00    +0.000 C 
ENDROOT
BRANCH   1  17
ATOM     12  C   UNL     1       7.940   5.516  19.798  0.00  0.00    +0.000 C 
ATOM     13  C   UNL     1       7.522   6.222  18.567  0.00  0.00    +0.000 A 
ATOM     14  O   UNL     1       8.097   7.437  18.365  0.00  0.00    +0.000 OA
ATOM     15  N   UNL     1       7.585   8.006  17.212  0.00  0.00    +0.000 NA
ATOM     16  C   UNL     1       6.704   7.119  16.750  0.00  0.00    +0.000 A 
ATOM     17  C   UNL     1       6.649   5.948  17.536  0.00  0.00    +0.000 A 
ENDBRANCH   1  17
BRANCH   9  18
ATOM     18  N   UNL     1       1.984   7.234  20.303  0.00  0.00    +0.000 NA
ATOM     19  C   UNL     1       2.065   8.213  19.206  0.00  0.00    +0.000 C 
BRANCH  18  20
ATOM     20  C   UNL     1       0.696   7.380  21.036  0.00  0.00    +0.000 C 
BRANCH  20  21
ATOM     21  C   UNL     1       0.250   8.805  21.264  0.00  0.00    +0.000 A 
ATOM     22  C   UNL     1      -0.300   9.705  20.370  0.00  0.00    +0.000 A 
ATOM     23  C   UNL     1      -0.615  10.956  20.981  0.00  0.00    +0.000 A 
ATOM     24  C   UNL     1      -0.282  10.979  22.317  0.00  0.00    +0.000 A 
ATOM     25  S   UNL     1       0.415   9.507  22.827  0.00  0.00    +0.000 S 
ENDBRANCH  20  21
ENDBRANCH  18  20
ENDBRANCH   9  18
TORSDOF 4
ENDMDL
MODEL 3
REMARK VINA RESULT:      -7.0      3.497      5.682
REMARK  Name = 
REMARK  6 active torsions:
REMARK  status: ('A' for Active; 'I' for Inactive)
REMARK    1  A    between atoms: C_1  and  C_2
REMARK    2  A    between atoms: C_6  and  C_7
REMARK    3  A    between atoms: C_15  and  N_16
REMARK    4  A    between atoms: N_16  and  C_17
REMARK    5  A    between atoms: N_16  and  C_18
REMARK    6  A    between atoms: C_18  and  C_19
REMARK                            x       y       z     vdW  Elec       q    Type
REMARK                         _______ _______ _______ _____ _____    ______ ____
ROOT
ATOM      1  C   UNL     1       5.139   3.681  16.786  0.00  0.00    +0.000 C 
ATOM      2  O   UNL     1       5.413   2.534  16.440  0.00  0.00    +0.000 OA
ATOM      3  N   UNL     1       3.942   3.990  17.418  0.00  0.00    +0.000 N 
ATOM      4  C   UNL     1       3.042   2.926  17.836  0.00  0.00    +0.000 C 
ATOM      5  C   UNL     1       1.671   3.596  17.945  0.00  0.00    +0.000 C 
ATOM      6  C   UNL     1       0.703   2.947  18.917  0.00  0.00    +0.000 C 
ATOM      7  C   UNL     1       1.145   3.096  20.361  0.00  0.00    +0.000 C 
ATOM      8  C   UNL     1       1.324   4.560  20.734  0.00  0.00    +0.000 C 
ATOM      9  C   UNL     1       2.262   5.357  19.792  0.00  0.00    +0.000 C 
ATOM     10  C   UNL     1       1.998   5.063  18.278  0.00  0.00    +0.000 C 
ATOM     11  C   UNL     1       3.246   5.282  17.409  0.00  0.00    +0.000 C 
ENDROOT
BRANCH   1  17
ATOM     12  C   UNL     1       6.758   4.549  14.039  0.00  0.00    +0.000 C 
ATOM     13  C   UNL     1       6.755   5.078  15.419  0.00  0.00    +0.000 A 
ATOM     14  O   UNL     1       7.600   6.116  15.652  0.00  0.00    +0.000 OA
ATOM     15  N   UNL     1       7.534   6.479  16.986  0.00  0.00    +0.000 NA
ATOM     16  C   UNL     1       6.651   5.640  17.529  0.00  0.00    +0.000 A 
ATOM     17  C   UNL     1       6.087   4.757  16.583  0.00  0.00    +0.000 A 
ENDBRANCH   1  17
BRANCH   9  18
ATOM     18  N   UNL     1       2.282   6.831  20.087  0.00  0.00    +0.000 NA
ATOM     19  C   UNL     1       2.338   7.660  18.871  0.00  0.00    +0.000 C 
BRANCH  18  20
ATOM     20  C   UNL     1       1.114   7.221  20.927  0.00  0.00    +0.000 C 
BRANCH  20  21
ATOM     21  C   UNL     1       0.770   8.692  20.898  0.00  0.00    +0.000 A 
ATOM     22  C   UNL     1       0.138   9.425  19.912  0.00  0.00    +0.000 A 
ATOM     23  C   UNL     1      -0.028  10.796  20.274  0.00  0.00    +0.000 A 
ATOM     24  C   UNL     1       0.496  11.070  21.517  0.00  0.00    +0.000 A 
ATOM     25  S   UNL     1       1.193   9.688  22.236  0.00  0.00    +0.000 S 
ENDBRANCH  20  21
ENDBRANCH  18  20
ENDBRANCH   9  18
TORSDOF 4
ENDMDL
MODEL 4
REMARK VINA RESULT:      -6.9      4.085      6.429
REMARK  Name = 
REMARK  6 active torsions:
REMARK  status: ('A' for Active; 'I' for Inactive)
REMARK    1  A    between atoms: C_1  and  C_2
REMARK    2  A    between atoms: C_6  and  C_7
REMARK    3  A    between atoms: C_15  and  N_16
REMARK    4  A    between atoms: N_16  and  C_17
REMARK    5  A    between atoms: N_16  and  C_18
REMARK    6  A    between atoms: C_18  and  C_19
REMARK                            x       y       z     vdW  Elec       q    Type
REMARK                         _______ _______ _______ _____ _____    ______ ____
ROOT
ATOM      1  C   UNL     1       3.746   2.359  19.127  0.00  0.00    +0.000 C 
ATOM      2  O   UNL     1       4.074   1.258  18.687  0.00  0.00    +0.000 OA
ATOM      3  N   UNL     1       4.302   3.536  18.648  0.00  0.00    +0.000 N 
ATOM      4  C   UNL     1       5.182   3.509  17.489  0.00  0.00    +0.000 C 
ATOM      5  C   UNL     1       6.014   4.788  17.601  0.00  0.00    +0.000 C 
ATOM      6  C   UNL     1       6.540   5.340  16.289  0.00  0.00    +0.000 C 
ATOM      7  C   UNL     1       5.431   5.866  15.396  0.00  0.00    +0.000 C 
ATOM      8  C   UNL     1       4.618   6.941  16.102  0.00  0.00    +0.000 C 
ATOM      9  C   UNL     1       4.052   6.520  17.483  0.00  0.00    +0.000 C 
ATOM     10  C   UNL     1       5.099   5.762  18.365  0.00  0.00    +0.000 C 
ATOM     11  C   UNL     1       4.440   4.806  19.371  0.00  0.00    +0.000 C 
ENDROOT
BRANCH   1  17
ATOM     12  C   UNL     1       0.485   2.770  18.772  0.00  0.00    +0.000 C 
ATOM     13  C   UNL     1       1.366   2.653  19.954  0.00  0.00    +0.000 A 
ATOM     14  O   UNL     1       0.749   2.761  21.159  0.00  0.00    +0.000 OA
ATOM     15  N   UNL     1       1.689   2.684  22.171  0.00  0.00    +0.000 NA
ATOM     16  C   UNL     1       2.858   2.539  21.547  0.00  0.00    +0.000 A 
ATOM     17  C   UNL     1       2.719   2.467  20.144  0.00  0.00    +0.000 A 
ENDBRANCH   1  17
BRANCH   9  18
ATOM     18  N   UNL     1       3.402   7.655  18.225  0.00  0.00    +0.000 NA
ATOM     19  C   UNL     1       3.178   8.840  17.380  0.00  0.00    +0.000 C 
BRANCH  18  20
ATOM     20  C   UNL     1       2.124   7.215  18.851  0.00  0.00    +0.000 C 
BRANCH  20  21
ATOM     21  C   UNL     1       1.612   8.113  19.953  0.00  0.00    +0.000 A 
ATOM     22  C   UNL     1       1.647   7.929  21.323  0.00  0.00    +0.000 A 
ATOM     23  C   UNL     1       1.080   9.027  22.035  0.00  0.00    +0.000 A 
ATOM     24  C   UNL     1       0.615  10.009  21.190  0.00  0.00    +0.000 A 
ATOM     25  S   UNL     1       0.851   9.603  19.548  0.00  0.00    +0.000 S 
ENDBRANCH  20  21
ENDBRANCH  18  20
ENDBRANCH   9  18
TORSDOF 4
ENDMDL
MODEL 5
REMARK VINA RESULT:      -6.9      4.297      6.492
REMARK  Name = 
REMARK  6 active torsions:
REMARK  status: ('A' for Active; 'I' for Inactive)
REMARK    1  A    between atoms: C_1  and  C_2
REMARK    2  A    between atoms: C_6  and  C_7
REMARK    3  A    between atoms: C_15  and  N_16
REMARK    4  A    between atoms: N_16  and  C_17
REMARK    5  A    between atoms: N_16  and  C_18
REMARK    6  A    between atoms: C_18  and  C_19
REMARK                            x       y       z     vdW  Elec       q    Type
REMARK                         _______ _______ _______ _____ _____    ______ ____
ROOT
ATOM      1  C   UNL     1       5.859   4.743  18.154  0.00  0.00    +0.000 C 
ATOM      2  O   UNL     1       6.339   3.658  18.479  0.00  0.00    +0.000 OA
ATOM      3  N   UNL     1       4.537   5.070  18.424  0.00  0.00    +0.000 N 
ATOM      4  C   UNL     1       3.722   4.191  19.249  0.00  0.00    +0.000 C 
ATOM      5  C   UNL     1       2.279   4.530  18.870  0.00  0.00    +0.000 C 
ATOM      6  C   UNL     1       1.242   4.261  19.946  0.00  0.00    +0.000 C 
ATOM      7  C   UNL     1       1.390   5.191  21.137  0.00  0.00    +0.000 C 
ATOM      8  C   UNL     1       1.306   6.649  20.712  0.00  0.00    +0.000 C 
ATOM      9  C   UNL     1       2.288   7.051  19.582  0.00  0.00    +0.000 C 
ATOM     10  C   UNL     1       2.346   6.001  18.423  0.00  0.00    +0.000 C 
ATOM     11  C   UNL     1       3.692   6.014  17.683  0.00  0.00    +0.000 C 
ENDROOT
BRANCH   1  17
ATOM     12  C   UNL     1       6.969   4.852  15.043  0.00  0.00    +0.000 C 
ATOM     13  C   UNL     1       7.136   5.747  16.208  0.00  0.00    +0.000 A 
ATOM     14  O   UNL     1       7.925   6.834  16.003  0.00  0.00    +0.000 OA
ATOM     15  N   UNL     1       8.036   7.555  17.179  0.00  0.00    +0.000 NA
ATOM     16  C   UNL     1       7.313   6.877  18.070  0.00  0.00    +0.000 A 
ATOM     17  C   UNL     1       6.680   5.747  17.509  0.00  0.00    +0.000 A 
ENDBRANCH   1  17
BRANCH   9  18
ATOM     18  N   UNL     1       2.061   8.447  19.071  0.00  0.00    +0.000 NA
ATOM     19  C   UNL     1       1.534   8.476  17.697  0.00  0.00    +0.000 C 
BRANCH  18  20
ATOM     20  C   UNL     1       1.168   9.209  19.987  0.00  0.00    +0.000 C 
BRANCH  20  21
ATOM     21  C   UNL     1       0.452  10.379  19.352  0.00  0.00    +0.000 A 
ATOM     22  C   UNL     1      -0.831  10.451  18.843  0.00  0.00    +0.000 A 
ATOM     23  C   UNL     1      -1.148  11.752  18.349  0.00  0.00    +0.000 A 
ATOM     24  C   UNL     1      -0.094  12.628  18.480  0.00  0.00    +0.000 A 
ATOM     25  S   UNL     1       1.271  11.883  19.184  0.00  0.00    +0.000 S 
ENDBRANCH  20  21
ENDBRANCH  18  20
ENDBRANCH   9  18
TORSDOF 4
ENDMDL
MODEL 6
REMARK VINA RESULT:      -6.9      0.851      1.343
REMARK  Name = 
REMARK  6 active torsions:
REMARK  status: ('A' for Active; 'I' for Inactive)
REMARK    1  A    between atoms: C_1  and  C_2
REMARK    2  A    between atoms: C_6  and  C_7
REMARK    3  A    between atoms: C_15  and  N_16
REMARK    4  A    between atoms: N_16  and  C_17
REMARK    5  A    between atoms: N_16  and  C_18
REMARK    6  A    between atoms: C_18  and  C_19
REMARK                            x       y       z     vdW  Elec       q    Type
REMARK                         _______ _______ _______ _____ _____    ______ ____
ROOT
ATOM      1  C   UNL     1       7.017   4.328  12.789  0.00  0.00    +0.000 C 
ATOM      2  O   UNL     1       7.766   5.111  12.206  0.00  0.00    +0.000 OA
ATOM      3  N   UNL     1       6.662   4.506  14.119  0.00  0.00    +0.000 N 
ATOM      4  C   UNL     1       7.043   5.723  14.820  0.00  0.00    +0.000 C 
ATOM      5  C   UNL     1       7.010   5.345  16.302  0.00  0.00    +0.000 C 
ATOM      6  C   UNL     1       6.749   6.492  17.261  0.00  0.00    +0.000 C 
ATOM      7  C   UNL     1       5.341   7.043  17.135  0.00  0.00    +0.000 C 
ATOM      8  C   UNL     1       4.301   5.955  17.359  0.00  0.00    +0.000 C 
ATOM      9  C   UNL     1       4.477   4.699  16.467  0.00  0.00    +0.000 C 
ATOM     10  C   UNL     1       5.964   4.219  16.377  0.00  0.00    +0.000 C 
ATOM     11  C   UNL     1       6.261   3.464  15.073  0.00  0.00    +0.000 C 
ENDROOT
BRANCH   1  17
ATOM     12  C   UNL     1       3.887   3.839  11.847  0.00  0.00    +0.000 C 
ATOM     13  C   UNL     1       5.119   3.031  11.721  0.00  0.00    +0.000 A 
ATOM     14  O   UNL     1       4.966   1.818  11.127  0.00  0.00    +0.000 OA
ATOM     15  N   UNL     1       6.177   1.150  11.118  0.00  0.00    +0.000 NA
ATOM     16  C   UNL     1       7.033   1.977  11.718  0.00  0.00    +0.000 A 
ATOM     17  C   UNL     1       6.438   3.203  12.084  0.00  0.00    +0.000 A 
ENDBRANCH   1  17
BRANCH   9  18
ATOM     18  N   UNL     1       3.541   3.580  16.831  0.00  0.00    +0.000 NA
ATOM     19  C   UNL     1       4.131   2.627  17.786  0.00  0.00    +0.000 C 
BRANCH  18  20
ATOM     20  C   UNL     1       2.255   4.114  17.358  0.00  0.00    +0.000 C 
BRANCH  20  21
ATOM     21  C   UNL     1       2.002   3.839  18.823  0.00  0.00    +0.000 A 
ATOM     22  C   UNL     1       2.431   4.541  19.934  0.00  0.00    +0.000 A 
ATOM     23  C   UNL     1       1.957   3.972  21.153  0.00  0.00    +0.000 A 
ATOM     24  C   UNL     1       1.195   2.846  20.939  0.00  0.00    +0.000 A 
ATOM     25  S   UNL     1       1.062   2.472  19.278  0.00  0.00    +0.000 S 
ENDBRANCH  20  21
ENDBRANCH  18  20
ENDBRANCH   9  18
TORSDOF 4
ENDMDL
MODEL 7
REMARK VINA RESULT:      -6.8     11.007     13.364
REMARK  Name = 
REMARK  6 active torsions:
REMARK  status: ('A' for Active; 'I' for Inactive)
REMARK    1  A    between atoms: C_1  and  C_2
REMARK    2  A    between atoms: C_6  and  C_7
REMARK    3  A    between atoms: C_15  and  N_16
REMARK    4  A    between atoms: N_16  and  C_17
REMARK    5  A    between atoms: N_16  and  C_18
REMARK    6  A    between atoms: C_18  and  C_19
REMARK                            x       y       z     vdW  Elec       q    Type
REMARK                         _______ _______ _______ _____ _____    ______ ____
ROOT
ATOM      1  C   UNL     1       8.341  12.335  22.982  0.00  0.00    +0.000 C 
ATOM      2  O   UNL     1       8.096  11.190  23.361  0.00  0.00    +0.000 OA
ATOM      3  N   UNL     1       9.161  12.586  21.891  0.00  0.00    +0.000 N 
ATOM      4  C   UNL     1       9.628  11.487  21.060  0.00  0.00    +0.000 C 
ATOM      5  C   UNL     1      10.884  12.024  20.372  0.00  0.00    +0.000 C 
ATOM      6  C   UNL     1      11.221  11.385  19.037  0.00  0.00    +0.000 C 
ATOM      7  C   UNL     1      10.207  11.727  17.961  0.00  0.00    +0.000 C 
ATOM      8  C   UNL     1      10.082  13.232  17.779  0.00  0.00    +0.000 C 
ATOM      9  C   UNL     1       9.780  14.018  19.081  0.00  0.00    +0.000 C 
ATOM     10  C   UNL     1      10.646  13.542  20.295  0.00  0.00    +0.000 C 
ATOM     11  C   UNL     1       9.958  13.794  21.645  0.00  0.00    +0.000 C 
ENDROOT
BRANCH   1  17
ATOM     12  C   UNL     1       5.898  14.305  21.947  0.00  0.00    +0.000 C 
ATOM     13  C   UNL     1       6.727  14.281  23.171  0.00  0.00    +0.000 A 
ATOM     14  O   UNL     1       6.483  15.275  24.064  0.00  0.00    +0.000 OA
ATOM     15  N   UNL     1       7.355  15.163  25.133  0.00  0.00    +0.000 NA
ATOM     16  C   UNL     1       8.114  14.104  24.851  0.00  0.00    +0.000 A 
ATOM     17  C   UNL     1       7.739  13.473  23.645  0.00  0.00    +0.000 A 
ENDBRANCH   1  17
BRANCH   9  18
ATOM     18  N   UNL     1       9.832  15.509  18.898  0.00  0.00    +0.000 NA
ATOM     19  C   UNL     1      11.199  16.015  18.692  0.00  0.00    +0.000 C 
BRANCH  18  20
ATOM     20  C   UNL     1       8.946  15.937  17.780  0.00  0.00    +0.000 C 
BRANCH  20  21
ATOM     21  C   UNL     1       7.466  15.773  18.040  0.00  0.00    +0.000 A 
ATOM     22  C   UNL     1       6.621  14.740  17.679  0.00  0.00    +0.000 A 
ATOM     23  C   UNL     1       5.285  14.945  18.137  0.00  0.00    +0.000 A 
ATOM     24  C   UNL     1       5.146  16.132  18.819  0.00  0.00    +0.000 A 
ATOM     25  S   UNL     1       6.615  16.999  18.897  0.00  0.00    +0.000 S 
ENDBRANCH  20  21
ENDBRANCH  18  20
ENDBRANCH   9  18
TORSDOF 4
ENDMDL
MODEL 8
REMARK VINA RESULT:      -6.7      4.457      6.735
REMARK  Name = 
REMARK  6 active torsions:
REMARK  status: ('A' for Active; 'I' for Inactive)
REMARK    1  A    between atoms: C_1  and  C_2
REMARK    2  A    between atoms: C_6  and  C_7
REMARK    3  A    between atoms: C_15  and  N_16
REMARK    4  A    between atoms: N_16  and  C_17
REMARK    5  A    between atoms: N_16  and  C_18
REMARK    6  A    between atoms: C_18  and  C_19
REMARK                            x       y       z     vdW  Elec       q    Type
REMARK                         _______ _______ _______ _____ _____    ______ ____
ROOT
ATOM      1  C   UNL     1       5.955   4.802  18.067  0.00  0.00    +0.000 C 
ATOM      2  O   UNL     1       6.405   3.659  18.008  0.00  0.00    +0.000 OA
ATOM      3  N   UNL     1       4.606   5.049  18.281  0.00  0.00    +0.000 N 
ATOM      4  C   UNL     1       3.705   3.953  18.604  0.00  0.00    +0.000 C 
ATOM      5  C   UNL     1       2.317   4.463  18.214  0.00  0.00    +0.000 C 
ATOM      6  C   UNL     1       1.158   3.843  18.973  0.00  0.00    +0.000 C 
ATOM      7  C   UNL     1       1.145   4.242  20.437  0.00  0.00    +0.000 C 
ATOM      8  C   UNL     1       1.096   5.754  20.595  0.00  0.00    +0.000 C 
ATOM      9  C   UNL     1       2.206   6.521  19.831  0.00  0.00    +0.000 C 
ATOM     10  C   UNL     1       2.421   5.990  18.374  0.00  0.00    +0.000 C 
ATOM     11  C   UNL     1       3.848   6.235  17.862  0.00  0.00    +0.000 C 
ENDROOT
BRANCH   1  17
ATOM     12  C   UNL     1       8.366   5.783  20.104  0.00  0.00    +0.000 C 
ATOM     13  C   UNL     1       7.825   6.329  18.841  0.00  0.00    +0.000 A 
ATOM     14  O   UNL     1       8.392   7.488  18.413  0.00  0.00    +0.000 OA
ATOM     15  N   UNL     1       7.763   7.912  17.256  0.00  0.00    +0.000 NA
ATOM     16  C   UNL     1       6.823   6.998  17.018  0.00  0.00    +0.000 A 
ATOM     17  C   UNL     1       6.838   5.945  17.959  0.00  0.00    +0.000 A 
ENDBRANCH   1  17
BRANCH   9  18
ATOM     18  N   UNL     1       2.028   8.013  19.869  0.00  0.00    +0.000 NA
ATOM     19  C   UNL     1       1.818   8.600  18.536  0.00  0.00    +0.000 C 
BRANCH  18  20
ATOM     20  C   UNL     1       0.915   8.391  20.784  0.00  0.00    +0.000 C 
BRANCH  20  21
ATOM     21  C   UNL     1       0.258   9.716  20.475  0.00  0.00    +0.000 A 
ATOM     22  C   UNL     1      -0.909   9.976  19.781  0.00  0.00    +0.000 A 
ATOM     23  C   UNL     1      -1.211  11.370  19.725  0.00  0.00    +0.000 A 
ATOM     24  C   UNL     1      -0.259  12.132  20.363  0.00  0.00    +0.000 A 
ATOM     25  S   UNL     1       0.995  11.175  21.016  0.00  0.00    +0.000 S 
ENDBRANCH  20  21
ENDBRANCH  18  20
ENDBRANCH   9  18
TORSDOF 4
ENDMDL
MODEL 9
REMARK VINA RESULT:      -6.7     11.203     13.911
REMARK  Name = 
REMARK  6 active torsions:
REMARK  status: ('A' for Active; 'I' for Inactive)
REMARK    1  A    between atoms: C_1  and  C_2
REMARK    2  A    between atoms: C_6  and  C_7
REMARK    3  A    between atoms: C_15  and  N_16
REMARK    4  A    between atoms: N_16  and  C_17
REMARK    5  A    between atoms: N_16  and  C_18
REMARK    6  A    between atoms: C_18  and  C_19
REMARK                            x       y       z     vdW  Elec       q    Type
REMARK                         _______ _______ _______ _____ _____    ______ ____
ROOT
ATOM      1  C   UNL     1      -6.399  11.576  19.512  0.00  0.00    +0.000 C 
ATOM      2  O   UNL     1      -7.490  11.008  19.542  0.00  0.00    +0.000 OA
ATOM      3  N   UNL     1      -5.889  12.243  20.617  0.00  0.00    +0.000 N 
ATOM      4  C   UNL     1      -6.566  12.152  21.901  0.00  0.00    +0.000 C 
ATOM      5  C   UNL     1      -6.102  13.388  22.675  0.00  0.00    +0.000 C 
ATOM      6  C   UNL     1      -6.123  13.256  24.187  0.00  0.00    +0.000 C 
ATOM      7  C   UNL     1      -5.091  12.267  24.696  0.00  0.00    +0.000 C 
ATOM      8  C   UNL     1      -3.690  12.653  24.246  0.00  0.00    +0.000 C 
ATOM      9  C   UNL     1      -3.536  12.861  22.717  0.00  0.00    +0.000 C 
ATOM     10  C   UNL     1      -4.709  13.690  22.094  0.00  0.00    +0.000 C 
ATOM     11  C   UNL     1      -4.940  13.363  20.611  0.00  0.00    +0.000 C 
ENDROOT
BRANCH   1  17
ATOM     12  C   UNL     1      -6.578  13.423  16.777  0.00  0.00    +0.000 C 
ATOM     13  C   UNL     1      -5.696  12.309  17.189  0.00  0.00    +0.000 A 
ATOM     14  O   UNL     1      -4.776  11.918  16.269  0.00  0.00    +0.000 OA
ATOM     15  N   UNL     1      -4.055  10.844  16.760  0.00  0.00    +0.000 NA
ATOM     16  C   UNL     1      -4.567  10.608  17.968  0.00  0.00    +0.000 A 
ATOM     17  C   UNL     1      -5.579  11.528  18.319  0.00  0.00    +0.000 A 
ENDBRANCH   1  17
BRANCH   9  18
ATOM     18  N   UNL     1      -2.190  13.404  22.327  0.00  0.00    +0.000 NA
ATOM     19  C   UNL     1      -2.022  14.825  22.672  0.00  0.00    +0.000 C 
BRANCH  18  20
ATOM     20  C   UNL     1      -1.096  12.590  22.926  0.00  0.00    +0.000 C 
BRANCH  20  21
ATOM     21  C   UNL     1      -0.759  11.322  22.177  0.00  0.00    +0.000 A 
ATOM     22  C   UNL     1      -0.618  11.119  20.817  0.00  0.00    +0.000 A 
ATOM     23  C   UNL     1      -0.266   9.772  20.501  0.00  0.00    +0.000 A 
ATOM     24  C   UNL     1      -0.166   8.985  21.626  0.00  0.00    +0.000 A 
ATOM     25  S   UNL     1      -0.503   9.863  23.052  0.00  0.00    +0.000 S 
ENDBRANCH  20  21
ENDBRANCH  18  20
ENDBRANCH   9  18
TORSDOF 4
ENDMDL
