MODEL 1
REMARK VINA RESULT:      -7.3      0.000      0.000
REMARK  Name = 
REMARK  10 active torsions:
REMARK  status: ('A' for Active; 'I' for Inactive)
REMARK    1  A    between atoms: C_1  and  C_2
REMARK    2  A    between atoms: C_2  and  O_3
REMARK    3  A    between atoms: O_3  and  C_4
REMARK    4  A    between atoms: C_4  and  C_6
REMARK    5  A    between atoms: N_8  and  C_9
REMARK    6  A    between atoms: C_9  and  O_10
REMARK    7  A    between atoms: O_10  and  C_11
REMARK    8  A    between atoms: C_11  and  C_12
REMARK    9  A    between atoms: C_12  and  O_13
REMARK   10  A    between atoms: C_16  and  C_17
REMARK                            x       y       z     vdW  Elec       q    Type
REMARK                         _______ _______ _______ _____ _____    ______ ____
ROOT
ATOM      1  C   UNL     1       5.510   5.017  16.158  0.00  0.00    +0.000 A 
ATOM      2  C   UNL     1       5.337   4.134  17.156  0.00  0.00    +0.000 A 
ATOM      3  N   UNL     1       4.574   4.324  18.301  0.00  0.00    +0.000 N 
ATOM      4  C   UNL     1       3.881   5.548  18.468  0.00  0.00    +0.000 A 
ATOM      5  C   UNL     1       3.057   5.831  19.571  0.00  0.00    +0.000 A 
ATOM      6  C   UNL     1       2.302   7.015  19.653  0.00  0.00    +0.000 A 
ATOM      7  C   UNL     1       1.352   7.240  20.793  0.00  0.00    +0.000 C 
ATOM      8  C   UNL     1       2.399   7.964  18.635  0.00  0.00    +0.000 A 
ATOM      9  C   UNL     1       3.246   7.738  17.556  0.00  0.00    +0.000 A 
ATOM     10  C   UNL     1       3.975   6.543  17.475  0.00  0.00    +0.000 A 
ATOM     11  C   UNL     1       4.859   6.342  16.304  0.00  0.00    +0.000 A 
ATOM     12  O   UNL     1       5.053   7.269  15.528  0.00  0.00    +0.000 OA
ENDROOT
BRANCH   1  13
ATOM     13  C   UNL     1       6.384   4.653  15.027  0.00  0.00    +0.000 C 
ATOM     14  O   UNL     1       7.535   5.046  14.900  0.00  0.00    +0.000 OA
BRANCH  13  15
ATOM     15  O   UNL     1       5.714   3.875  14.147  0.00  0.00    +0.000 OA
BRANCH  15  17
ATOM     16  C   UNL     1       5.308   3.114  11.914  0.00  0.00    +0.000 C 
ATOM     17  C   UNL     1       6.342   3.679  12.876  0.00  0.00    +0.000 C 
ENDBRANCH  15  17
ENDBRANCH  13  15
ENDBRANCH   1  13
BRANCH   3  18
ATOM     18  C   UNL     1       4.380   3.244  19.279  0.00  0.00    +0.000 C 
BRANCH  18  19
ATOM     19  O   UNL     1       3.702   2.103  18.738  0.00  0.00    +0.000 OA
BRANCH  19  20
ATOM     20  C   UNL     1       2.279   2.245  18.737  0.00  0.00    +0.000 C 
BRANCH  20  21
ATOM     21  C   UNL     1       1.816   2.397  20.185  0.00  0.00    +0.000 C 
BRANCH  21  22
ATOM     22  O   UNL     1       0.613   3.163  20.244  0.00  0.00    +0.000 OA
ATOM     23  H   UNL     1       0.289   3.217  19.325  0.00  0.00    +0.000 HD
ENDBRANCH  21  22
ENDBRANCH  20  21
ENDBRANCH  19  20
ENDBRANCH  18  19
ENDBRANCH   3  18
TORSDOF 8
ENDMDL
MODEL 2
REMARK VINA RESULT:      -6.8      2.111      3.118
REMARK  Name = 
REMARK  10 active torsions:
REMARK  status: ('A' for Active; 'I' for Inactive)
REMARK    1  A    between atoms: C_1  and  C_2
REMARK    2  A    between atoms: C_2  and  O_3
REMARK    3  A    between atoms: O_3  and  C_4
REMARK    4  A    between atoms: C_4  and  C_6
REMARK    5  A    between atoms: N_8  and  C_9
REMARK    6  A    between atoms: C_9  and  O_10
REMARK    7  A    between atoms: O_10  and  C_11
REMARK    8  A    between atoms: C_11  and  C_12
REMARK    9  A    between atoms: C_12  and  O_13
REMARK   10  A    between atoms: C_16  and  C_17
REMARK                            x       y       z     vdW  Elec       q    Type
REMARK                         _______ _______ _______ _____ _____    ______ ____
ROOT
ATOM      1  C   UNL     1       4.359   5.228  17.928  0.00  0.00    +0.000 A 
ATOM      2  C   UNL     1       3.771   4.822  19.066  0.00  0.00    +0.000 A 
ATOM      3  N   UNL     1       2.876   5.553  19.837  0.00  0.00    +0.000 N 
ATOM      4  C   UNL     1       2.507   6.853  19.413  0.00  0.00    +0.000 A 
ATOM      5  C   UNL     1       1.586   7.663  20.099  0.00  0.00    +0.000 A 
ATOM      6  C   UNL     1       1.165   8.906  19.592  0.00  0.00    +0.000 A 
ATOM      7  C   UNL     1       0.103   9.700  20.296  0.00  0.00    +0.000 C 
ATOM      8  C   UNL     1       1.702   9.378  18.394  0.00  0.00    +0.000 A 
ATOM      9  C   UNL     1       2.655   8.624  17.718  0.00  0.00    +0.000 A 
ATOM     10  C   UNL     1       3.049   7.376  18.222  0.00  0.00    +0.000 A 
ATOM     11  C   UNL     1       4.060   6.605  17.464  0.00  0.00    +0.000 A 
ATOM     12  O   UNL     1       4.636   7.129  16.519  0.00  0.00    +0.000 OA
ENDROOT
BRANCH   1  13
ATOM     13  C   UNL     1       5.311   4.325  17.256  0.00  0.00    +0.000 C 
ATOM     14  O   UNL     1       5.087   3.769  16.188  0.00  0.00    +0.000 OA
BRANCH  13  15
ATOM     15  O   UNL     1       6.424   4.169  18.008  0.00  0.00    +0.000 OA
BRANCH  15  17
ATOM     16  C   UNL     1       7.782   5.804  19.108  0.00  0.00    +0.000 C 
ATOM     17  C   UNL     1       7.470   5.120  17.787  0.00  0.00    +0.000 C 
ENDBRANCH  15  17
ENDBRANCH  13  15
ENDBRANCH   1  13
BRANCH   3  18
ATOM     18  C   UNL     1       2.221   4.964  21.013  0.00  0.00    +0.000 C 
BRANCH  18  19
ATOM     19  O   UNL     1       0.990   4.298  20.704  0.00  0.00    +0.000 OA
BRANCH  19  20
ATOM     20  C   UNL     1       1.138   2.883  20.562  0.00  0.00    +0.000 C 
BRANCH  20  21
ATOM     21  C   UNL     1       0.868   2.521  19.102  0.00  0.00    +0.000 C 
BRANCH  21  22
ATOM     22  O   UNL     1       1.872   1.632  18.617  0.00  0.00    +0.000 OA
ATOM     23  H   UNL     1       2.458   2.175  18.057  0.00  0.00    +0.000 HD
ENDBRANCH  21  22
ENDBRANCH  20  21
ENDBRANCH  19  20
ENDBRANCH  18  19
ENDBRANCH   3  18
TORSDOF 8
ENDMDL
MODEL 3
REMARK VINA RESULT:      -6.7      2.889      5.065
REMARK  Name = 
REMARK  10 active torsions:
REMARK  status: ('A' for Active; 'I' for Inactive)
REMARK    1  A    between atoms: C_1  and  C_2
REMARK    2  A    between atoms: C_2  and  O_3
REMARK    3  A    between atoms: O_3  and  C_4
REMARK    4  A    between atoms: C_4  and  C_6
REMARK    5  A    between atoms: N_8  and  C_9
REMARK    6  A    between atoms: C_9  and  O_10
REMARK    7  A    between atoms: O_10  and  C_11
REMARK    8  A    between atoms: C_11  and  C_12
REMARK    9  A    between atoms: C_12  and  O_13
REMARK   10  A    between atoms: C_16  and  C_17
REMARK                            x       y       z     vdW  Elec       q    Type
REMARK                         _______ _______ _______ _____ _____    ______ ____
ROOT
ATOM      1  C   UNL     1       5.806   6.234  17.466  0.00  0.00    +0.000 A 
ATOM      2  C   UNL     1       4.662   6.936  17.495  0.00  0.00    +0.000 A 
ATOM      3  N   UNL     1       3.470   6.544  18.091  0.00  0.00    +0.000 N 
ATOM      4  C   UNL     1       3.414   5.295  18.756  0.00  0.00    +0.000 A 
ATOM      5  C   UNL     1       2.270   4.817  19.419  0.00  0.00    +0.000 A 
ATOM      6  C   UNL     1       2.282   3.620  20.157  0.00  0.00    +0.000 A 
ATOM      7  C   UNL     1       1.075   3.190  20.939  0.00  0.00    +0.000 C 
ATOM      8  C   UNL     1       3.447   2.854  20.206  0.00  0.00    +0.000 A 
ATOM      9  C   UNL     1       4.580   3.273  19.518  0.00  0.00    +0.000 A 
ATOM     10  C   UNL     1       4.562   4.480  18.804  0.00  0.00    +0.000 A 
ATOM     11  C   UNL     1       5.794   4.890  18.093  0.00  0.00    +0.000 A 
ATOM     12  O   UNL     1       6.733   4.108  18.012  0.00  0.00    +0.000 OA
ENDROOT
BRANCH   1  13
ATOM     13  C   UNL     1       6.971   6.798  16.758  0.00  0.00    +0.000 C 
ATOM     14  O   UNL     1       7.627   6.185  15.927  0.00  0.00    +0.000 OA
BRANCH  13  15
ATOM     15  O   UNL     1       7.226   8.052  17.197  0.00  0.00    +0.000 OA
BRANCH  15  17
ATOM     16  C   UNL     1       8.613   9.640  18.329  0.00  0.00    +0.000 C 
ATOM     17  C   UNL     1       8.234   8.173  18.205  0.00  0.00    +0.000 C 
ENDBRANCH  15  17
ENDBRANCH  13  15
ENDBRANCH   1  13
BRANCH   3  18
ATOM     18  C   UNL     1       2.308   7.444  18.144  0.00  0.00    +0.000 C 
BRANCH  18  19
ATOM     19  O   UNL     1       2.441   8.594  17.300  0.00  0.00    +0.000 OA
BRANCH  19  20
ATOM     20  C   UNL     1       2.067   9.812  17.949  0.00  0.00    +0.000 C 
BRANCH  20  21
ATOM     21  C   UNL     1       0.644   9.648  18.483  0.00  0.00    +0.000 C 
BRANCH  21  22
ATOM     22  O   UNL     1      -0.275  10.388  17.681  0.00  0.00    +0.000 OA
ATOM     23  H   UNL     1       0.250  11.094  17.261  0.00  0.00    +0.000 HD
ENDBRANCH  21  22
ENDBRANCH  20  21
ENDBRANCH  19  20
ENDBRANCH  18  19
ENDBRANCH   3  18
TORSDOF 8
ENDMDL
MODEL 4
REMARK VINA RESULT:      -6.7      2.397      4.908
REMARK  Name = 
REMARK  10 active torsions:
REMARK  status: ('A' for Active; 'I' for Inactive)
REMARK    1  A    between atoms: C_1  and  C_2
REMARK    2  A    between atoms: C_2  and  O_3
REMARK    3  A    between atoms: O_3  and  C_4
REMARK    4  A    between atoms: C_4  and  C_6
REMARK    5  A    between atoms: N_8  and  C_9
REMARK    6  A    between atoms: C_9  and  O_10
REMARK    7  A    between atoms: O_10  and  C_11
REMARK    8  A    between atoms: C_11  and  C_12
REMARK    9  A    between atoms: C_12  and  O_13
REMARK   10  A    between atoms: C_16  and  C_17
REMARK                            x       y       z     vdW  Elec       q    Type
REMARK                         _______ _______ _______ _____ _____    ______ ____
ROOT
ATOM      1  C   UNL     1       4.697   5.912  17.076  0.00  0.00    +0.000 A 
ATOM      2  C   UNL     1       3.879   6.724  17.767  0.00  0.00    +0.000 A 
ATOM      3  N   UNL     1       2.991   6.343  18.765  0.00  0.00    +0.000 N 
ATOM      4  C   UNL     1       2.916   4.977  19.132  0.00  0.00    +0.000 A 
ATOM      5  C   UNL     1       2.077   4.490  20.149  0.00  0.00    +0.000 A 
ATOM      6  C   UNL     1       2.106   3.145  20.558  0.00  0.00    +0.000 A 
ATOM      7  C   UNL     1       1.273   2.678  21.716  0.00  0.00    +0.000 C 
ATOM      8  C   UNL     1       2.959   2.248  19.913  0.00  0.00    +0.000 A 
ATOM      9  C   UNL     1       3.763   2.687  18.868  0.00  0.00    +0.000 A 
ATOM     10  C   UNL     1       3.742   4.036  18.486  0.00  0.00    +0.000 A 
ATOM     11  C   UNL     1       4.621   4.461  17.372  0.00  0.00    +0.000 A 
ATOM     12  O   UNL     1       5.217   3.614  16.718  0.00  0.00    +0.000 OA
ENDROOT
BRANCH   1  13
ATOM     13  C   UNL     1       5.556   6.491  16.026  0.00  0.00    +0.000 C 
ATOM     14  O   UNL     1       5.131   6.966  14.982  0.00  0.00    +0.000 OA
BRANCH  13  15
ATOM     15  O   UNL     1       6.859   6.372  16.367  0.00  0.00    +0.000 OA
BRANCH  15  17
ATOM     16  C   UNL     1       7.846   6.492  18.544  0.00  0.00    +0.000 C 
ATOM     17  C   UNL     1       7.337   7.291  17.355  0.00  0.00    +0.000 C 
ENDBRANCH  15  17
ENDBRANCH  13  15
ENDBRANCH   1  13
BRANCH   3  18
ATOM     18  C   UNL     1       2.217   7.338  19.521  0.00  0.00    +0.000 C 
BRANCH  18  19
ATOM     19  O   UNL     1       1.904   8.512  18.760  0.00  0.00    +0.000 OA
BRANCH  19  20
ATOM     20  C   UNL     1       1.125   9.462  19.492  0.00  0.00    +0.000 C 
BRANCH  20  21
ATOM     21  C   UNL     1       1.003  10.729  18.647  0.00  0.00    +0.000 C 
BRANCH  21  22
ATOM     22  O   UNL     1       1.882  10.663  17.524  0.00  0.00    +0.000 OA
ATOM     23  H   UNL     1       1.352  10.950  16.757  0.00  0.00    +0.000 HD
ENDBRANCH  21  22
ENDBRANCH  20  21
ENDBRANCH  19  20
ENDBRANCH  18  19
ENDBRANCH   3  18
TORSDOF 8
ENDMDL
MODEL 5
REMARK VINA RESULT:      -6.6      1.699      5.290
REMARK  Name = 
REMARK  10 active torsions:
REMARK  status: ('A' for Active; 'I' for Inactive)
REMARK    1  A    between atoms: C_1  and  C_2
REMARK    2  A    between atoms: C_2  and  O_3
REMARK    3  A    between atoms: O_3  and  C_4
REMARK    4  A    between atoms: C_4  and  C_6
REMARK    5  A    between atoms: N_8  and  C_9
REMARK    6  A    between atoms: C_9  and  O_10
REMARK    7  A    between atoms: O_10  and  C_11
REMARK    8  A    between atoms: C_11  and  C_12
REMARK    9  A    between atoms: C_12  and  O_13
REMARK   10  A    between atoms: C_16  and  C_17
REMARK                            x       y       z     vdW  Elec       q    Type
REMARK                         _______ _______ _______ _____ _____    ______ ____
ROOT
ATOM      1  C   UNL     1       3.655   4.317  19.397  0.00  0.00    +0.000 A 
ATOM      2  C   UNL     1       4.203   4.760  18.253  0.00  0.00    +0.000 A 
ATOM      3  N   UNL     1       3.982   5.995  17.658  0.00  0.00    +0.000 N 
ATOM      4  C   UNL     1       3.111   6.915  18.291  0.00  0.00    +0.000 A 
ATOM      5  C   UNL     1       2.844   8.202  17.792  0.00  0.00    +0.000 A 
ATOM      6  C   UNL     1       2.057   9.127  18.501  0.00  0.00    +0.000 A 
ATOM      7  C   UNL     1       1.875  10.527  17.993  0.00  0.00    +0.000 C 
ATOM      8  C   UNL     1       1.485   8.753  19.718  0.00  0.00    +0.000 A 
ATOM      9  C   UNL     1       1.687   7.470  20.213  0.00  0.00    +0.000 A 
ATOM     10  C   UNL     1       2.493   6.565  19.507  0.00  0.00    +0.000 A 
ATOM     11  C   UNL     1       2.687   5.212  20.076  0.00  0.00    +0.000 A 
ATOM     12  O   UNL     1       2.027   4.865  21.048  0.00  0.00    +0.000 OA
ENDROOT
BRANCH   1  13
ATOM     13  C   UNL     1       3.985   2.958  19.867  0.00  0.00    +0.000 C 
ATOM     14  O   UNL     1       5.123   2.573  20.097  0.00  0.00    +0.000 OA
BRANCH  13  15
ATOM     15  O   UNL     1       2.864   2.206  19.954  0.00  0.00    +0.000 OA
BRANCH  15  17
ATOM     16  C   UNL     1       0.766   2.324  18.810  0.00  0.00    +0.000 C 
ATOM     17  C   UNL     1       2.220   1.892  18.715  0.00  0.00    +0.000 C 
ENDBRANCH  15  17
ENDBRANCH  13  15
ENDBRANCH   1  13
BRANCH   3  18
ATOM     18  C   UNL     1       4.718   6.407  16.454  0.00  0.00    +0.000 C 
BRANCH  18  19
ATOM     19  O   UNL     1       5.997   6.985  16.739  0.00  0.00    +0.000 OA
BRANCH  19  20
ATOM     20  C   UNL     1       7.062   6.032  16.711  0.00  0.00    +0.000 C 
BRANCH  20  21
ATOM     21  C   UNL     1       6.832   5.098  15.524  0.00  0.00    +0.000 C 
BRANCH  21  22
ATOM     22  O   UNL     1       7.760   5.386  14.479  0.00  0.00    +0.000 OA
ATOM     23  H   UNL     1       7.716   6.351  14.345  0.00  0.00    +0.000 HD
ENDBRANCH  21  22
ENDBRANCH  20  21
ENDBRANCH  19  20
ENDBRANCH  18  19
ENDBRANCH   3  18
TORSDOF 8
ENDMDL
MODEL 6
REMARK VINA RESULT:      -6.6      2.310      3.255
REMARK  Name = 
REMARK  10 active torsions:
REMARK  status: ('A' for Active; 'I' for Inactive)
REMARK    1  A    between atoms: C_1  and  C_2
REMARK    2  A    between atoms: C_2  and  O_3
REMARK    3  A    between atoms: O_3  and  C_4
REMARK    4  A    between atoms: C_4  and  C_6
REMARK    5  A    between atoms: N_8  and  C_9
REMARK    6  A    between atoms: C_9  and  O_10
REMARK    7  A    between atoms: O_10  and  C_11
REMARK    8  A    between atoms: C_11  and  C_12
REMARK    9  A    between atoms: C_12  and  O_13
REMARK   10  A    between atoms: C_16  and  C_17
REMARK                            x       y       z     vdW  Elec       q    Type
REMARK                         _______ _______ _______ _____ _____    ______ ____
ROOT
ATOM      1  C   UNL     1       4.331   5.278  18.037  0.00  0.00    +0.000 A 
ATOM      2  C   UNL     1       3.631   4.956  19.137  0.00  0.00    +0.000 A 
ATOM      3  N   UNL     1       2.709   5.763  19.791  0.00  0.00    +0.000 N 
ATOM      4  C   UNL     1       2.438   7.054  19.275  0.00  0.00    +0.000 A 
ATOM      5  C   UNL     1       1.501   7.937  19.839  0.00  0.00    +0.000 A 
ATOM      6  C   UNL     1       1.183   9.169  19.240  0.00  0.00    +0.000 A 
ATOM      7  C   UNL     1       0.104  10.042  19.810  0.00  0.00    +0.000 C 
ATOM      8  C   UNL     1       1.842   9.555  18.072  0.00  0.00    +0.000 A 
ATOM      9  C   UNL     1       2.812   8.728  17.518  0.00  0.00    +0.000 A 
ATOM     10  C   UNL     1       3.103   7.492  18.113  0.00  0.00    +0.000 A 
ATOM     11  C   UNL     1       4.138   6.641  17.484  0.00  0.00    +0.000 A 
ATOM     12  O   UNL     1       4.816   7.091  16.569  0.00  0.00    +0.000 OA
ENDROOT
BRANCH   1  13
ATOM     13  C   UNL     1       5.294   4.302  17.493  0.00  0.00    +0.000 C 
ATOM     14  O   UNL     1       5.104   3.651  16.474  0.00  0.00    +0.000 OA
BRANCH  13  15
ATOM     15  O   UNL     1       6.372   4.203  18.304  0.00  0.00    +0.000 OA
BRANCH  15  17
ATOM     16  C   UNL     1       7.811   6.038  18.840  0.00  0.00    +0.000 C 
ATOM     17  C   UNL     1       7.548   4.895  17.873  0.00  0.00    +0.000 C 
ENDBRANCH  15  17
ENDBRANCH  13  15
ENDBRANCH   1  13
BRANCH   3  18
ATOM     18  C   UNL     1       1.928   5.263  20.932  0.00  0.00    +0.000 C 
BRANCH  18  19
ATOM     19  O   UNL     1       0.871   4.374  20.552  0.00  0.00    +0.000 OA
BRANCH  19  20
ATOM     20  C   UNL     1       1.202   2.996  20.742  0.00  0.00    +0.000 C 
BRANCH  20  21
ATOM     21  C   UNL     1       2.125   2.892  21.955  0.00  0.00    +0.000 C 
BRANCH  21  22
ATOM     22  O   UNL     1       3.328   2.210  21.606  0.00  0.00    +0.000 OA
ATOM     23  H   UNL     1       3.129   1.725  20.784  0.00  0.00    +0.000 HD
ENDBRANCH  21  22
ENDBRANCH  20  21
ENDBRANCH  19  20
ENDBRANCH  18  19
ENDBRANCH   3  18
TORSDOF 8
ENDMDL
MODEL 7
REMARK VINA RESULT:      -6.6      2.476      4.699
REMARK  Name = 
REMARK  10 active torsions:
REMARK  status: ('A' for Active; 'I' for Inactive)
REMARK    1  A    between atoms: C_1  and  C_2
REMARK    2  A    between atoms: C_2  and  O_3
REMARK    3  A    between atoms: O_3  and  C_4
REMARK    4  A    between atoms: C_4  and  C_6
REMARK    5  A    between atoms: N_8  and  C_9
REMARK    6  A    between atoms: C_9  and  O_10
REMARK    7  A    between atoms: O_10  and  C_11
REMARK    8  A    between atoms: C_11  and  C_12
REMARK    9  A    between atoms: C_12  and  O_13
REMARK   10  A    between atoms: C_16  and  C_17
REMARK                            x       y       z     vdW  Elec       q    Type
REMARK                         _______ _______ _______ _____ _____    ______ ____
ROOT
ATOM      1  C   UNL     1       4.617   5.946  17.153  0.00  0.00    +0.000 A 
ATOM      2  C   UNL     1       3.859   6.760  17.906  0.00  0.00    +0.000 A 
ATOM      3  N   UNL     1       2.984   6.373  18.913  0.00  0.00    +0.000 N 
ATOM      4  C   UNL     1       2.857   4.997  19.220  0.00  0.00    +0.000 A 
ATOM      5  C   UNL     1       2.027   4.501  20.240  0.00  0.00    +0.000 A 
ATOM      6  C   UNL     1       2.005   3.138  20.587  0.00  0.00    +0.000 A 
ATOM      7  C   UNL     1       1.187   2.655  21.748  0.00  0.00    +0.000 C 
ATOM      8  C   UNL     1       2.796   2.235  19.874  0.00  0.00    +0.000 A 
ATOM      9  C   UNL     1       3.588   2.686  18.825  0.00  0.00    +0.000 A 
ATOM     10  C   UNL     1       3.618   4.051  18.505  0.00  0.00    +0.000 A 
ATOM     11  C   UNL     1       4.482   4.487  17.385  0.00  0.00    +0.000 A 
ATOM     12  O   UNL     1       5.019   3.646  16.674  0.00  0.00    +0.000 OA
ENDROOT
BRANCH   1  13
ATOM     13  C   UNL     1       5.471   6.534  16.103  0.00  0.00    +0.000 C 
ATOM     14  O   UNL     1       5.038   7.068  15.091  0.00  0.00    +0.000 OA
BRANCH  13  15
ATOM     15  O   UNL     1       6.777   6.351  16.403  0.00  0.00    +0.000 OA
BRANCH  15  17
ATOM     16  C   UNL     1       7.866   6.553  18.524  0.00  0.00    +0.000 C 
ATOM     17  C   UNL     1       7.354   7.301  17.303  0.00  0.00    +0.000 C 
ENDBRANCH  15  17
ENDBRANCH  13  15
ENDBRANCH   1  13
BRANCH   3  18
ATOM     18  C   UNL     1       2.281   7.366  19.738  0.00  0.00    +0.000 C 
BRANCH  18  19
ATOM     19  O   UNL     1       1.752   8.462  18.981  0.00  0.00    +0.000 OA
BRANCH  19  20
ATOM     20  C   UNL     1       1.077   9.428  19.791  0.00  0.00    +0.000 C 
BRANCH  20  21
ATOM     21  C   UNL     1       0.881   8.828  21.183  0.00  0.00    +0.000 C 
BRANCH  21  22
ATOM     22  O   UNL     1       1.310   9.748  22.185  0.00  0.00    +0.000 OA
ATOM     23  H   UNL     1       0.922   9.429  23.021  0.00  0.00    +0.000 HD
ENDBRANCH  21  22
ENDBRANCH  20  21
ENDBRANCH  19  20
ENDBRANCH  18  19
ENDBRANCH   3  18
TORSDOF 8
ENDMDL
MODEL 8
REMARK VINA RESULT:      -6.6      2.729      5.098
REMARK  Name = 
REMARK  10 active torsions:
REMARK  status: ('A' for Active; 'I' for Inactive)
REMARK    1  A    between atoms: C_1  and  C_2
REMARK    2  A    between atoms: C_2  and  O_3
REMARK    3  A    between atoms: O_3  and  C_4
REMARK    4  A    between atoms: C_4  and  C_6
REMARK    5  A    between atoms: N_8  and  C_9
REMARK    6  A    between atoms: C_9  and  O_10
REMARK    7  A    between atoms: O_10  and  C_11
REMARK    8  A    between atoms: C_11  and  C_12
REMARK    9  A    between atoms: C_12  and  O_13
REMARK   10  A    between atoms: C_16  and  C_17
REMARK                            x       y       z     vdW  Elec       q    Type
REMARK                         _______ _______ _______ _____ _____    ______ ____
ROOT
ATOM      1  C   UNL     1       5.816   6.026  17.333  0.00  0.00    +0.000 A 
ATOM      2  C   UNL     1       4.810   6.817  17.742  0.00  0.00    +0.000 A 
ATOM      3  N   UNL     1       3.524   6.408  18.073  0.00  0.00    +0.000 N 
ATOM      4  C   UNL     1       3.202   5.031  18.000  0.00  0.00    +0.000 A 
ATOM      5  C   UNL     1       1.943   4.508  18.344  0.00  0.00    +0.000 A 
ATOM      6  C   UNL     1       1.690   3.125  18.360  0.00  0.00    +0.000 A 
ATOM      7  C   UNL     1       0.368   2.593  18.831  0.00  0.00    +0.000 C 
ATOM      8  C   UNL     1       2.700   2.237  17.984  0.00  0.00    +0.000 A 
ATOM      9  C   UNL     1       3.939   2.726  17.589  0.00  0.00    +0.000 A 
ATOM     10  C   UNL     1       4.186   4.106  17.600  0.00  0.00    +0.000 A 
ATOM     11  C   UNL     1       5.523   4.581  17.178  0.00  0.00    +0.000 A 
ATOM     12  O   UNL     1       6.318   3.788  16.688  0.00  0.00    +0.000 OA
ENDROOT
BRANCH   1  13
ATOM     13  C   UNL     1       7.114   6.640  16.995  0.00  0.00    +0.000 C 
ATOM     14  O   UNL     1       7.738   6.397  15.971  0.00  0.00    +0.000 OA
BRANCH  13  15
ATOM     15  O   UNL     1       7.521   7.459  17.992  0.00  0.00    +0.000 OA
BRANCH  15  17
ATOM     16  C   UNL     1       8.772   9.377  18.685  0.00  0.00    +0.000 C 
ATOM     17  C   UNL     1       7.875   8.790  17.607  0.00  0.00    +0.000 C 
ENDBRANCH  15  17
ENDBRANCH  13  15
ENDBRANCH   1  13
BRANCH   3  18
ATOM     18  C   UNL     1       2.534   7.356  18.604  0.00  0.00    +0.000 C 
BRANCH  18  19
ATOM     19  O   UNL     1       2.003   8.241  17.610  0.00  0.00    +0.000 OA
BRANCH  19  20
ATOM     20  C   UNL     1       2.064   9.617  17.995  0.00  0.00    +0.000 C 
BRANCH  20  21
ATOM     21  C   UNL     1       0.702  10.013  18.562  0.00  0.00    +0.000 C 
BRANCH  21  22
ATOM     22  O   UNL     1      -0.310   9.872  17.566  0.00  0.00    +0.000 OA
ATOM     23  H   UNL     1       0.108  10.136  16.725  0.00  0.00    +0.000 HD
ENDBRANCH  21  22
ENDBRANCH  20  21
ENDBRANCH  19  20
ENDBRANCH  18  19
ENDBRANCH   3  18
TORSDOF 8
ENDMDL
MODEL 9
REMARK VINA RESULT:      -6.5      1.251      1.584
REMARK  Name = 
REMARK  10 active torsions:
REMARK  status: ('A' for Active; 'I' for Inactive)
REMARK    1  A    between atoms: C_1  and  C_2
REMARK    2  A    between atoms: C_2  and  O_3
REMARK    3  A    between atoms: O_3  and  C_4
REMARK    4  A    between atoms: C_4  and  C_6
REMARK    5  A    between atoms: N_8  and  C_9
REMARK    6  A    between atoms: C_9  and  O_10
REMARK    7  A    between atoms: O_10  and  C_11
REMARK    8  A    between atoms: C_11  and  C_12
REMARK    9  A    between atoms: C_12  and  O_13
REMARK   10  A    between atoms: C_16  and  C_17
REMARK                            x       y       z     vdW  Elec       q    Type
REMARK                         _______ _______ _______ _____ _____    ______ ____
ROOT
ATOM      1  C   UNL     1       5.585   5.040  17.136  0.00  0.00    +0.000 A 
ATOM      2  C   UNL     1       5.104   4.463  18.250  0.00  0.00    +0.000 A 
ATOM      3  N   UNL     1       4.142   4.992  19.101  0.00  0.00    +0.000 N 
ATOM      4  C   UNL     1       3.575   6.254  18.797  0.00  0.00    +0.000 A 
ATOM      5  C   UNL     1       2.573   6.863  19.571  0.00  0.00    +0.000 A 
ATOM      6  C   UNL     1       1.960   8.068  19.182  0.00  0.00    +0.000 A 
ATOM      7  C   UNL     1       0.822   8.640  19.976  0.00  0.00    +0.000 C 
ATOM      8  C   UNL     1       2.381   8.707  18.015  0.00  0.00    +0.000 A 
ATOM      9  C   UNL     1       3.406   8.157  17.255  0.00  0.00    +0.000 A 
ATOM     10  C   UNL     1       3.993   6.943  17.641  0.00  0.00    +0.000 A 
ATOM     11  C   UNL     1       5.076   6.391  16.797  0.00  0.00    +0.000 A 
ATOM     12  O   UNL     1       5.536   7.067  15.886  0.00  0.00    +0.000 OA
ENDROOT
BRANCH   1  13
ATOM     13  C   UNL     1       6.632   4.341  16.366  0.00  0.00    +0.000 C 
ATOM     14  O   UNL     1       7.823   4.380  16.643  0.00  0.00    +0.000 OA
BRANCH  13  15
ATOM     15  O   UNL     1       6.088   3.705  15.303  0.00  0.00    +0.000 OA
BRANCH  15  17
ATOM     16  C   UNL     1       5.592   3.647  12.963  0.00  0.00    +0.000 C 
ATOM     17  C   UNL     1       6.596   4.080  14.020  0.00  0.00    +0.000 C 
ENDBRANCH  15  17
ENDBRANCH  13  15
ENDBRANCH   1  13
BRANCH   3  18
ATOM     18  C   UNL     1       3.620   4.221  20.239  0.00  0.00    +0.000 C 
BRANCH  18  19
ATOM     19  O   UNL     1       3.738   2.803  20.067  0.00  0.00    +0.000 OA
BRANCH  19  20
ATOM     20  C   UNL     1       2.573   2.210  19.486  0.00  0.00    +0.000 C 
BRANCH  20  21
ATOM     21  C   UNL     1       2.959   1.646  18.120  0.00  0.00    +0.000 C 
BRANCH  21  22
ATOM     22  O   UNL     1       4.034   0.718  18.251  0.00  0.00    +0.000 OA
ATOM     23  H   UNL     1       4.493   0.720  17.390  0.00  0.00    +0.000 HD
ENDBRANCH  21  22
ENDBRANCH  20  21
ENDBRANCH  19  20
ENDBRANCH  18  19
ENDBRANCH   3  18
TORSDOF 8
ENDMDL
