MODEL 1
REMARK VINA RESULT:      -7.3      0.000      0.000
REMARK  Name = 
REMARK  6 active torsions:
REMARK  status: ('A' for Active; 'I' for Inactive)
REMARK    1  A    between atoms: C_1  and  C_2
REMARK    2  A    between atoms: N_5  and  S_6
REMARK    3  A    between atoms: S_6  and  C_9
REMARK    4  A    between atoms: N_15  and  C_16
REMARK    5  A    between atoms: C_16  and  C_17
REMARK    6  A    between atoms: C_17  and  O_19
REMARK                            x       y       z     vdW  Elec       q    Type
REMARK                         _______ _______ _______ _____ _____    ______ ____
ROOT
ATOM      1  C   UNL     1       2.151   7.142  19.343  0.00  0.00    +0.000 A 
ATOM      2  C   UNL     1       2.745   7.651  18.185  0.00  0.00    +0.000 A 
ATOM      3  C   UNL     1       2.496   8.970  17.817  0.00  0.00    +0.000 A 
ATOM      4  C   UNL     1       1.685   9.778  18.617  0.00  0.00    +0.000 A 
ATOM      5  C   UNL     1       1.078   9.276  19.781  0.00  0.00    +0.000 A 
ATOM      6  C   UNL     1       1.334   7.951  20.148  0.00  0.00    +0.000 A 
ATOM      7  N   UNL     1       0.158  10.101  20.492  0.00  0.00    +0.000 N 
ATOM      8  C   UNL     1       0.050  11.451  20.160  0.00  0.00    +0.000 C 
ATOM      9  O   UNL     1      -0.764  12.215  20.673  0.00  0.00    +0.000 OA
ATOM     10  C   UNL     1       1.102  11.948  19.175  0.00  0.00    +0.000 C 
ATOM     11  O   UNL     1       1.479  11.048  18.150  0.00  0.00    +0.000 OA
ENDROOT
BRANCH   1  12
ATOM     12  S   UNL     1       2.543   5.492  19.884  0.00  0.00    +0.000 S 
ATOM     13  O   UNL     1       2.203   5.422  21.287  0.00  0.00    +0.000 OA
ATOM     14  O   UNL     1       3.891   5.205  19.441  0.00  0.00    +0.000 OA
BRANCH  12  19
ATOM     15  C   UNL     1       3.920   1.115  18.352  0.00  0.00    +0.000 C 
ATOM     16  C   UNL     1       2.623   1.927  18.296  0.00  0.00    +0.000 C 
ATOM     17  C   UNL     1       2.824   3.184  17.433  0.00  0.00    +0.000 C 
ATOM     18  C   UNL     1       1.704   4.209  17.594  0.00  0.00    +0.000 C 
ATOM     19  N   UNL     1       1.436   4.509  19.023  0.00  0.00    +0.000 NA
ATOM     20  C   UNL     1       1.017   3.269  19.732  0.00  0.00    +0.000 C 
ATOM     21  C   UNL     1       2.143   2.245  19.722  0.00  0.00    +0.000 C 
ENDBRANCH  12  19
ENDBRANCH   1  12
BRANCH   7  22
ATOM     22  C   UNL     1      -0.635   9.596  21.624  0.00  0.00    +0.000 C 
BRANCH  22  23
ATOM     23  C   UNL     1      -0.279  10.128  23.012  0.00  0.00    +0.000 C 
ATOM     24  O   UNL     1       0.593   9.626  23.711  0.00  0.00    +0.000 OA
BRANCH  23  25
ATOM     25  O   UNL     1      -1.000  11.187  23.436  0.00  0.00    +0.000 OA
ATOM     26  H   UNL     1      -1.626  10.954  24.146  0.00  0.00    +0.000 HD
ENDBRANCH  23  25
ENDBRANCH  22  23
ENDBRANCH   7  22
TORSDOF 5
ENDMDL
MODEL 2
REMARK VINA RESULT:      -7.3      3.970      6.957
REMARK  Name = 
REMARK  6 active torsions:
REMARK  status: ('A' for Active; 'I' for Inactive)
REMARK    1  A    between atoms: C_1  and  C_2
REMARK    2  A    between atoms: N_5  and  S_6
REMARK    3  A    between atoms: S_6  and  C_9
REMARK    4  A    between atoms: N_15  and  C_16
REMARK    5  A    between atoms: C_16  and  C_17
REMARK    6  A    between atoms: C_17  and  O_19
REMARK                            x       y       z     vdW  Elec       q    Type
REMARK                         _______ _______ _______ _____ _____    ______ ____
ROOT
ATOM      1  C   UNL     1       4.446   6.293  17.538  0.00  0.00    +0.000 A 
ATOM      2  C   UNL     1       3.499   7.295  17.767  0.00  0.00    +0.000 A 
ATOM      3  C   UNL     1       2.535   7.106  18.753  0.00  0.00    +0.000 A 
ATOM      4  C   UNL     1       2.538   5.940  19.520  0.00  0.00    +0.000 A 
ATOM      5  C   UNL     1       3.482   4.923  19.296  0.00  0.00    +0.000 A 
ATOM      6  C   UNL     1       4.451   5.118  18.307  0.00  0.00    +0.000 A 
ATOM      7  N   UNL     1       3.365   3.699  20.018  0.00  0.00    +0.000 N 
ATOM      8  C   UNL     1       2.469   3.616  21.085  0.00  0.00    +0.000 C 
ATOM      9  O   UNL     1       2.255   2.583  21.714  0.00  0.00    +0.000 OA
ATOM     10  C   UNL     1       1.842   4.944  21.491  0.00  0.00    +0.000 C 
ATOM     11  O   UNL     1       1.530   5.840  20.440  0.00  0.00    +0.000 OA
ENDROOT
BRANCH   1  12
ATOM     12  S   UNL     1       5.748   6.563  16.355  0.00  0.00    +0.000 S 
ATOM     13  O   UNL     1       6.653   7.524  16.944  0.00  0.00    +0.000 OA
ATOM     14  O   UNL     1       5.117   6.835  15.080  0.00  0.00    +0.000 OA
BRANCH  12  19
ATOM     15  C   UNL     1       5.400   3.849  12.366  0.00  0.00    +0.000 C 
ATOM     16  C   UNL     1       6.133   3.724  13.703  0.00  0.00    +0.000 C 
ATOM     17  C   UNL     1       5.118   3.603  14.853  0.00  0.00    +0.000 C 
ATOM     18  C   UNL     1       5.743   3.810  16.230  0.00  0.00    +0.000 C 
ATOM     19  N   UNL     1       6.553   5.053  16.284  0.00  0.00    +0.000 NA
ATOM     20  C   UNL     1       7.662   4.981  15.294  0.00  0.00    +0.000 C 
ATOM     21  C   UNL     1       7.106   4.903  13.879  0.00  0.00    +0.000 C 
ENDBRANCH  12  19
ENDBRANCH   1  12
BRANCH   7  22
ATOM     22  C   UNL     1       4.214   2.533  19.728  0.00  0.00    +0.000 C 
BRANCH  22  23
ATOM     23  C   UNL     1       3.741   1.589  18.624  0.00  0.00    +0.000 C 
ATOM     24  O   UNL     1       2.785   1.842  17.899  0.00  0.00    +0.000 OA
BRANCH  23  25
ATOM     25  O   UNL     1       4.435   0.438  18.500  0.00  0.00    +0.000 OA
ATOM     26  H   UNL     1       4.197  -0.058  17.695  0.00  0.00    +0.000 HD
ENDBRANCH  23  25
ENDBRANCH  22  23
ENDBRANCH   7  22
TORSDOF 5
ENDMDL
MODEL 3
REMARK VINA RESULT:      -7.2      2.258      7.355
REMARK  Name = 
REMARK  6 active torsions:
REMARK  status: ('A' for Active; 'I' for Inactive)
REMARK    1  A    between atoms: C_1  and  C_2
REMARK    2  A    between atoms: N_5  and  S_6
REMARK    3  A    between atoms: S_6  and  C_9
REMARK    4  A    between atoms: N_15  and  C_16
REMARK    5  A    between atoms: C_16  and  C_17
REMARK    6  A    between atoms: C_17  and  O_19
REMARK                            x       y       z     vdW  Elec       q    Type
REMARK                         _______ _______ _______ _____ _____    ______ ____
ROOT
ATOM      1  C   UNL     1       1.751   8.263  19.860  0.00  0.00    +0.000 A 
ATOM      2  C   UNL     1       2.218   8.697  18.616  0.00  0.00    +0.000 A 
ATOM      3  C   UNL     1       2.886   7.799  17.789  0.00  0.00    +0.000 A 
ATOM      4  C   UNL     1       3.058   6.473  18.191  0.00  0.00    +0.000 A 
ATOM      5  C   UNL     1       2.599   6.025  19.442  0.00  0.00    +0.000 A 
ATOM      6  C   UNL     1       1.925   6.931  20.268  0.00  0.00    +0.000 A 
ATOM      7  N   UNL     1       2.911   4.699  19.859  0.00  0.00    +0.000 N 
ATOM      8  C   UNL     1       3.461   3.804  18.941  0.00  0.00    +0.000 C 
ATOM      9  O   UNL     1       3.824   2.667  19.235  0.00  0.00    +0.000 OA
ATOM     10  C   UNL     1       3.483   4.304  17.503  0.00  0.00    +0.000 C 
ATOM     11  O   UNL     1       3.754   5.682  17.319  0.00  0.00    +0.000 OA
ENDROOT
BRANCH   1  12
ATOM     12  S   UNL     1       0.804   9.369  20.883  0.00  0.00    +0.000 S 
ATOM     13  O   UNL     1       1.576   9.585  22.087  0.00  0.00    +0.000 OA
ATOM     14  O   UNL     1      -0.540   8.836  20.960  0.00  0.00    +0.000 OA
BRANCH  12  19
ATOM     15  C   UNL     1      -2.688  12.619  21.684  0.00  0.00    +0.000 C 
ATOM     16  C   UNL     1      -1.452  12.552  20.783  0.00  0.00    +0.000 C 
ATOM     17  C   UNL     1      -1.616  11.431  19.743  0.00  0.00    +0.000 C 
ATOM     18  C   UNL     1      -0.313  11.077  19.032  0.00  0.00    +0.000 C 
ATOM     19  N   UNL     1       0.790  10.833  19.996  0.00  0.00    +0.000 NA
ATOM     20  C   UNL     1       1.038  12.058  20.803  0.00  0.00    +0.000 C 
ATOM     21  C   UNL     1      -0.187  12.397  21.642  0.00  0.00    +0.000 C 
ENDBRANCH  12  19
ENDBRANCH   1  12
BRANCH   7  22
ATOM     22  C   UNL     1       2.605   4.209  21.213  0.00  0.00    +0.000 C 
BRANCH  22  23
ATOM     23  C   UNL     1       1.454   3.213  21.346  0.00  0.00    +0.000 C 
ATOM     24  O   UNL     1       1.432   2.334  22.200  0.00  0.00    +0.000 OA
BRANCH  23  25
ATOM     25  O   UNL     1       0.456   3.349  20.448  0.00  0.00    +0.000 OA
ATOM     26  H   UNL     1      -0.119   2.562  20.405  0.00  0.00    +0.000 HD
ENDBRANCH  23  25
ENDBRANCH  22  23
ENDBRANCH   7  22
TORSDOF 5
ENDMDL
MODEL 4
REMARK VINA RESULT:      -6.9      2.232      7.265
REMARK  Name = 
REMARK  6 active torsions:
REMARK  status: ('A' for Active; 'I' for Inactive)
REMARK    1  A    between atoms: C_1  and  C_2
REMARK    2  A    between atoms: N_5  and  S_6
REMARK    3  A    between atoms: S_6  and  C_9
REMARK    4  A    between atoms: N_15  and  C_16
REMARK    5  A    between atoms: C_16  and  C_17
REMARK    6  A    between atoms: C_17  and  O_19
REMARK                            x       y       z     vdW  Elec       q    Type
REMARK                         _______ _______ _______ _____ _____    ______ ____
ROOT
ATOM      1  C   UNL     1       1.401   8.170  19.576  0.00  0.00    +0.000 A 
ATOM      2  C   UNL     1       2.053   8.643  18.435  0.00  0.00    +0.000 A 
ATOM      3  C   UNL     1       3.029   7.854  17.833  0.00  0.00    +0.000 A 
ATOM      4  C   UNL     1       3.327   6.593  18.353  0.00  0.00    +0.000 A 
ATOM      5  C   UNL     1       2.682   6.108  19.505  0.00  0.00    +0.000 A 
ATOM      6  C   UNL     1       1.699   6.904  20.103  0.00  0.00    +0.000 A 
ATOM      7  N   UNL     1       3.111   4.871  20.069  0.00  0.00    +0.000 N 
ATOM      8  C   UNL     1       3.994   4.061  19.354  0.00  0.00    +0.000 C 
ATOM      9  O   UNL     1       4.467   3.017  19.795  0.00  0.00    +0.000 OA
ATOM     10  C   UNL     1       4.251   4.514  17.922  0.00  0.00    +0.000 C 
ATOM     11  O   UNL     1       4.323   5.912  17.707  0.00  0.00    +0.000 OA
ENDROOT
BRANCH   1  12
ATOM     12  S   UNL     1       0.079   9.120  20.295  0.00  0.00    +0.000 S 
ATOM     13  O   UNL     1      -0.744   8.192  21.038  0.00  0.00    +0.000 OA
ATOM     14  O   UNL     1      -0.496   9.923  19.236  0.00  0.00    +0.000 OA
BRANCH  12  19
ATOM     15  C   UNL     1      -2.522  12.097  23.082  0.00  0.00    +0.000 C 
ATOM     16  C   UNL     1      -1.035  11.765  22.941  0.00  0.00    +0.000 C 
ATOM     17  C   UNL     1      -0.527  12.196  21.554  0.00  0.00    +0.000 C 
ATOM     18  C   UNL     1       0.838  11.607  21.206  0.00  0.00    +0.000 C 
ATOM     19  N   UNL     1       0.873  10.139  21.419  0.00  0.00    +0.000 NA
ATOM     20  C   UNL     1       0.602   9.826  22.848  0.00  0.00    +0.000 C 
ATOM     21  C   UNL     1      -0.803  10.273  23.231  0.00  0.00    +0.000 C 
ENDBRANCH  12  19
ENDBRANCH   1  12
BRANCH   7  22
ATOM     22  C   UNL     1       2.597   4.376  21.356  0.00  0.00    +0.000 C 
BRANCH  22  23
ATOM     23  C   UNL     1       1.518   3.296  21.301  0.00  0.00    +0.000 C 
ATOM     24  O   UNL     1       1.506   2.332  22.058  0.00  0.00    +0.000 OA
BRANCH  23  25
ATOM     25  O   UNL     1       0.574   3.458  20.351  0.00  0.00    +0.000 OA
ATOM     26  H   UNL     1       0.812   3.026  19.509  0.00  0.00    +0.000 HD
ENDBRANCH  23  25
ENDBRANCH  22  23
ENDBRANCH   7  22
TORSDOF 5
ENDMDL
MODEL 5
REMARK VINA RESULT:      -6.9      1.161      1.812
REMARK  Name = 
REMARK  6 active torsions:
REMARK  status: ('A' for Active; 'I' for Inactive)
REMARK    1  A    between atoms: C_1  and  C_2
REMARK    2  A    between atoms: N_5  and  S_6
REMARK    3  A    between atoms: S_6  and  C_9
REMARK    4  A    between atoms: N_15  and  C_16
REMARK    5  A    between atoms: C_16  and  C_17
REMARK    6  A    between atoms: C_17  and  O_19
REMARK                            x       y       z     vdW  Elec       q    Type
REMARK                         _______ _______ _______ _____ _____    ______ ____
ROOT
ATOM      1  C   UNL     1       2.899   7.026  18.734  0.00  0.00    +0.000 A 
ATOM      2  C   UNL     1       3.002   7.650  17.488  0.00  0.00    +0.000 A 
ATOM      3  C   UNL     1       2.308   8.836  17.263  0.00  0.00    +0.000 A 
ATOM      4  C   UNL     1       1.545   9.404  18.285  0.00  0.00    +0.000 A 
ATOM      5  C   UNL     1       1.430   8.783  19.540  0.00  0.00    +0.000 A 
ATOM      6  C   UNL     1       2.131   7.593  19.762  0.00  0.00    +0.000 A 
ATOM      7  N   UNL     1       0.539   9.335  20.506  0.00  0.00    +0.000 N 
ATOM      8  C   UNL     1      -0.023  10.592  20.280  0.00  0.00    +0.000 C 
ATOM      9  O   UNL     1      -0.853  11.109  21.024  0.00  0.00    +0.000 OA
ATOM     10  C   UNL     1       0.552  11.337  19.082  0.00  0.00    +0.000 C 
ATOM     11  O   UNL     1       0.880  10.552  17.950  0.00  0.00    +0.000 OA
ENDROOT
BRANCH   1  12
ATOM     12  S   UNL     1       3.861   5.566  19.071  0.00  0.00    +0.000 S 
ATOM     13  O   UNL     1       3.800   5.349  20.499  0.00  0.00    +0.000 OA
ATOM     14  O   UNL     1       5.138   5.733  18.410  0.00  0.00    +0.000 OA
BRANCH  12  19
ATOM     15  C   UNL     1       1.377   2.406  21.761  0.00  0.00    +0.000 C 
ATOM     16  C   UNL     1       1.584   2.628  20.261  0.00  0.00    +0.000 C 
ATOM     17  C   UNL     1       3.058   2.389  19.890  0.00  0.00    +0.000 C 
ATOM     18  C   UNL     1       3.419   2.907  18.501  0.00  0.00    +0.000 C 
ATOM     19  N   UNL     1       2.980   4.312  18.308  0.00  0.00    +0.000 NA
ATOM     20  C   UNL     1       1.502   4.408  18.452  0.00  0.00    +0.000 C 
ATOM     21  C   UNL     1       1.082   4.026  19.865  0.00  0.00    +0.000 C 
ENDBRANCH  12  19
ENDBRANCH   1  12
BRANCH   7  22
ATOM     22  C   UNL     1       0.243   8.658  21.778  0.00  0.00    +0.000 C 
BRANCH  22  23
ATOM     23  C   UNL     1       0.879   9.243  23.039  0.00  0.00    +0.000 C 
ATOM     24  O   UNL     1       0.217   9.670  23.978  0.00  0.00    +0.000 OA
BRANCH  23  25
ATOM     25  O   UNL     1       2.227   9.278  23.053  0.00  0.00    +0.000 OA
ATOM     26  H   UNL     1       2.609   9.376  22.160  0.00  0.00    +0.000 HD
ENDBRANCH  23  25
ENDBRANCH  22  23
ENDBRANCH   7  22
TORSDOF 5
ENDMDL
MODEL 6
REMARK VINA RESULT:      -6.8      3.788      6.922
REMARK  Name = 
REMARK  6 active torsions:
REMARK  status: ('A' for Active; 'I' for Inactive)
REMARK    1  A    between atoms: C_1  and  C_2
REMARK    2  A    between atoms: N_5  and  S_6
REMARK    3  A    between atoms: S_6  and  C_9
REMARK    4  A    between atoms: N_15  and  C_16
REMARK    5  A    between atoms: C_16  and  C_17
REMARK    6  A    between atoms: C_17  and  O_19
REMARK                            x       y       z     vdW  Elec       q    Type
REMARK                         _______ _______ _______ _____ _____    ______ ____
ROOT
ATOM      1  C   UNL     1       4.230   6.314  17.317  0.00  0.00    +0.000 A 
ATOM      2  C   UNL     1       3.668   7.482  17.840  0.00  0.00    +0.000 A 
ATOM      3  C   UNL     1       2.719   7.385  18.854  0.00  0.00    +0.000 A 
ATOM      4  C   UNL     1       2.359   6.134  19.357  0.00  0.00    +0.000 A 
ATOM      5  C   UNL     1       2.913   4.951  18.836  0.00  0.00    +0.000 A 
ATOM      6  C   UNL     1       3.869   5.055  17.820  0.00  0.00    +0.000 A 
ATOM      7  N   UNL     1       2.420   3.696  19.295  0.00  0.00    +0.000 N 
ATOM      8  C   UNL     1       1.572   3.656  20.402  0.00  0.00    +0.000 C 
ATOM      9  O   UNL     1       1.047   2.626  20.820  0.00  0.00    +0.000 OA
ATOM     10  C   UNL     1       1.423   4.984  21.135  0.00  0.00    +0.000 C 
ATOM     11  O   UNL     1       1.396   6.147  20.329  0.00  0.00    +0.000 OA
ENDROOT
BRANCH   1  12
ATOM     12  S   UNL     1       5.520   6.426  16.096  0.00  0.00    +0.000 S 
ATOM     13  O   UNL     1       6.581   7.213  16.682  0.00  0.00    +0.000 OA
ATOM     14  O   UNL     1       4.899   6.840  14.855  0.00  0.00    +0.000 OA
BRANCH  12  19
ATOM     15  C   UNL     1       7.190   4.859  11.835  0.00  0.00    +0.000 C 
ATOM     16  C   UNL     1       7.040   4.252  13.232  0.00  0.00    +0.000 C 
ATOM     17  C   UNL     1       5.551   4.145  13.604  0.00  0.00    +0.000 C 
ATOM     18  C   UNL     1       5.321   3.869  15.088  0.00  0.00    +0.000 C 
ATOM     19  N   UNL     1       6.079   4.814  15.946  0.00  0.00    +0.000 NA
ATOM     20  C   UNL     1       7.537   4.679  15.685  0.00  0.00    +0.000 C 
ATOM     21  C   UNL     1       7.858   5.067  14.247  0.00  0.00    +0.000 C 
ENDBRANCH  12  19
ENDBRANCH   1  12
BRANCH   7  22
ATOM     22  C   UNL     1       2.834   2.421  18.688  0.00  0.00    +0.000 C 
BRANCH  22  23
ATOM     23  C   UNL     1       4.098   1.766  19.243  0.00  0.00    +0.000 C 
ATOM     24  O   UNL     1       4.766   2.269  20.140  0.00  0.00    +0.000 OA
BRANCH  23  25
ATOM     25  O   UNL     1       4.449   0.595  18.673  0.00  0.00    +0.000 OA
ATOM     26  H   UNL     1       4.392   0.620  17.699  0.00  0.00    +0.000 HD
ENDBRANCH  23  25
ENDBRANCH  22  23
ENDBRANCH   7  22
TORSDOF 5
ENDMDL
MODEL 7
REMARK VINA RESULT:      -6.7      1.151      1.632
REMARK  Name = 
REMARK  6 active torsions:
REMARK  status: ('A' for Active; 'I' for Inactive)
REMARK    1  A    between atoms: C_1  and  C_2
REMARK    2  A    between atoms: N_5  and  S_6
REMARK    3  A    between atoms: S_6  and  C_9
REMARK    4  A    between atoms: N_15  and  C_16
REMARK    5  A    between atoms: C_16  and  C_17
REMARK    6  A    between atoms: C_17  and  O_19
REMARK                            x       y       z     vdW  Elec       q    Type
REMARK                         _______ _______ _______ _____ _____    ______ ____
ROOT
ATOM      1  C   UNL     1       3.033   6.817  19.002  0.00  0.00    +0.000 A 
ATOM      2  C   UNL     1       3.346   7.421  17.782  0.00  0.00    +0.000 A 
ATOM      3  C   UNL     1       2.740   8.628  17.445  0.00  0.00    +0.000 A 
ATOM      4  C   UNL     1       1.852   9.236  18.335  0.00  0.00    +0.000 A 
ATOM      5  C   UNL     1       1.525   8.635  19.563  0.00  0.00    +0.000 A 
ATOM      6  C   UNL     1       2.139   7.424  19.898  0.00  0.00    +0.000 A 
ATOM      7  N   UNL     1       0.518   9.232  20.378  0.00  0.00    +0.000 N 
ATOM      8  C   UNL     1       0.045  10.505  20.060  0.00  0.00    +0.000 C 
ATOM      9  O   UNL     1      -0.868  11.061  20.666  0.00  0.00    +0.000 OA
ATOM     10  C   UNL     1       0.822  11.213  18.958  0.00  0.00    +0.000 C 
ATOM     11  O   UNL     1       1.289  10.403  17.895  0.00  0.00    +0.000 OA
ENDROOT
BRANCH   1  12
ATOM     12  S   UNL     1       3.877   5.328  19.492  0.00  0.00    +0.000 S 
ATOM     13  O   UNL     1       3.090   4.732  20.548  0.00  0.00    +0.000 OA
ATOM     14  O   UNL     1       5.263   5.679  19.721  0.00  0.00    +0.000 OA
BRANCH  12  19
ATOM     15  C   UNL     1       0.509   1.861  19.341  0.00  0.00    +0.000 C 
ATOM     16  C   UNL     1       1.585   2.371  18.381  0.00  0.00    +0.000 C 
ATOM     17  C   UNL     1       2.983   2.113  18.969  0.00  0.00    +0.000 C 
ATOM     18  C   UNL     1       4.089   2.879  18.248  0.00  0.00    +0.000 C 
ATOM     19  N   UNL     1       3.760   4.321  18.113  0.00  0.00    +0.000 NA
ATOM     20  C   UNL     1       2.511   4.485  17.322  0.00  0.00    +0.000 C 
ATOM     21  C   UNL     1       1.334   3.851  18.051  0.00  0.00    +0.000 C 
ENDBRANCH  12  19
ENDBRANCH   1  12
BRANCH   7  22
ATOM     22  C   UNL     1       0.009   8.582  21.596  0.00  0.00    +0.000 C 
BRANCH  22  23
ATOM     23  C   UNL     1       0.149   9.357  22.905  0.00  0.00    +0.000 C 
ATOM     24  O   UNL     1       1.232   9.565  23.440  0.00  0.00    +0.000 OA
BRANCH  23  25
ATOM     25  O   UNL     1      -1.005   9.792  23.454  0.00  0.00    +0.000 OA
ATOM     26  H   UNL     1      -1.791   9.380  23.050  0.00  0.00    +0.000 HD
ENDBRANCH  23  25
ENDBRANCH  22  23
ENDBRANCH   7  22
TORSDOF 5
ENDMDL
MODEL 8
REMARK VINA RESULT:      -6.5      5.025      8.527
REMARK  Name = 
REMARK  6 active torsions:
REMARK  status: ('A' for Active; 'I' for Inactive)
REMARK    1  A    between atoms: C_1  and  C_2
REMARK    2  A    between atoms: N_5  and  S_6
REMARK    3  A    between atoms: S_6  and  C_9
REMARK    4  A    between atoms: N_15  and  C_16
REMARK    5  A    between atoms: C_16  and  C_17
REMARK    6  A    between atoms: C_17  and  O_19
REMARK                            x       y       z     vdW  Elec       q    Type
REMARK                         _______ _______ _______ _____ _____    ______ ____
ROOT
ATOM      1  C   UNL     1       4.989   5.264  17.097  0.00  0.00    +0.000 A 
ATOM      2  C   UNL     1       6.131   5.971  17.480  0.00  0.00    +0.000 A 
ATOM      3  C   UNL     1       7.199   6.069  16.594  0.00  0.00    +0.000 A 
ATOM      4  C   UNL     1       7.112   5.490  15.326  0.00  0.00    +0.000 A 
ATOM      5  C   UNL     1       5.971   4.771  14.931  0.00  0.00    +0.000 A 
ATOM      6  C   UNL     1       4.898   4.678  15.825  0.00  0.00    +0.000 A 
ATOM      7  N   UNL     1       5.981   4.091  13.678  0.00  0.00    +0.000 N 
ATOM      8  C   UNL     1       7.017   4.334  12.776  0.00  0.00    +0.000 C 
ATOM      9  O   UNL     1       7.141   3.740  11.707  0.00  0.00    +0.000 OA
ATOM     10  C   UNL     1       7.942   5.480  13.165  0.00  0.00    +0.000 C 
ATOM     11  O   UNL     1       8.228   5.618  14.545  0.00  0.00    +0.000 OA
ENDROOT
BRANCH   1  12
ATOM     12  S   UNL     1       3.574   5.218  18.177  0.00  0.00    +0.000 S 
ATOM     13  O   UNL     1       2.681   6.266  17.737  0.00  0.00    +0.000 OA
ATOM     14  O   UNL     1       4.075   5.203  19.535  0.00  0.00    +0.000 OA
BRANCH  12  19
ATOM     15  C   UNL     1       1.569   2.632  21.739  0.00  0.00    +0.000 C 
ATOM     16  C   UNL     1       1.711   2.466  20.224  0.00  0.00    +0.000 C 
ATOM     17  C   UNL     1       3.193   2.306  19.846  0.00  0.00    +0.000 C 
ATOM     18  C   UNL     1       3.454   2.471  18.351  0.00  0.00    +0.000 C 
ATOM     19  N   UNL     1       2.839   3.714  17.821  0.00  0.00    +0.000 NA
ATOM     20  C   UNL     1       1.364   3.675  18.018  0.00  0.00    +0.000 C 
ATOM     21  C   UNL     1       1.028   3.641  19.503  0.00  0.00    +0.000 C 
ENDBRANCH  12  19
ENDBRANCH   1  12
BRANCH   7  22
ATOM     22  C   UNL     1       4.893   3.191  13.265  0.00  0.00    +0.000 C 
BRANCH  22  23
ATOM     23  C   UNL     1       4.677   3.009  11.763  0.00  0.00    +0.000 C 
ATOM     24  O   UNL     1       4.034   3.801  11.085  0.00  0.00    +0.000 OA
BRANCH  23  25
ATOM     25  O   UNL     1       5.230   1.903  11.222  0.00  0.00    +0.000 OA
ATOM     26  H   UNL     1       6.198   1.873  11.339  0.00  0.00    +0.000 HD
ENDBRANCH  23  25
ENDBRANCH  22  23
ENDBRANCH   7  22
TORSDOF 5
ENDMDL
MODEL 9
REMARK VINA RESULT:      -6.5      4.245      7.045
REMARK  Name = 
REMARK  6 active torsions:
REMARK  status: ('A' for Active; 'I' for Inactive)
REMARK    1  A    between atoms: C_1  and  C_2
REMARK    2  A    between atoms: N_5  and  S_6
REMARK    3  A    between atoms: S_6  and  C_9
REMARK    4  A    between atoms: N_15  and  C_16
REMARK    5  A    between atoms: C_16  and  C_17
REMARK    6  A    between atoms: C_17  and  O_19
REMARK                            x       y       z     vdW  Elec       q    Type
REMARK                         _______ _______ _______ _____ _____    ______ ____
ROOT
ATOM      1  C   UNL     1       5.289   5.088  16.601  0.00  0.00    +0.000 A 
ATOM      2  C   UNL     1       5.125   6.475  16.629  0.00  0.00    +0.000 A 
ATOM      3  C   UNL     1       4.172   7.030  17.478  0.00  0.00    +0.000 A 
ATOM      4  C   UNL     1       3.413   6.206  18.311  0.00  0.00    +0.000 A 
ATOM      5  C   UNL     1       3.564   4.809  18.288  0.00  0.00    +0.000 A 
ATOM      6  C   UNL     1       4.525   4.256  17.435  0.00  0.00    +0.000 A 
ATOM      7  N   UNL     1       2.678   4.005  19.062  0.00  0.00    +0.000 N 
ATOM      8  C   UNL     1       1.836   4.614  19.994  0.00  0.00    +0.000 C 
ATOM      9  O   UNL     1       0.995   4.005  20.650  0.00  0.00    +0.000 OA
ATOM     10  C   UNL     1       2.111   6.095  20.222  0.00  0.00    +0.000 C 
ATOM     11  O   UNL     1       2.484   6.849  19.083  0.00  0.00    +0.000 OA
ENDROOT
BRANCH   1  12
ATOM     12  S   UNL     1       6.573   4.370  15.599  0.00  0.00    +0.000 S 
ATOM     13  O   UNL     1       6.210   2.987  15.386  0.00  0.00    +0.000 OA
ATOM     14  O   UNL     1       7.837   4.710  16.218  0.00  0.00    +0.000 OA
BRANCH  12  19
ATOM     15  C   UNL     1       6.026   1.830  11.520  0.00  0.00    +0.000 C 
ATOM     16  C   UNL     1       6.080   3.318  11.873  0.00  0.00    +0.000 C 
ATOM     17  C   UNL     1       7.472   3.682  12.417  0.00  0.00    +0.000 C 
ATOM     18  C   UNL     1       7.512   5.047  13.099  0.00  0.00    +0.000 C 
ATOM     19  N   UNL     1       6.429   5.191  14.103  0.00  0.00    +0.000 NA
ATOM     20  C   UNL     1       5.102   5.059  13.442  0.00  0.00    +0.000 C 
ATOM     21  C   UNL     1       4.942   3.666  12.848  0.00  0.00    +0.000 C 
ENDBRANCH  12  19
ENDBRANCH   1  12
BRANCH   7  22
ATOM     22  C   UNL     1       2.668   2.536  18.970  0.00  0.00    +0.000 C 
BRANCH  22  23
ATOM     23  C   UNL     1       3.952   1.808  19.366  0.00  0.00    +0.000 C 
ATOM     24  O   UNL     1       4.653   2.164  20.306  0.00  0.00    +0.000 OA
BRANCH  23  25
ATOM     25  O   UNL     1       4.282   0.746  18.602  0.00  0.00    +0.000 OA
ATOM     26  H   UNL     1       4.652   0.010  19.124  0.00  0.00    +0.000 HD
ENDBRANCH  23  25
ENDBRANCH  22  23
ENDBRANCH   7  22
TORSDOF 5
ENDMDL
