MODEL 1
REMARK VINA RESULT:      -6.9      0.000      0.000
REMARK  Name = 
REMARK  9 active torsions:
REMARK  status: ('A' for Active; 'I' for Inactive)
REMARK    1  A    between atoms: C_1  and  C_2
REMARK    2  A    between atoms: C_2  and  C_3
REMARK    3  A    between atoms: C_2  and  O_4
REMARK    4  A    between atoms: C_2  and  C_5
REMARK    5  A    between atoms: C_8  and  C_9
REMARK    6  A    between atoms: C_13  and  O_14
REMARK    7  A    between atoms: C_16  and  O_17
REMARK    8  A    between atoms: C_18  and  C_19
REMARK    9  A    between atoms: C_19  and  C_21
REMARK                            x       y       z     vdW  Elec       q    Type
REMARK                         _______ _______ _______ _____ _____    ______ ____
ROOT
ATOM      1  C   UNL     1       2.257   3.191  19.691  0.00  0.00    +0.000 C 
ATOM      2  C   UNL     1       3.550   2.629  20.305  0.00  0.00    +0.000 C 
ATOM      3  C   UNL     1       4.675   2.442  19.310  0.00  0.00    +0.000 C 
ATOM      4  C   UNL     1       4.225   2.143  17.849  0.00  0.00    +0.000 C 
ATOM      5  C   UNL     1       4.482   0.667  17.542  0.00  0.00    +0.000 C 
ATOM      6  C   UNL     1       2.777   2.457  17.447  0.00  0.00    +0.000 C 
ATOM      7  C   UNL     1       2.410   3.723  18.218  0.00  0.00    +0.000 C 
ATOM      8  C   UNL     1       3.470   4.757  17.812  0.00  0.00    +0.000 A 
ATOM      9  C   UNL     1       3.279   6.130  17.967  0.00  0.00    +0.000 A 
ATOM     10  C   UNL     1       4.264   7.050  17.603  0.00  0.00    +0.000 A 
ATOM     11  C   UNL     1       5.408   6.629  16.928  0.00  0.00    +0.000 A 
ATOM     12  C   UNL     1       5.605   5.275  16.634  0.00  0.00    +0.000 A 
ATOM     13  C   UNL     1       4.676   4.345  17.148  0.00  0.00    +0.000 A 
ATOM     14  O   UNL     1       5.017   2.998  17.010  0.00  0.00    +0.000 OA
ENDROOT
BRANCH   1  16
ATOM     15  C   UNL     1       1.766   5.313  21.117  0.00  0.00    +0.000 C 
ATOM     16  C   UNL     1       1.328   3.913  20.701  0.00  0.00    +0.000 C 
ATOM     17  C   UNL     1       1.190   3.042  21.975  0.00  0.00    +0.000 C 
BRANCH  16  18
ATOM     18  O   UNL     1       0.035   4.011  20.091  0.00  0.00    +0.000 OA
ATOM     19  H   UNL     1      -0.088   3.229  19.525  0.00  0.00    +0.000 HD
ENDBRANCH  16  18
ENDBRANCH   1  16
BRANCH   9  20
ATOM     20  O   UNL     1       2.118   6.683  18.408  0.00  0.00    +0.000 OA
ATOM     21  H   UNL     1       1.902   6.336  19.293  0.00  0.00    +0.000 HD
ENDBRANCH   9  20
BRANCH  11  22
ATOM     22  O   UNL     1       6.305   7.577  16.522  0.00  0.00    +0.000 OA
ATOM     23  H   UNL     1       6.883   7.815  17.266  0.00  0.00    +0.000 HD
ENDBRANCH  11  22
BRANCH  12  24
ATOM     24  C   UNL     1       6.811   4.838  15.865  0.00  0.00    +0.000 C 
ATOM     25  O   UNL     1       7.873   4.650  16.459  0.00  0.00    +0.000 OA
BRANCH  24  26
ATOM     26  C   UNL     1       6.776   4.587  14.391  0.00  0.00    +0.000 A 
ATOM     27  C   UNL     1       7.704   5.264  13.585  0.00  0.00    +0.000 A 
ATOM     28  C   UNL     1       7.766   5.030  12.211  0.00  0.00    +0.000 A 
ATOM     29  C   UNL     1       6.897   4.111  11.627  0.00  0.00    +0.000 A 
ATOM     30  C   UNL     1       5.950   3.454  12.408  0.00  0.00    +0.000 A 
ATOM     31  C   UNL     1       5.874   3.702  13.783  0.00  0.00    +0.000 A 
ENDBRANCH  24  26
ENDBRANCH  12  24
TORSDOF 6
ENDMDL
MODEL 2
REMARK VINA RESULT:      -6.8      7.571     10.075
REMARK  Name = 
REMARK  9 active torsions:
REMARK  status: ('A' for Active; 'I' for Inactive)
REMARK    1  A    between atoms: C_1  and  C_2
REMARK    2  A    between atoms: C_2  and  C_3
REMARK    3  A    between atoms: C_2  and  O_4
REMARK    4  A    between atoms: C_2  and  C_5
REMARK    5  A    between atoms: C_8  and  C_9
REMARK    6  A    between atoms: C_13  and  O_14
REMARK    7  A    between atoms: C_16  and  O_17
REMARK    8  A    between atoms: C_18  and  C_19
REMARK    9  A    between atoms: C_19  and  C_21
REMARK                            x       y       z     vdW  Elec       q    Type
REMARK                         _______ _______ _______ _____ _____    ______ ____
ROOT
ATOM      1  C   UNL     1      -5.370  10.871  18.529  0.00  0.00    +0.000 C 
ATOM      2  C   UNL     1      -4.829   9.433  18.482  0.00  0.00    +0.000 C 
ATOM      3  C   UNL     1      -3.387   9.331  18.034  0.00  0.00    +0.000 C 
ATOM      4  C   UNL     1      -2.914  10.452  17.061  0.00  0.00    +0.000 C 
ATOM      5  C   UNL     1      -2.789   9.868  15.654  0.00  0.00    +0.000 C 
ATOM      6  C   UNL     1      -3.747  11.737  16.960  0.00  0.00    +0.000 C 
ATOM      7  C   UNL     1      -4.274  11.988  18.371  0.00  0.00    +0.000 C 
ATOM      8  C   UNL     1      -3.021  12.056  19.256  0.00  0.00    +0.000 A 
ATOM      9  C   UNL     1      -3.021  12.657  20.515  0.00  0.00    +0.000 A 
ATOM     10  C   UNL     1      -1.872  12.694  21.307  0.00  0.00    +0.000 A 
ATOM     11  C   UNL     1      -0.648  12.267  20.795  0.00  0.00    +0.000 A 
ATOM     12  C   UNL     1      -0.557  11.763  19.493  0.00  0.00    +0.000 A 
ATOM     13  C   UNL     1      -1.754  11.588  18.767  0.00  0.00    +0.000 A 
ATOM     14  O   UNL     1      -1.642  10.895  17.559  0.00  0.00    +0.000 OA
ENDROOT
BRANCH   1  16
ATOM     15  C   UNL     1      -7.462   9.851  19.694  0.00  0.00    +0.000 C 
ATOM     16  C   UNL     1      -6.574  11.073  19.485  0.00  0.00    +0.000 C 
ATOM     17  C   UNL     1      -7.453  12.234  18.957  0.00  0.00    +0.000 C 
BRANCH  16  18
ATOM     18  O   UNL     1      -6.044  11.464  20.757  0.00  0.00    +0.000 OA
ATOM     19  H   UNL     1      -5.665  12.355  20.662  0.00  0.00    +0.000 HD
ENDBRANCH  16  18
ENDBRANCH   1  16
BRANCH   9  20
ATOM     20  O   UNL     1      -4.095  13.308  21.038  0.00  0.00    +0.000 OA
ATOM     21  H   UNL     1      -3.926  14.269  21.049  0.00  0.00    +0.000 HD
ENDBRANCH   9  20
BRANCH  11  22
ATOM     22  O   UNL     1       0.462  12.397  21.582  0.00  0.00    +0.000 OA
ATOM     23  H   UNL     1       0.553  13.324  21.861  0.00  0.00    +0.000 HD
ENDBRANCH  11  22
BRANCH  12  24
ATOM     24  C   UNL     1       0.769  11.354  18.934  0.00  0.00    +0.000 C 
ATOM     25  O   UNL     1       1.500  12.203  18.424  0.00  0.00    +0.000 OA
BRANCH  24  26
ATOM     26  C   UNL     1       1.266   9.944  18.995  0.00  0.00    +0.000 A 
ATOM     27  C   UNL     1       1.881   9.412  17.852  0.00  0.00    +0.000 A 
ATOM     28  C   UNL     1       2.421   8.125  17.861  0.00  0.00    +0.000 A 
ATOM     29  C   UNL     1       2.351   7.356  19.020  0.00  0.00    +0.000 A 
ATOM     30  C   UNL     1       1.717   7.858  20.154  0.00  0.00    +0.000 A 
ATOM     31  C   UNL     1       1.159   9.141  20.140  0.00  0.00    +0.000 A 
ENDBRANCH  24  26
ENDBRANCH  12  24
TORSDOF 6
ENDMDL
MODEL 3
REMARK VINA RESULT:      -6.7      8.370     11.744
REMARK  Name = 
REMARK  9 active torsions:
REMARK  status: ('A' for Active; 'I' for Inactive)
REMARK    1  A    between atoms: C_1  and  C_2
REMARK    2  A    between atoms: C_2  and  C_3
REMARK    3  A    between atoms: C_2  and  O_4
REMARK    4  A    between atoms: C_2  and  C_5
REMARK    5  A    between atoms: C_8  and  C_9
REMARK    6  A    between atoms: C_13  and  O_14
REMARK    7  A    between atoms: C_16  and  O_17
REMARK    8  A    between atoms: C_18  and  C_19
REMARK    9  A    between atoms: C_19  and  C_21
REMARK                            x       y       z     vdW  Elec       q    Type
REMARK                         _______ _______ _______ _____ _____    ______ ____
ROOT
ATOM      1  C   UNL     1       1.806  16.382  20.360  0.00  0.00    +0.000 C 
ATOM      2  C   UNL     1       1.466  15.733  21.711  0.00  0.00    +0.000 C 
ATOM      3  C   UNL     1       0.388  14.674  21.635  0.00  0.00    +0.000 C 
ATOM      4  C   UNL     1      -0.661  14.878  20.500  0.00  0.00    +0.000 C 
ATOM      5  C   UNL     1      -1.976  15.351  21.119  0.00  0.00    +0.000 C 
ATOM      6  C   UNL     1      -0.319  15.830  19.346  0.00  0.00    +0.000 C 
ATOM      7  C   UNL     1       1.180  15.658  19.111  0.00  0.00    +0.000 C 
ATOM      8  C   UNL     1       1.370  14.159  18.837  0.00  0.00    +0.000 A 
ATOM      9  C   UNL     1       2.496  13.649  18.191  0.00  0.00    +0.000 A 
ATOM     10  C   UNL     1       2.651  12.280  17.965  0.00  0.00    +0.000 A 
ATOM     11  C   UNL     1       1.610  11.397  18.242  0.00  0.00    +0.000 A 
ATOM     12  C   UNL     1       0.405  11.861  18.782  0.00  0.00    +0.000 A 
ATOM     13  C   UNL     1       0.326  13.221  19.148  0.00  0.00    +0.000 A 
ATOM     14  O   UNL     1      -0.810  13.597  19.867  0.00  0.00    +0.000 OA
ENDROOT
BRANCH   1  16
ATOM     15  C   UNL     1       4.354  16.144  20.829  0.00  0.00    +0.000 C 
ATOM     16  C   UNL     1       3.222  17.008  20.286  0.00  0.00    +0.000 C 
ATOM     17  C   UNL     1       3.222  18.355  21.049  0.00  0.00    +0.000 C 
BRANCH  16  18
ATOM     18  O   UNL     1       3.492  17.282  18.905  0.00  0.00    +0.000 OA
ATOM     19  H   UNL     1       2.639  17.410  18.454  0.00  0.00    +0.000 HD
ENDBRANCH  16  18
ENDBRANCH   1  16
BRANCH   9  20
ATOM     20  O   UNL     1       3.482  14.428  17.672  0.00  0.00    +0.000 OA
ATOM     21  H   UNL     1       3.504  15.286  18.135  0.00  0.00    +0.000 HD
ENDBRANCH   9  20
BRANCH  11  22
ATOM     22  O   UNL     1       1.782  10.077  17.930  0.00  0.00    +0.000 OA
ATOM     23  H   UNL     1       1.762   9.547  18.744  0.00  0.00    +0.000 HD
ENDBRANCH  11  22
BRANCH  12  24
ATOM     24  C   UNL     1      -0.725  10.913  19.029  0.00  0.00    +0.000 C 
ATOM     25  O   UNL     1      -0.732  10.232  20.054  0.00  0.00    +0.000 OA
BRANCH  24  26
ATOM     26  C   UNL     1      -1.879  10.776  18.087  0.00  0.00    +0.000 A 
ATOM     27  C   UNL     1      -3.021  11.555  18.324  0.00  0.00    +0.000 A 
ATOM     28  C   UNL     1      -4.108  11.520  17.450  0.00  0.00    +0.000 A 
ATOM     29  C   UNL     1      -4.061  10.702  16.323  0.00  0.00    +0.000 A 
ATOM     30  C   UNL     1      -2.947   9.900  16.089  0.00  0.00    +0.000 A 
ATOM     31  C   UNL     1      -1.865   9.920  16.976  0.00  0.00    +0.000 A 
ENDBRANCH  24  26
ENDBRANCH  12  24
TORSDOF 6
ENDMDL
MODEL 4
REMARK VINA RESULT:      -6.7      8.562     11.475
REMARK  Name = 
REMARK  9 active torsions:
REMARK  status: ('A' for Active; 'I' for Inactive)
REMARK    1  A    between atoms: C_1  and  C_2
REMARK    2  A    between atoms: C_2  and  C_3
REMARK    3  A    between atoms: C_2  and  O_4
REMARK    4  A    between atoms: C_2  and  C_5
REMARK    5  A    between atoms: C_8  and  C_9
REMARK    6  A    between atoms: C_13  and  O_14
REMARK    7  A    between atoms: C_16  and  O_17
REMARK    8  A    between atoms: C_18  and  C_19
REMARK    9  A    between atoms: C_19  and  C_21
REMARK                            x       y       z     vdW  Elec       q    Type
REMARK                         _______ _______ _______ _____ _____    ______ ____
ROOT
ATOM      1  C   UNL     1      -4.567  14.506  21.228  0.00  0.00    +0.000 C 
ATOM      2  C   UNL     1      -3.465  15.531  20.913  0.00  0.00    +0.000 C 
ATOM      3  C   UNL     1      -2.072  14.942  20.851  0.00  0.00    +0.000 C 
ATOM      4  C   UNL     1      -1.841  13.692  21.752  0.00  0.00    +0.000 C 
ATOM      5  C   UNL     1      -0.991  14.098  22.956  0.00  0.00    +0.000 C 
ATOM      6  C   UNL     1      -3.065  12.931  22.281  0.00  0.00    +0.000 C 
ATOM      7  C   UNL     1      -4.101  13.005  21.162  0.00  0.00    +0.000 C 
ATOM      8  C   UNL     1      -3.403  12.403  19.934  0.00  0.00    +0.000 A 
ATOM      9  C   UNL     1      -4.106  11.918  18.831  0.00  0.00    +0.000 A 
ATOM     10  C   UNL     1      -3.448  11.388  17.720  0.00  0.00    +0.000 A 
ATOM     11  C   UNL     1      -2.069  11.185  17.748  0.00  0.00    +0.000 A 
ATOM     12  C   UNL     1      -1.319  11.539  18.874  0.00  0.00    +0.000 A 
ATOM     13  C   UNL     1      -1.978  12.217  19.921  0.00  0.00    +0.000 A 
ATOM     14  O   UNL     1      -1.159  12.733  20.928  0.00  0.00    +0.000 OA
ENDROOT
BRANCH   1  16
ATOM     15  C   UNL     1      -6.447  16.305  21.180  0.00  0.00    +0.000 C 
ATOM     16  C   UNL     1      -5.983  14.918  20.749  0.00  0.00    +0.000 C 
ATOM     17  C   UNL     1      -7.012  13.876  21.253  0.00  0.00    +0.000 C 
BRANCH  16  18
ATOM     18  O   UNL     1      -5.975  14.874  19.317  0.00  0.00    +0.000 OA
ATOM     19  H   UNL     1      -6.845  14.550  19.023  0.00  0.00    +0.000 HD
ENDBRANCH  16  18
ENDBRANCH   1  16
BRANCH   9  20
ATOM     20  O   UNL     1      -5.463  11.855  18.773  0.00  0.00    +0.000 OA
ATOM     21  H   UNL     1      -5.787  12.385  18.022  0.00  0.00    +0.000 HD
ENDBRANCH   9  20
BRANCH  11  22
ATOM     22  O   UNL     1      -1.483  10.589  16.666  0.00  0.00    +0.000 OA
ATOM     23  H   UNL     1      -1.905  10.909  15.852  0.00  0.00    +0.000 HD
ENDBRANCH  11  22
BRANCH  12  24
ATOM     24  C   UNL     1       0.152  11.271  18.915  0.00  0.00    +0.000 C 
ATOM     25  O   UNL     1       0.940  12.161  18.593  0.00  0.00    +0.000 OA
BRANCH  24  26
ATOM     26  C   UNL     1       0.718   9.961  19.362  0.00  0.00    +0.000 A 
ATOM     27  C   UNL     1       1.517   9.244  18.459  0.00  0.00    +0.000 A 
ATOM     28  C   UNL     1       2.125   8.045  18.834  0.00  0.00    +0.000 A 
ATOM     29  C   UNL     1       1.940   7.550  20.122  0.00  0.00    +0.000 A 
ATOM     30  C   UNL     1       1.124   8.234  21.021  0.00  0.00    +0.000 A 
ATOM     31  C   UNL     1       0.499   9.427  20.640  0.00  0.00    +0.000 A 
ENDBRANCH  24  26
ENDBRANCH  12  24
TORSDOF 6
ENDMDL
MODEL 5
REMARK VINA RESULT:      -6.6      9.169     13.432
REMARK  Name = 
REMARK  9 active torsions:
REMARK  status: ('A' for Active; 'I' for Inactive)
REMARK    1  A    between atoms: C_1  and  C_2
REMARK    2  A    between atoms: C_2  and  C_3
REMARK    3  A    between atoms: C_2  and  O_4
REMARK    4  A    between atoms: C_2  and  C_5
REMARK    5  A    between atoms: C_8  and  C_9
REMARK    6  A    between atoms: C_13  and  O_14
REMARK    7  A    between atoms: C_16  and  O_17
REMARK    8  A    between atoms: C_18  and  C_19
REMARK    9  A    between atoms: C_19  and  C_21
REMARK                            x       y       z     vdW  Elec       q    Type
REMARK                         _______ _______ _______ _____ _____    ______ ____
ROOT
ATOM      1  C   UNL     1      -0.212  11.055  21.920  0.00  0.00    +0.000 C 
ATOM      2  C   UNL     1      -1.173  10.831  23.099  0.00  0.00    +0.000 C 
ATOM      3  C   UNL     1      -2.268  11.870  23.210  0.00  0.00    +0.000 C 
ATOM      4  C   UNL     1      -1.896  13.284  22.670  0.00  0.00    +0.000 C 
ATOM      5  C   UNL     1      -1.677  14.225  23.855  0.00  0.00    +0.000 C 
ATOM      6  C   UNL     1      -0.686  13.419  21.736  0.00  0.00    +0.000 C 
ATOM      7  C   UNL     1      -0.684  12.148  20.891  0.00  0.00    +0.000 C 
ATOM      8  C   UNL     1      -2.063  12.116  20.218  0.00  0.00    +0.000 A 
ATOM      9  C   UNL     1      -2.327  11.360  19.076  0.00  0.00    +0.000 A 
ATOM     10  C   UNL     1      -3.594  11.337  18.490  0.00  0.00    +0.000 A 
ATOM     11  C   UNL     1      -4.595  12.195  18.942  0.00  0.00    +0.000 A 
ATOM     12  C   UNL     1      -4.358  13.068  20.009  0.00  0.00    +0.000 A 
ATOM     13  C   UNL     1      -3.125  12.964  20.687  0.00  0.00    +0.000 A 
ATOM     14  O   UNL     1      -3.010  13.703  21.866  0.00  0.00    +0.000 OA
ENDROOT
BRANCH   1  16
ATOM     15  C   UNL     1       1.080   9.832  20.020  0.00  0.00    +0.000 C 
ATOM     16  C   UNL     1       0.522   9.778  21.438  0.00  0.00    +0.000 C 
ATOM     17  C   UNL     1      -0.441   8.569  21.541  0.00  0.00    +0.000 C 
BRANCH  16  18
ATOM     18  O   UNL     1       1.614   9.552  22.339  0.00  0.00    +0.000 OA
ATOM     19  H   UNL     1       1.533  10.189  23.071  0.00  0.00    +0.000 HD
ENDBRANCH  16  18
ENDBRANCH   1  16
BRANCH   9  20
ATOM     20  O   UNL     1      -1.377  10.653  18.407  0.00  0.00    +0.000 OA
ATOM     21  H   UNL     1      -0.974   9.994  19.003  0.00  0.00    +0.000 HD
ENDBRANCH   9  20
BRANCH  11  22
ATOM     22  O   UNL     1      -5.793  12.192  18.284  0.00  0.00    +0.000 OA
ATOM     23  H   UNL     1      -6.481  11.829  18.867  0.00  0.00    +0.000 HD
ENDBRANCH  11  22
BRANCH  12  24
ATOM     24  C   UNL     1      -5.422  14.020  20.454  0.00  0.00    +0.000 C 
ATOM     25  O   UNL     1      -5.707  14.986  19.745  0.00  0.00    +0.000 OA
BRANCH  24  26
ATOM     26  C   UNL     1      -6.187  13.834  21.726  0.00  0.00    +0.000 A 
ATOM     27  C   UNL     1      -6.841  12.610  21.929  0.00  0.00    +0.000 A 
ATOM     28  C   UNL     1      -7.520  12.348  23.120  0.00  0.00    +0.000 A 
ATOM     29  C   UNL     1      -7.551  13.313  24.124  0.00  0.00    +0.000 A 
ATOM     30  C   UNL     1      -6.932  14.545  23.925  0.00  0.00    +0.000 A 
ATOM     31  C   UNL     1      -6.267  14.815  22.725  0.00  0.00    +0.000 A 
ENDBRANCH  24  26
ENDBRANCH  12  24
TORSDOF 6
ENDMDL
MODEL 6
REMARK VINA RESULT:      -6.6      8.703     11.598
REMARK  Name = 
REMARK  9 active torsions:
REMARK  status: ('A' for Active; 'I' for Inactive)
REMARK    1  A    between atoms: C_1  and  C_2
REMARK    2  A    between atoms: C_2  and  C_3
REMARK    3  A    between atoms: C_2  and  O_4
REMARK    4  A    between atoms: C_2  and  C_5
REMARK    5  A    between atoms: C_8  and  C_9
REMARK    6  A    between atoms: C_13  and  O_14
REMARK    7  A    between atoms: C_16  and  O_17
REMARK    8  A    between atoms: C_18  and  C_19
REMARK    9  A    between atoms: C_19  and  C_21
REMARK                            x       y       z     vdW  Elec       q    Type
REMARK                         _______ _______ _______ _____ _____    ______ ____
ROOT
ATOM      1  C   UNL     1      -4.943  14.148  21.734  0.00  0.00    +0.000 C 
ATOM      2  C   UNL     1      -3.974  15.314  21.481  0.00  0.00    +0.000 C 
ATOM      3  C   UNL     1      -2.537  14.890  21.268  0.00  0.00    +0.000 C 
ATOM      4  C   UNL     1      -2.119  13.578  21.998  0.00  0.00    +0.000 C 
ATOM      5  C   UNL     1      -1.231  13.935  23.190  0.00  0.00    +0.000 C 
ATOM      6  C   UNL     1      -3.220  12.635  22.502  0.00  0.00    +0.000 C 
ATOM      7  C   UNL     1      -4.334  12.723  21.462  0.00  0.00    +0.000 C 
ATOM      8  C   UNL     1      -3.667  12.342  20.132  0.00  0.00    +0.000 A 
ATOM      9  C   UNL     1      -4.393  11.913  19.022  0.00  0.00    +0.000 A 
ATOM     10  C   UNL     1      -3.765  11.586  17.819  0.00  0.00    +0.000 A 
ATOM     11  C   UNL     1      -2.374  11.531  17.742  0.00  0.00    +0.000 A 
ATOM     12  C   UNL     1      -1.586  11.835  18.858  0.00  0.00    +0.000 A 
ATOM     13  C   UNL     1      -2.235  12.314  20.014  0.00  0.00    +0.000 A 
ATOM     14  O   UNL     1      -1.404  12.798  21.027  0.00  0.00    +0.000 OA
ENDROOT
BRANCH   1  16
ATOM     15  C   UNL     1      -6.986  15.739  21.992  0.00  0.00    +0.000 C 
ATOM     16  C   UNL     1      -6.423  14.456  21.391  0.00  0.00    +0.000 C 
ATOM     17  C   UNL     1      -7.307  13.270  21.849  0.00  0.00    +0.000 C 
BRANCH  16  18
ATOM     18  O   UNL     1      -6.516  14.552  19.965  0.00  0.00    +0.000 OA
ATOM     19  H   UNL     1      -7.003  13.772  19.644  0.00  0.00    +0.000 HD
ENDBRANCH  16  18
ENDBRANCH   1  16
BRANCH   9  20
ATOM     20  O   UNL     1      -5.738  11.710  19.035  0.00  0.00    +0.000 OA
ATOM     21  H   UNL     1      -5.959  10.918  18.511  0.00  0.00    +0.000 HD
ENDBRANCH   9  20
BRANCH  11  22
ATOM     22  O   UNL     1      -1.808  11.128  16.565  0.00  0.00    +0.000 OA
ATOM     23  H   UNL     1      -1.011  10.604  16.752  0.00  0.00    +0.000 HD
ENDBRANCH  11  22
BRANCH  12  24
ATOM     24  C   UNL     1      -0.096  11.724  18.780  0.00  0.00    +0.000 C 
ATOM     25  O   UNL     1       0.572  12.720  18.503  0.00  0.00    +0.000 OA
BRANCH  24  26
ATOM     26  C   UNL     1       0.630  10.445  19.056  0.00  0.00    +0.000 A 
ATOM     27  C   UNL     1       0.566   9.918  20.355  0.00  0.00    +0.000 A 
ATOM     28  C   UNL     1       1.169   8.699  20.664  0.00  0.00    +0.000 A 
ATOM     29  C   UNL     1       1.844   7.991  19.673  0.00  0.00    +0.000 A 
ATOM     30  C   UNL     1       1.942   8.515  18.386  0.00  0.00    +0.000 A 
ATOM     31  C   UNL     1       1.354   9.747  18.079  0.00  0.00    +0.000 A 
ENDBRANCH  24  26
ENDBRANCH  12  24
TORSDOF 6
ENDMDL
MODEL 7
REMARK VINA RESULT:      -6.5     10.066     13.210
REMARK  Name = 
REMARK  9 active torsions:
REMARK  status: ('A' for Active; 'I' for Inactive)
REMARK    1  A    between atoms: C_1  and  C_2
REMARK    2  A    between atoms: C_2  and  C_3
REMARK    3  A    between atoms: C_2  and  O_4
REMARK    4  A    between atoms: C_2  and  C_5
REMARK    5  A    between atoms: C_8  and  C_9
REMARK    6  A    between atoms: C_13  and  O_14
REMARK    7  A    between atoms: C_16  and  O_17
REMARK    8  A    between atoms: C_18  and  C_19
REMARK    9  A    between atoms: C_19  and  C_21
REMARK                            x       y       z     vdW  Elec       q    Type
REMARK                         _______ _______ _______ _____ _____    ______ ____
ROOT
ATOM      1  C   UNL     1      -2.776  14.452  23.317  0.00  0.00    +0.000 C 
ATOM      2  C   UNL     1      -2.742  15.611  22.307  0.00  0.00    +0.000 C 
ATOM      3  C   UNL     1      -2.831  15.174  20.861  0.00  0.00    +0.000 C 
ATOM      4  C   UNL     1      -2.245  13.762  20.558  0.00  0.00    +0.000 C 
ATOM      5  C   UNL     1      -0.913  13.925  19.825  0.00  0.00    +0.000 C 
ATOM      6  C   UNL     1      -2.018  12.795  21.728  0.00  0.00    +0.000 C 
ATOM      7  C   UNL     1      -3.166  13.059  22.699  0.00  0.00    +0.000 C 
ATOM      8  C   UNL     1      -4.442  12.842  21.873  0.00  0.00    +0.000 A 
ATOM      9  C   UNL     1      -5.683  12.591  22.457  0.00  0.00    +0.000 A 
ATOM     10  C   UNL     1      -6.832  12.411  21.685  0.00  0.00    +0.000 A 
ATOM     11  C   UNL     1      -6.742  12.322  20.297  0.00  0.00    +0.000 A 
ATOM     12  C   UNL     1      -5.506  12.446  19.654  0.00  0.00    +0.000 A 
ATOM     13  C   UNL     1      -4.383  12.784  20.438  0.00  0.00    +0.000 A 
ATOM     14  O   UNL     1      -3.218  13.099  19.736  0.00  0.00    +0.000 OA
ENDROOT
BRANCH   1  16
ATOM     15  C   UNL     1      -4.272  15.985  24.795  0.00  0.00    +0.000 C 
ATOM     16  C   UNL     1      -3.255  14.851  24.736  0.00  0.00    +0.000 C 
ATOM     17  C   UNL     1      -2.027  15.248  25.593  0.00  0.00    +0.000 C 
BRANCH  16  18
ATOM     18  O   UNL     1      -3.847  13.687  25.326  0.00  0.00    +0.000 OA
ATOM     19  H   UNL     1      -3.268  13.392  26.051  0.00  0.00    +0.000 HD
ENDBRANCH  16  18
ENDBRANCH   1  16
BRANCH   9  20
ATOM     20  O   UNL     1      -5.866  12.431  23.796  0.00  0.00    +0.000 OA
ATOM     21  H   UNL     1      -6.300  13.222  24.167  0.00  0.00    +0.000 HD
ENDBRANCH   9  20
BRANCH  11  22
ATOM     22  O   UNL     1      -7.884  12.066  19.591  0.00  0.00    +0.000 OA
ATOM     23  H   UNL     1      -8.311  11.268  19.945  0.00  0.00    +0.000 HD
ENDBRANCH  11  22
BRANCH  12  24
ATOM     24  C   UNL     1      -5.412  12.300  18.168  0.00  0.00    +0.000 C 
ATOM     25  O   UNL     1      -6.131  12.989  17.444  0.00  0.00    +0.000 OA
BRANCH  24  26
ATOM     26  C   UNL     1      -4.448  11.361  17.513  0.00  0.00    +0.000 A 
ATOM     27  C   UNL     1      -4.111  11.593  16.171  0.00  0.00    +0.000 A 
ATOM     28  C   UNL     1      -3.173  10.793  15.518  0.00  0.00    +0.000 A 
ATOM     29  C   UNL     1      -2.559   9.749  16.206  0.00  0.00    +0.000 A 
ATOM     30  C   UNL     1      -2.905   9.486  17.529  0.00  0.00    +0.000 A 
ATOM     31  C   UNL     1      -3.860  10.277  18.179  0.00  0.00    +0.000 A 
ENDBRANCH  24  26
ENDBRANCH  12  24
TORSDOF 6
ENDMDL
MODEL 8
REMARK VINA RESULT:      -6.5      9.897     11.534
REMARK  Name = 
REMARK  9 active torsions:
REMARK  status: ('A' for Active; 'I' for Inactive)
REMARK    1  A    between atoms: C_1  and  C_2
REMARK    2  A    between atoms: C_2  and  C_3
REMARK    3  A    between atoms: C_2  and  O_4
REMARK    4  A    between atoms: C_2  and  C_5
REMARK    5  A    between atoms: C_8  and  C_9
REMARK    6  A    between atoms: C_13  and  O_14
REMARK    7  A    between atoms: C_16  and  O_17
REMARK    8  A    between atoms: C_18  and  C_19
REMARK    9  A    between atoms: C_19  and  C_21
REMARK                            x       y       z     vdW  Elec       q    Type
REMARK                         _______ _______ _______ _____ _____    ______ ____
ROOT
ATOM      1  C   UNL     1       3.942  15.408  20.488  0.00  0.00    +0.000 C 
ATOM      2  C   UNL     1       4.419  14.936  19.105  0.00  0.00    +0.000 C 
ATOM      3  C   UNL     1       5.912  15.064  18.889  0.00  0.00    +0.000 C 
ATOM      4  C   UNL     1       6.599  16.218  19.680  0.00  0.00    +0.000 C 
ATOM      5  C   UNL     1       6.945  17.347  18.708  0.00  0.00    +0.000 C 
ATOM      6  C   UNL     1       5.855  16.838  20.870  0.00  0.00    +0.000 C 
ATOM      7  C   UNL     1       5.098  15.682  21.520  0.00  0.00    +0.000 C 
ATOM      8  C   UNL     1       6.176  14.642  21.857  0.00  0.00    +0.000 A 
ATOM      9  C   UNL     1       5.981  13.634  22.802  0.00  0.00    +0.000 A 
ATOM     10  C   UNL     1       6.972  12.691  23.081  0.00  0.00    +0.000 A 
ATOM     11  C   UNL     1       8.246  12.825  22.533  0.00  0.00    +0.000 A 
ATOM     12  C   UNL     1       8.544  13.885  21.670  0.00  0.00    +0.000 A 
ATOM     13  C   UNL     1       7.488  14.734  21.277  0.00  0.00    +0.000 A 
ATOM     14  O   UNL     1       7.781  15.647  20.262  0.00  0.00    +0.000 OA
ENDROOT
BRANCH   1  16
ATOM     15  C   UNL     1       2.333  13.363  20.481  0.00  0.00    +0.000 C 
ATOM     16  C   UNL     1       2.598  14.789  20.950  0.00  0.00    +0.000 C 
ATOM     17  C   UNL     1       1.433  15.689  20.471  0.00  0.00    +0.000 C 
BRANCH  16  18
ATOM     18  O   UNL     1       2.600  14.794  22.383  0.00  0.00    +0.000 OA
ATOM     19  H   UNL     1       3.343  14.240  22.683  0.00  0.00    +0.000 HD
ENDBRANCH  16  18
ENDBRANCH   1  16
BRANCH   9  20
ATOM     20  O   UNL     1       4.862  13.528  23.567  0.00  0.00    +0.000 OA
ATOM     21  H   UNL     1       4.560  12.601  23.585  0.00  0.00    +0.000 HD
ENDBRANCH   9  20
BRANCH  11  22
ATOM     22  O   UNL     1       9.205  11.921  22.900  0.00  0.00    +0.000 OA
ATOM     23  H   UNL     1       9.929  12.385  23.351  0.00  0.00    +0.000 HD
ENDBRANCH  11  22
BRANCH  12  24
ATOM     24  C   UNL     1       9.928  14.049  21.127  0.00  0.00    +0.000 C 
ATOM     25  O   UNL     1      10.709  14.823  21.682  0.00  0.00    +0.000 OA
BRANCH  24  26
ATOM     26  C   UNL     1      10.423  13.282  19.942  0.00  0.00    +0.000 A 
ATOM     27  C   UNL     1      11.473  12.372  20.137  0.00  0.00    +0.000 A 
ATOM     28  C   UNL     1      11.940  11.581  19.087  0.00  0.00    +0.000 A 
ATOM     29  C   UNL     1      11.358  11.691  17.827  0.00  0.00    +0.000 A 
ATOM     30  C   UNL     1      10.335  12.611  17.610  0.00  0.00    +0.000 A 
ATOM     31  C   UNL     1       9.878  13.419  18.657  0.00  0.00    +0.000 A 
ENDBRANCH  24  26
ENDBRANCH  12  24
TORSDOF 6
ENDMDL
MODEL 9
REMARK VINA RESULT:      -6.5      9.754     13.978
REMARK  Name = 
REMARK  9 active torsions:
REMARK  status: ('A' for Active; 'I' for Inactive)
REMARK    1  A    between atoms: C_1  and  C_2
REMARK    2  A    between atoms: C_2  and  C_3
REMARK    3  A    between atoms: C_2  and  O_4
REMARK    4  A    between atoms: C_2  and  C_5
REMARK    5  A    between atoms: C_8  and  C_9
REMARK    6  A    between atoms: C_13  and  O_14
REMARK    7  A    between atoms: C_16  and  O_17
REMARK    8  A    between atoms: C_18  and  C_19
REMARK    9  A    between atoms: C_19  and  C_21
REMARK                            x       y       z     vdW  Elec       q    Type
REMARK                         _______ _______ _______ _____ _____    ______ ____
ROOT
ATOM      1  C   UNL     1      -0.874  12.168  21.082  0.00  0.00    +0.000 C 
ATOM      2  C   UNL     1      -1.629  11.795  22.369  0.00  0.00    +0.000 C 
ATOM      3  C   UNL     1      -2.991  12.442  22.495  0.00  0.00    +0.000 C 
ATOM      4  C   UNL     1      -3.135  13.826  21.794  0.00  0.00    +0.000 C 
ATOM      5  C   UNL     1      -3.153  14.923  22.859  0.00  0.00    +0.000 C 
ATOM      6  C   UNL     1      -2.099  14.223  20.733  0.00  0.00    +0.000 C 
ATOM      7  C   UNL     1      -1.742  12.926  20.011  0.00  0.00    +0.000 C 
ATOM      8  C   UNL     1      -3.079  12.382  19.488  0.00  0.00    +0.000 A 
ATOM      9  C   UNL     1      -3.159  11.451  18.453  0.00  0.00    +0.000 A 
ATOM     10  C   UNL     1      -4.387  10.961  18.003  0.00  0.00    +0.000 A 
ATOM     11  C   UNL     1      -5.579  11.508  18.474  0.00  0.00    +0.000 A 
ATOM     12  C   UNL     1      -5.566  12.531  19.428  0.00  0.00    +0.000 A 
ATOM     13  C   UNL     1      -4.324  12.902  19.984  0.00  0.00    +0.000 A 
ATOM     14  O   UNL     1      -4.376  13.775  21.072  0.00  0.00    +0.000 OA
ENDROOT
BRANCH   1  16
ATOM     15  C   UNL     1       0.914  11.445  19.335  0.00  0.00    +0.000 C 
ATOM     16  C   UNL     1       0.201  11.139  20.647  0.00  0.00    +0.000 C 
ATOM     17  C   UNL     1      -0.453   9.739  20.537  0.00  0.00    +0.000 C 
BRANCH  16  18
ATOM     18  O   UNL     1       1.184  11.086  21.688  0.00  0.00    +0.000 OA
ATOM     19  H   UNL     1       0.783  10.639  22.455  0.00  0.00    +0.000 HD
ENDBRANCH  16  18
ENDBRANCH   1  16
BRANCH   9  20
ATOM     20  O   UNL     1      -2.078  11.004  17.758  0.00  0.00    +0.000 OA
ATOM     21  H   UNL     1      -1.265  11.403  18.120  0.00  0.00    +0.000 HD
ENDBRANCH   9  20
BRANCH  11  22
ATOM     22  O   UNL     1      -6.753  11.049  17.945  0.00  0.00    +0.000 OA
ATOM     23  H   UNL     1      -7.449  11.714  18.078  0.00  0.00    +0.000 HD
ENDBRANCH  11  22
BRANCH  12  24
ATOM     24  C   UNL     1      -6.849  13.147  19.890  0.00  0.00    +0.000 C 
ATOM     25  O   UNL     1      -7.672  13.529  19.058  0.00  0.00    +0.000 OA
BRANCH  24  26
ATOM     26  C   UNL     1      -7.194  13.294  21.338  0.00  0.00    +0.000 A 
ATOM     27  C   UNL     1      -7.289  12.129  22.115  0.00  0.00    +0.000 A 
ATOM     28  C   UNL     1      -7.547  12.200  23.485  0.00  0.00    +0.000 A 
ATOM     29  C   UNL     1      -7.712  13.442  24.093  0.00  0.00    +0.000 A 
ATOM     30  C   UNL     1      -7.651  14.605  23.330  0.00  0.00    +0.000 A 
ATOM     31  C   UNL     1      -7.411  14.535  21.953  0.00  0.00    +0.000 A 
ENDBRANCH  24  26
ENDBRANCH  12  24
TORSDOF 6
ENDMDL
