MODEL 1
REMARK VINA RESULT:      -8.1      0.000      0.000
REMARK  Name = 
REMARK  6 active torsions:
REMARK  status: ('A' for Active; 'I' for Inactive)
REMARK    1  A    between atoms: N_1  and  S_2
REMARK    2  A    between atoms: S_2  and  N_5
REMARK    3  A    between atoms: N_5  and  C_6
REMARK    4  A    between atoms: C_6  and  C_7
REMARK    5  A    between atoms: C_7  and  C_8
REMARK    6  A    between atoms: C_14  and  C_15
REMARK                            x       y       z     vdW  Elec       q    Type
REMARK                         _______ _______ _______ _____ _____    ______ ____
ROOT
ATOM      1  C   UNL     1       5.451   4.875  17.216  0.00  0.00    +0.000 C 
ATOM      2  C   UNL     1       4.517   4.396  18.347  0.00  0.00    +0.000 C 
ATOM      3  C   UNL     1       3.116   5.010  18.300  0.00  0.00    +0.000 C 
ATOM      4  N   UNL     1       3.183   6.457  18.111  0.00  0.00    +0.000 N 
ATOM      5  C   UNL     1       2.416   7.274  18.919  0.00  0.00    +0.000 A 
ATOM      6  C   UNL     1       1.893   8.475  18.465  0.00  0.00    +0.000 A 
ATOM      7  C   UNL     1       1.181   9.271  19.352  0.00  0.00    +0.000 A 
ATOM      8  N   UNL     1       1.037   8.903  20.639  0.00  0.00    +0.000 NA
ATOM      9  C   UNL     1       1.526   7.709  20.980  0.00  0.00    +0.000 A 
ATOM     10  N   UNL     1       2.194   6.874  20.181  0.00  0.00    +0.000 NA
ATOM     11  C   UNL     1       4.012   6.976  17.035  0.00  0.00    +0.000 C 
ATOM     12  C   UNL     1       5.426   6.412  17.166  0.00  0.00    +0.000 C 
ENDROOT
BRANCH   7  13
ATOM     13  C   UNL     1       0.544  10.555  18.947  0.00  0.00    +0.000 A 
ATOM     14  C   UNL     1       1.284  11.754  19.088  0.00  0.00    +0.000 A 
ATOM     15  C   UNL     1       0.756  12.992  18.721  0.00  0.00    +0.000 A 
ATOM     16  C   UNL     1      -0.536  13.066  18.224  0.00  0.00    +0.000 A 
ATOM     17  C   UNL     1      -1.318  11.916  18.075  0.00  0.00    +0.000 A 
ATOM     18  C   UNL     1      -2.625  12.037  17.570  0.00  0.00    +0.000 A 
ATOM     19  C   UNL     1      -3.447  10.925  17.406  0.00  0.00    +0.000 A 
ATOM     20  C   UNL     1      -2.960   9.670  17.721  0.00  0.00    +0.000 A 
ATOM     21  C   UNL     1      -1.655   9.533  18.200  0.00  0.00    +0.000 A 
ATOM     22  C   UNL     1      -0.794  10.643  18.424  0.00  0.00    +0.000 A 
ENDBRANCH   7  13
BRANCH   1  23
ATOM     23  C   UNL     1       5.121   4.192  15.871  0.00  0.00    +0.000 C 
BRANCH  23  24
ATOM     24  C   UNL     1       6.094   4.470  14.720  0.00  0.00    +0.000 C 
BRANCH  24  25
ATOM     25  N   UNL     1       6.381   3.253  13.917  0.00  0.00    +0.000 NA
ATOM     26  H   UNL     1       7.352   2.957  14.018  0.00  0.00    +0.000 HD
BRANCH  25  27
ATOM     27  S   UNL     1       6.113   3.493  12.278  0.00  0.00    +0.000 S 
ATOM     28  O   UNL     1       7.195   4.282  11.753  0.00  0.00    +0.000 OA
ATOM     29  O   UNL     1       4.726   3.797  12.062  0.00  0.00    +0.000 OA
BRANCH  27  30
ATOM     30  N   UNL     1       6.348   1.926  11.782  0.00  0.00    +0.000 NA
ATOM     31  H   UNL     1       6.692   1.939  10.821  0.00  0.00    +0.000 HD
ATOM     32  H   UNL     1       5.460   1.425  11.833  0.00  0.00    +0.000 HD
ENDBRANCH  27  30
ENDBRANCH  25  27
ENDBRANCH  24  25
ENDBRANCH  23  24
ENDBRANCH   1  23
TORSDOF 6
ENDMDL
MODEL 2
REMARK VINA RESULT:      -7.8      0.691      2.331
REMARK  Name = 
REMARK  6 active torsions:
REMARK  status: ('A' for Active; 'I' for Inactive)
REMARK    1  A    between atoms: N_1  and  S_2
REMARK    2  A    between atoms: S_2  and  N_5
REMARK    3  A    between atoms: N_5  and  C_6
REMARK    4  A    between atoms: C_6  and  C_7
REMARK    5  A    between atoms: C_7  and  C_8
REMARK    6  A    between atoms: C_14  and  C_15
REMARK                            x       y       z     vdW  Elec       q    Type
REMARK                         _______ _______ _______ _____ _____    ______ ____
ROOT
ATOM      1  C   UNL     1       5.548   5.202  17.047  0.00  0.00    +0.000 C 
ATOM      2  C   UNL     1       4.696   4.676  18.220  0.00  0.00    +0.000 C 
ATOM      3  C   UNL     1       3.250   5.181  18.217  0.00  0.00    +0.000 C 
ATOM      4  N   UNL     1       3.199   6.624  18.000  0.00  0.00    +0.000 N 
ATOM      5  C   UNL     1       2.402   7.397  18.822  0.00  0.00    +0.000 A 
ATOM      6  C   UNL     1       1.771   8.544  18.368  0.00  0.00    +0.000 A 
ATOM      7  C   UNL     1       1.033   9.301  19.268  0.00  0.00    +0.000 A 
ATOM      8  N   UNL     1       0.965   8.950  20.565  0.00  0.00    +0.000 NA
ATOM      9  C   UNL     1       1.556   7.803  20.907  0.00  0.00    +0.000 A 
ATOM     10  N   UNL     1       2.257   7.006  20.098  0.00  0.00    +0.000 NA
ATOM     11  C   UNL     1       3.946   7.183  16.884  0.00  0.00    +0.000 C 
ATOM     12  C   UNL     1       5.403   6.731  16.972  0.00  0.00    +0.000 C 
ENDROOT
BRANCH   7  13
ATOM     13  C   UNL     1       0.285  10.525  18.865  0.00  0.00    +0.000 A 
ATOM     14  C   UNL     1      -0.996  10.376  18.281  0.00  0.00    +0.000 A 
ATOM     15  C   UNL     1      -1.758  11.476  17.887  0.00  0.00    +0.000 A 
ATOM     16  C   UNL     1      -1.249  12.755  18.048  0.00  0.00    +0.000 A 
ATOM     17  C   UNL     1       0.016  12.962  18.608  0.00  0.00    +0.000 A 
ATOM     18  C   UNL     1       0.496  14.277  18.751  0.00  0.00    +0.000 A 
ATOM     19  C   UNL     1       1.749  14.539  19.298  0.00  0.00    +0.000 A 
ATOM     20  C   UNL     1       2.530  13.486  19.736  0.00  0.00    +0.000 A 
ATOM     21  C   UNL     1       2.055  12.177  19.624  0.00  0.00    +0.000 A 
ATOM     22  C   UNL     1       0.801  11.859  19.034  0.00  0.00    +0.000 A 
ENDBRANCH   7  13
BRANCH   1  23
ATOM     23  C   UNL     1       5.222   4.469  15.728  0.00  0.00    +0.000 C 
BRANCH  23  24
ATOM     24  C   UNL     1       6.330   4.470  14.668  0.00  0.00    +0.000 C 
BRANCH  24  25
ATOM     25  N   UNL     1       6.366   3.206  13.888  0.00  0.00    +0.000 NA
ATOM     26  H   UNL     1       7.262   2.728  13.989  0.00  0.00    +0.000 HD
BRANCH  25  27
ATOM     27  S   UNL     1       6.134   3.463  12.246  0.00  0.00    +0.000 S 
ATOM     28  O   UNL     1       7.163   4.352  11.777  0.00  0.00    +0.000 OA
ATOM     29  O   UNL     1       4.734   3.656  11.987  0.00  0.00    +0.000 OA
BRANCH  27  30
ATOM     30  N   UNL     1       6.517   1.934  11.724  0.00  0.00    +0.000 NA
ATOM     31  H   UNL     1       7.483   1.935  11.398  0.00  0.00    +0.000 HD
ATOM     32  H   UNL     1       5.887   1.676  10.963  0.00  0.00    +0.000 HD
ENDBRANCH  27  30
ENDBRANCH  25  27
ENDBRANCH  24  25
ENDBRANCH  23  24
ENDBRANCH   1  23
TORSDOF 6
ENDMDL
MODEL 3
REMARK VINA RESULT:      -7.6      1.411      2.171
REMARK  Name = 
REMARK  6 active torsions:
REMARK  status: ('A' for Active; 'I' for Inactive)
REMARK    1  A    between atoms: N_1  and  S_2
REMARK    2  A    between atoms: S_2  and  N_5
REMARK    3  A    between atoms: N_5  and  C_6
REMARK    4  A    between atoms: C_6  and  C_7
REMARK    5  A    between atoms: C_7  and  C_8
REMARK    6  A    between atoms: C_14  and  C_15
REMARK                            x       y       z     vdW  Elec       q    Type
REMARK                         _______ _______ _______ _____ _____    ______ ____
ROOT
ATOM      1  C   UNL     1       6.152   5.057  16.544  0.00  0.00    +0.000 C 
ATOM      2  C   UNL     1       5.113   4.022  17.025  0.00  0.00    +0.000 C 
ATOM      3  C   UNL     1       3.706   4.593  17.213  0.00  0.00    +0.000 C 
ATOM      4  N   UNL     1       3.743   5.844  17.967  0.00  0.00    +0.000 N 
ATOM      5  C   UNL     1       2.861   6.020  19.015  0.00  0.00    +0.000 A 
ATOM      6  C   UNL     1       2.351   7.266  19.345  0.00  0.00    +0.000 A 
ATOM      7  C   UNL     1       1.516   7.375  20.449  0.00  0.00    +0.000 A 
ATOM      8  N   UNL     1       1.239   6.298  21.208  0.00  0.00    +0.000 NA
ATOM      9  C   UNL     1       1.728   5.129  20.790  0.00  0.00    +0.000 A 
ATOM     10  N   UNL     1       2.511   4.937  19.726  0.00  0.00    +0.000 NA
ATOM     11  C   UNL     1       4.670   6.881  17.540  0.00  0.00    +0.000 C 
ATOM     12  C   UNL     1       6.079   6.295  17.451  0.00  0.00    +0.000 C 
ENDROOT
BRANCH   7  13
ATOM     13  C   UNL     1       0.884   8.661  20.856  0.00  0.00    +0.000 A 
ATOM     14  C   UNL     1       0.947   9.048  22.216  0.00  0.00    +0.000 A 
ATOM     15  C   UNL     1       0.386  10.242  22.669  0.00  0.00    +0.000 A 
ATOM     16  C   UNL     1      -0.273  11.072  21.775  0.00  0.00    +0.000 A 
ATOM     17  C   UNL     1      -0.377  10.735  20.421  0.00  0.00    +0.000 A 
ATOM     18  C   UNL     1      -1.057  11.604  19.549  0.00  0.00    +0.000 A 
ATOM     19  C   UNL     1      -1.194  11.314  18.194  0.00  0.00    +0.000 A 
ATOM     20  C   UNL     1      -0.625  10.161  17.687  0.00  0.00    +0.000 A 
ATOM     21  C   UNL     1       0.075   9.301  18.538  0.00  0.00    +0.000 A 
ATOM     22  C   UNL     1       0.203   9.534  19.935  0.00  0.00    +0.000 A 
ENDBRANCH   7  13
BRANCH   1  23
ATOM     23  C   UNL     1       6.000   5.364  15.038  0.00  0.00    +0.000 C 
BRANCH  23  24
ATOM     24  C   UNL     1       6.892   4.550  14.094  0.00  0.00    +0.000 C 
BRANCH  24  25
ATOM     25  N   UNL     1       6.234   3.300  13.633  0.00  0.00    +0.000 NA
ATOM     26  H   UNL     1       6.809   2.480  13.828  0.00  0.00    +0.000 HD
BRANCH  25  27
ATOM     27  S   UNL     1       5.938   3.306  11.982  0.00  0.00    +0.000 S 
ATOM     28  O   UNL     1       6.980   4.059  11.337  0.00  0.00    +0.000 OA
ATOM     29  O   UNL     1       4.537   3.522  11.751  0.00  0.00    +0.000 OA
BRANCH  27  30
ATOM     30  N   UNL     1       6.233   1.697  11.696  0.00  0.00    +0.000 NA
ATOM     31  H   UNL     1       7.233   1.527  11.803  0.00  0.00    +0.000 HD
ATOM     32  H   UNL     1       5.934   1.468  10.747  0.00  0.00    +0.000 HD
ENDBRANCH  27  30
ENDBRANCH  25  27
ENDBRANCH  24  25
ENDBRANCH  23  24
ENDBRANCH   1  23
TORSDOF 6
ENDMDL
MODEL 4
REMARK VINA RESULT:      -7.6      1.761      2.221
REMARK  Name = 
REMARK  6 active torsions:
REMARK  status: ('A' for Active; 'I' for Inactive)
REMARK    1  A    between atoms: N_1  and  S_2
REMARK    2  A    between atoms: S_2  and  N_5
REMARK    3  A    between atoms: N_5  and  C_6
REMARK    4  A    between atoms: C_6  and  C_7
REMARK    5  A    between atoms: C_7  and  C_8
REMARK    6  A    between atoms: C_14  and  C_15
REMARK                            x       y       z     vdW  Elec       q    Type
REMARK                         _______ _______ _______ _____ _____    ______ ____
ROOT
ATOM      1  C   UNL     1       5.473   4.568  16.771  0.00  0.00    +0.000 C 
ATOM      2  C   UNL     1       4.397   3.877  17.632  0.00  0.00    +0.000 C 
ATOM      3  C   UNL     1       3.071   4.638  17.702  0.00  0.00    +0.000 C 
ATOM      4  N   UNL     1       3.292   6.053  17.988  0.00  0.00    +0.000 N 
ATOM      5  C   UNL     1       2.534   6.664  18.968  0.00  0.00    +0.000 A 
ATOM      6  C   UNL     1       2.171   8.000  18.890  0.00  0.00    +0.000 A 
ATOM      7  C   UNL     1       1.458   8.560  19.941  0.00  0.00    +0.000 A 
ATOM      8  N   UNL     1       1.160   7.831  21.033  0.00  0.00    +0.000 NA
ATOM      9  C   UNL     1       1.499   6.541  21.003  0.00  0.00    +0.000 A 
ATOM     10  N   UNL     1       2.157   5.922  20.020  0.00  0.00    +0.000 NA
ATOM     11  C   UNL     1       4.263   6.777  17.184  0.00  0.00    +0.000 C 
ATOM     12  C   UNL     1       5.599   6.035  17.212  0.00  0.00    +0.000 C 
ENDROOT
BRANCH   7  13
ATOM     13  C   UNL     1       0.986   9.973  19.930  0.00  0.00    +0.000 A 
ATOM     14  C   UNL     1       1.331  10.796  18.830  0.00  0.00    +0.000 A 
ATOM     15  C   UNL     1       0.918  12.125  18.747  0.00  0.00    +0.000 A 
ATOM     16  C   UNL     1       0.165  12.674  19.774  0.00  0.00    +0.000 A 
ATOM     17  C   UNL     1      -0.194  11.913  20.890  0.00  0.00    +0.000 A 
ATOM     18  C   UNL     1      -0.956  12.511  21.911  0.00  0.00    +0.000 A 
ATOM     19  C   UNL     1      -1.337  11.799  23.045  0.00  0.00    +0.000 A 
ATOM     20  C   UNL     1      -0.984  10.468  23.160  0.00  0.00    +0.000 A 
ATOM     21  C   UNL     1      -0.249   9.855  22.143  0.00  0.00    +0.000 A 
ATOM     22  C   UNL     1       0.199  10.552  20.987  0.00  0.00    +0.000 A 
ENDBRANCH   7  13
BRANCH   1  23
ATOM     23  C   UNL     1       5.208   4.381  15.261  0.00  0.00    +0.000 C 
BRANCH  23  24
ATOM     24  C   UNL     1       6.426   4.522  14.342  0.00  0.00    +0.000 C 
BRANCH  24  25
ATOM     25  N   UNL     1       6.727   3.268  13.606  0.00  0.00    +0.000 NA
ATOM     26  H   UNL     1       7.715   3.021  13.672  0.00  0.00    +0.000 HD
BRANCH  25  27
ATOM     27  S   UNL     1       6.362   3.384  11.972  0.00  0.00    +0.000 S 
ATOM     28  O   UNL     1       7.223   4.377  11.386  0.00  0.00    +0.000 OA
ATOM     29  O   UNL     1       4.937   3.361  11.800  0.00  0.00    +0.000 OA
BRANCH  27  30
ATOM     30  N   UNL     1       6.930   1.893  11.510  0.00  0.00    +0.000 NA
ATOM     31  H   UNL     1       6.759   1.233  12.268  0.00  0.00    +0.000 HD
ATOM     32  H   UNL     1       7.931   1.964  11.321  0.00  0.00    +0.000 HD
ENDBRANCH  27  30
ENDBRANCH  25  27
ENDBRANCH  24  25
ENDBRANCH  23  24
ENDBRANCH   1  23
TORSDOF 6
ENDMDL
MODEL 5
REMARK VINA RESULT:      -7.6      3.253      4.752
REMARK  Name = 
REMARK  6 active torsions:
REMARK  status: ('A' for Active; 'I' for Inactive)
REMARK    1  A    between atoms: N_1  and  S_2
REMARK    2  A    between atoms: S_2  and  N_5
REMARK    3  A    between atoms: N_5  and  C_6
REMARK    4  A    between atoms: C_6  and  C_7
REMARK    5  A    between atoms: C_7  and  C_8
REMARK    6  A    between atoms: C_14  and  C_15
REMARK                            x       y       z     vdW  Elec       q    Type
REMARK                         _______ _______ _______ _____ _____    ______ ____
ROOT
ATOM      1  C   UNL     1       2.697   5.478  19.151  0.00  0.00    +0.000 C 
ATOM      2  C   UNL     1       2.490   6.350  17.896  0.00  0.00    +0.000 C 
ATOM      3  C   UNL     1       2.587   7.855  18.160  0.00  0.00    +0.000 C 
ATOM      4  N   UNL     1       1.797   8.235  19.328  0.00  0.00    +0.000 N 
ATOM      5  C   UNL     1       0.957   9.328  19.241  0.00  0.00    +0.000 A 
ATOM      6  C   UNL     1       0.698  10.145  20.330  0.00  0.00    +0.000 A 
ATOM      7  C   UNL     1      -0.204  11.191  20.181  0.00  0.00    +0.000 A 
ATOM      8  N   UNL     1      -0.845  11.382  19.013  0.00  0.00    +0.000 NA
ATOM      9  C   UNL     1      -0.498  10.584  18.002  0.00  0.00    +0.000 A 
ATOM     10  N   UNL     1       0.379   9.579  18.056  0.00  0.00    +0.000 NA
ATOM     11  C   UNL     1       1.975   7.481  20.559  0.00  0.00    +0.000 C 
ATOM     12  C   UNL     1       1.782   5.992  20.273  0.00  0.00    +0.000 C 
ENDROOT
BRANCH   7  13
ATOM     13  C   UNL     1      -0.513  12.148  21.280  0.00  0.00    +0.000 A 
ATOM     14  C   UNL     1      -1.489  11.787  22.241  0.00  0.00    +0.000 A 
ATOM     15  C   UNL     1      -1.824  12.628  23.301  0.00  0.00    +0.000 A 
ATOM     16  C   UNL     1      -1.207  13.865  23.417  0.00  0.00    +0.000 A 
ATOM     17  C   UNL     1      -0.245  14.279  22.490  0.00  0.00    +0.000 A 
ATOM     18  C   UNL     1       0.353  15.543  22.643  0.00  0.00    +0.000 A 
ATOM     19  C   UNL     1       1.313  16.007  21.746  0.00  0.00    +0.000 A 
ATOM     20  C   UNL     1       1.707  15.197  20.698  0.00  0.00    +0.000 A 
ATOM     21  C   UNL     1       1.139  13.929  20.548  0.00  0.00    +0.000 A 
ATOM     22  C   UNL     1       0.126  13.431  21.414  0.00  0.00    +0.000 A 
ENDBRANCH   7  13
BRANCH   1  23
ATOM     23  C   UNL     1       4.188   5.382  19.543  0.00  0.00    +0.000 C 
BRANCH  23  24
ATOM     24  C   UNL     1       4.926   4.123  19.076  0.00  0.00    +0.000 C 
BRANCH  24  25
ATOM     25  N   UNL     1       6.382   4.356  18.894  0.00  0.00    +0.000 NA
ATOM     26  H   UNL     1       6.710   5.141  19.459  0.00  0.00    +0.000 HD
BRANCH  25  27
ATOM     27  S   UNL     1       6.778   4.704  17.301  0.00  0.00    +0.000 S 
ATOM     28  O   UNL     1       8.104   4.207  17.046  0.00  0.00    +0.000 OA
ATOM     29  O   UNL     1       6.352   6.039  16.985  0.00  0.00    +0.000 OA
BRANCH  27  30
ATOM     30  N   UNL     1       5.705   3.668  16.573  0.00  0.00    +0.000 NA
ATOM     31  H   UNL     1       5.672   2.803  17.113  0.00  0.00    +0.000 HD
ATOM     32  H   UNL     1       6.022   3.478  15.621  0.00  0.00    +0.000 HD
ENDBRANCH  27  30
ENDBRANCH  25  27
ENDBRANCH  24  25
ENDBRANCH  23  24
ENDBRANCH   1  23
TORSDOF 6
ENDMDL
MODEL 6
REMARK VINA RESULT:      -7.5      1.813      2.699
REMARK  Name = 
REMARK  6 active torsions:
REMARK  status: ('A' for Active; 'I' for Inactive)
REMARK    1  A    between atoms: N_1  and  S_2
REMARK    2  A    between atoms: S_2  and  N_5
REMARK    3  A    between atoms: N_5  and  C_6
REMARK    4  A    between atoms: C_6  and  C_7
REMARK    5  A    between atoms: C_7  and  C_8
REMARK    6  A    between atoms: C_14  and  C_15
REMARK                            x       y       z     vdW  Elec       q    Type
REMARK                         _______ _______ _______ _____ _____    ______ ____
ROOT
ATOM      1  C   UNL     1       7.103   5.093  16.590  0.00  0.00    +0.000 C 
ATOM      2  C   UNL     1       6.079   4.098  17.173  0.00  0.00    +0.000 C 
ATOM      3  C   UNL     1       4.630   4.587  17.110  0.00  0.00    +0.000 C 
ATOM      4  N   UNL     1       4.518   5.961  17.594  0.00  0.00    +0.000 N 
ATOM      5  C   UNL     1       3.522   6.273  18.500  0.00  0.00    +0.000 A 
ATOM      6  C   UNL     1       2.912   7.517  18.521  0.00  0.00    +0.000 A 
ATOM      7  C   UNL     1       1.960   7.777  19.498  0.00  0.00    +0.000 A 
ATOM      8  N   UNL     1       1.665   6.853  20.431  0.00  0.00    +0.000 NA
ATOM      9  C   UNL     1       2.259   5.665  20.306  0.00  0.00    +0.000 A 
ATOM     10  N   UNL     1       3.159   5.327  19.380  0.00  0.00    +0.000 NA
ATOM     11  C   UNL     1       5.426   6.961  17.054  0.00  0.00    +0.000 C 
ATOM     12  C   UNL     1       6.866   6.477  17.216  0.00  0.00    +0.000 C 
ENDROOT
BRANCH   7  13
ATOM     13  C   UNL     1       1.218   9.068  19.575  0.00  0.00    +0.000 A 
ATOM     14  C   UNL     1       1.184   9.901  18.431  0.00  0.00    +0.000 A 
ATOM     15  C   UNL     1       0.503  11.117  18.426  0.00  0.00    +0.000 A 
ATOM     16  C   UNL     1      -0.145  11.544  19.575  0.00  0.00    +0.000 A 
ATOM     17  C   UNL     1      -0.134  10.768  20.739  0.00  0.00    +0.000 A 
ATOM     18  C   UNL     1      -0.802  11.241  21.884  0.00  0.00    +0.000 A 
ATOM     19  C   UNL     1      -0.818  10.511  23.069  0.00  0.00    +0.000 A 
ATOM     20  C   UNL     1      -0.188   9.281  23.116  0.00  0.00    +0.000 A 
ATOM     21  C   UNL     1       0.457   8.788  21.979  0.00  0.00    +0.000 A 
ATOM     22  C   UNL     1       0.537   9.517  20.760  0.00  0.00    +0.000 A 
ENDBRANCH   7  13
BRANCH   1  23
ATOM     23  C   UNL     1       7.095   5.086  15.046  0.00  0.00    +0.000 C 
BRANCH  23  24
ATOM     24  C   UNL     1       5.907   4.379  14.383  0.00  0.00    +0.000 C 
BRANCH  24  25
ATOM     25  N   UNL     1       6.307   3.122  13.700  0.00  0.00    +0.000 NA
ATOM     26  H   UNL     1       7.222   2.798  14.016  0.00  0.00    +0.000 HD
BRANCH  25  27
ATOM     27  S   UNL     1       6.404   3.304  12.034  0.00  0.00    +0.000 S 
ATOM     28  O   UNL     1       6.835   2.054  11.467  0.00  0.00    +0.000 OA
ATOM     29  O   UNL     1       7.008   4.570  11.728  0.00  0.00    +0.000 OA
BRANCH  27  30
ATOM     30  N   UNL     1       4.778   3.457  11.732  0.00  0.00    +0.000 NA
ATOM     31  H   UNL     1       4.580   3.052  10.817  0.00  0.00    +0.000 HD
ATOM     32  H   UNL     1       4.531   4.448  11.741  0.00  0.00    +0.000 HD
ENDBRANCH  27  30
ENDBRANCH  25  27
ENDBRANCH  24  25
ENDBRANCH  23  24
ENDBRANCH   1  23
TORSDOF 6
ENDMDL
MODEL 7
REMARK VINA RESULT:      -7.5      3.617      5.214
REMARK  Name = 
REMARK  6 active torsions:
REMARK  status: ('A' for Active; 'I' for Inactive)
REMARK    1  A    between atoms: N_1  and  S_2
REMARK    2  A    between atoms: S_2  and  N_5
REMARK    3  A    between atoms: N_5  and  C_6
REMARK    4  A    between atoms: C_6  and  C_7
REMARK    5  A    between atoms: C_7  and  C_8
REMARK    6  A    between atoms: C_14  and  C_15
REMARK                            x       y       z     vdW  Elec       q    Type
REMARK                         _______ _______ _______ _____ _____    ______ ____
ROOT
ATOM      1  C   UNL     1       2.573   5.744  19.143  0.00  0.00    +0.000 C 
ATOM      2  C   UNL     1       2.282   6.603  17.896  0.00  0.00    +0.000 C 
ATOM      3  C   UNL     1       2.365   8.112  18.144  0.00  0.00    +0.000 C 
ATOM      4  N   UNL     1       1.631   8.486  19.351  0.00  0.00    +0.000 N 
ATOM      5  C   UNL     1       0.767   9.562  19.302  0.00  0.00    +0.000 A 
ATOM      6  C   UNL     1       0.552  10.382  20.399  0.00  0.00    +0.000 A 
ATOM      7  C   UNL     1      -0.376  11.409  20.292  0.00  0.00    +0.000 A 
ATOM      8  N   UNL     1      -1.083  11.580  19.160  0.00  0.00    +0.000 NA
ATOM      9  C   UNL     1      -0.776  10.781  18.136  0.00  0.00    +0.000 A 
ATOM     10  N   UNL     1       0.121   9.793  18.149  0.00  0.00    +0.000 NA
ATOM     11  C   UNL     1       1.890   7.744  20.575  0.00  0.00    +0.000 C 
ATOM     12  C   UNL     1       1.710   6.250  20.310  0.00  0.00    +0.000 C 
ENDROOT
BRANCH   7  13
ATOM     13  C   UNL     1      -0.644  12.369  21.400  0.00  0.00    +0.000 A 
ATOM     14  C   UNL     1      -1.628  12.038  22.362  0.00  0.00    +0.000 A 
ATOM     15  C   UNL     1      -1.927  12.883  23.431  0.00  0.00    +0.000 A 
ATOM     16  C   UNL     1      -1.263  14.093  23.554  0.00  0.00    +0.000 A 
ATOM     17  C   UNL     1      -0.290  14.478  22.626  0.00  0.00    +0.000 A 
ATOM     18  C   UNL     1       0.358  15.717  22.786  0.00  0.00    +0.000 A 
ATOM     19  C   UNL     1       1.330  16.151  21.888  0.00  0.00    +0.000 A 
ATOM     20  C   UNL     1       1.689  15.335  20.832  0.00  0.00    +0.000 A 
ATOM     21  C   UNL     1       1.072  14.092  20.675  0.00  0.00    +0.000 A 
ATOM     22  C   UNL     1       0.044  13.626  21.541  0.00  0.00    +0.000 A 
ENDBRANCH   7  13
BRANCH   1  23
ATOM     23  C   UNL     1       4.084   5.680  19.455  0.00  0.00    +0.000 C 
BRANCH  23  24
ATOM     24  C   UNL     1       4.924   4.791  18.530  0.00  0.00    +0.000 C 
BRANCH  24  25
ATOM     25  N   UNL     1       6.205   4.375  19.156  0.00  0.00    +0.000 NA
ATOM     26  H   UNL     1       6.229   4.605  20.150  0.00  0.00    +0.000 HD
BRANCH  25  27
ATOM     27  S   UNL     1       7.532   5.124  18.451  0.00  0.00    +0.000 S 
ATOM     28  O   UNL     1       7.095   6.365  17.870  0.00  0.00    +0.000 OA
ATOM     29  O   UNL     1       8.313   4.145  17.748  0.00  0.00    +0.000 OA
BRANCH  27  30
ATOM     30  N   UNL     1       8.352   5.485  19.849  0.00  0.00    +0.000 NA
ATOM     31  H   UNL     1       8.392   6.500  19.948  0.00  0.00    +0.000 HD
ATOM     32  H   UNL     1       9.296   5.099  19.788  0.00  0.00    +0.000 HD
ENDBRANCH  27  30
ENDBRANCH  25  27
ENDBRANCH  24  25
ENDBRANCH  23  24
ENDBRANCH   1  23
TORSDOF 6
ENDMDL
MODEL 8
REMARK VINA RESULT:      -7.5      2.013      3.402
REMARK  Name = 
REMARK  6 active torsions:
REMARK  status: ('A' for Active; 'I' for Inactive)
REMARK    1  A    between atoms: N_1  and  S_2
REMARK    2  A    between atoms: S_2  and  N_5
REMARK    3  A    between atoms: N_5  and  C_6
REMARK    4  A    between atoms: C_6  and  C_7
REMARK    5  A    between atoms: C_7  and  C_8
REMARK    6  A    between atoms: C_14  and  C_15
REMARK                            x       y       z     vdW  Elec       q    Type
REMARK                         _______ _______ _______ _____ _____    ______ ____
ROOT
ATOM      1  C   UNL     1       4.059   4.835  18.826  0.00  0.00    +0.000 C 
ATOM      2  C   UNL     1       3.234   4.793  20.128  0.00  0.00    +0.000 C 
ATOM      3  C   UNL     1       1.959   5.639  20.087  0.00  0.00    +0.000 C 
ATOM      4  N   UNL     1       2.233   6.974  19.559  0.00  0.00    +0.000 N 
ATOM      5  C   UNL     1       1.734   8.074  20.229  0.00  0.00    +0.000 A 
ATOM      6  C   UNL     1       1.352   9.229  19.565  0.00  0.00    +0.000 A 
ATOM      7  C   UNL     1       0.916  10.315  20.311  0.00  0.00    +0.000 A 
ATOM      8  N   UNL     1       0.902  10.262  21.656  0.00  0.00    +0.000 NA
ATOM      9  C   UNL     1       1.234   9.095  22.213  0.00  0.00    +0.000 A 
ATOM     10  N   UNL     1       1.634   7.999  21.565  0.00  0.00    +0.000 NA
ATOM     11  C   UNL     1       2.969   7.086  18.310  0.00  0.00    +0.000 C 
ATOM     12  C   UNL     1       4.277   6.302  18.421  0.00  0.00    +0.000 C 
ENDROOT
BRANCH   7  13
ATOM     13  C   UNL     1       0.444  11.583  19.686  0.00  0.00    +0.000 A 
ATOM     14  C   UNL     1      -0.767  11.569  18.953  0.00  0.00    +0.000 A 
ATOM     15  C   UNL     1      -1.275  12.718  18.348  0.00  0.00    +0.000 A 
ATOM     16  C   UNL     1      -0.573  13.909  18.443  0.00  0.00    +0.000 A 
ATOM     17  C   UNL     1       0.635  13.980  19.144  0.00  0.00    +0.000 A 
ATOM     18  C   UNL     1       1.318  15.208  19.211  0.00  0.00    +0.000 A 
ATOM     19  C   UNL     1       2.526  15.332  19.892  0.00  0.00    +0.000 A 
ATOM     20  C   UNL     1       3.055  14.231  20.539  0.00  0.00    +0.000 A 
ATOM     21  C   UNL     1       2.376  13.011  20.501  0.00  0.00    +0.000 A 
ATOM     22  C   UNL     1       1.161  12.827  19.783  0.00  0.00    +0.000 A 
ENDBRANCH   7  13
BRANCH   1  23
ATOM     23  C   UNL     1       3.431   3.960  17.720  0.00  0.00    +0.000 C 
BRANCH  23  24
ATOM     24  C   UNL     1       4.127   4.000  16.354  0.00  0.00    +0.000 C 
BRANCH  24  25
ATOM     25  N   UNL     1       5.549   3.578  16.433  0.00  0.00    +0.000 NA
ATOM     26  H   UNL     1       5.889   3.582  17.395  0.00  0.00    +0.000 HD
BRANCH  25  27
ATOM     27  S   UNL     1       6.564   4.585  15.554  0.00  0.00    +0.000 S 
ATOM     28  O   UNL     1       7.893   4.467  16.090  0.00  0.00    +0.000 OA
ATOM     29  O   UNL     1       5.904   5.840  15.324  0.00  0.00    +0.000 OA
BRANCH  27  30
ATOM     30  N   UNL     1       6.524   3.747  14.121  0.00  0.00    +0.000 NA
ATOM     31  H   UNL     1       7.482   3.530  13.847  0.00  0.00    +0.000 HD
ATOM     32  H   UNL     1       6.074   4.326  13.411  0.00  0.00    +0.000 HD
ENDBRANCH  27  30
ENDBRANCH  25  27
ENDBRANCH  24  25
ENDBRANCH  23  24
ENDBRANCH   1  23
TORSDOF 6
ENDMDL
MODEL 9
REMARK VINA RESULT:      -7.4      2.446      3.556
REMARK  Name = 
REMARK  6 active torsions:
REMARK  status: ('A' for Active; 'I' for Inactive)
REMARK    1  A    between atoms: N_1  and  S_2
REMARK    2  A    between atoms: S_2  and  N_5
REMARK    3  A    between atoms: N_5  and  C_6
REMARK    4  A    between atoms: C_6  and  C_7
REMARK    5  A    between atoms: C_7  and  C_8
REMARK    6  A    between atoms: C_14  and  C_15
REMARK                            x       y       z     vdW  Elec       q    Type
REMARK                         _______ _______ _______ _____ _____    ______ ____
ROOT
ATOM      1  C   UNL     1       3.867   5.530  18.614  0.00  0.00    +0.000 C 
ATOM      2  C   UNL     1       3.188   5.312  19.981  0.00  0.00    +0.000 C 
ATOM      3  C   UNL     1       1.857   6.051  20.141  0.00  0.00    +0.000 C 
ATOM      4  N   UNL     1       1.974   7.442  19.710  0.00  0.00    +0.000 N 
ATOM      5  C   UNL     1       1.468   8.439  20.523  0.00  0.00    +0.000 A 
ATOM      6  C   UNL     1       0.935   9.609  20.005  0.00  0.00    +0.000 A 
ATOM      7  C   UNL     1       0.499  10.590  20.885  0.00  0.00    +0.000 A 
ATOM      8  N   UNL     1       0.630  10.426  22.214  0.00  0.00    +0.000 NA
ATOM      9  C   UNL     1       1.104   9.250  22.629  0.00  0.00    +0.000 A 
ATOM     10  N   UNL     1       1.515   8.247  21.850  0.00  0.00    +0.000 NA
ATOM     11  C   UNL     1       2.566   7.717  18.411  0.00  0.00    +0.000 C 
ATOM     12  C   UNL     1       3.933   7.038  18.323  0.00  0.00    +0.000 C 
ENDROOT
BRANCH   7  13
ATOM     13  C   UNL     1      -0.128  11.861  20.425  0.00  0.00    +0.000 A 
ATOM     14  C   UNL     1      -1.531  12.010  20.549  0.00  0.00    +0.000 A 
ATOM     15  C   UNL     1      -2.186  13.174  20.149  0.00  0.00    +0.000 A 
ATOM     16  C   UNL     1      -1.457  14.214  19.593  0.00  0.00    +0.000 A 
ATOM     17  C   UNL     1      -0.070  14.118  19.434  0.00  0.00    +0.000 A 
ATOM     18  C   UNL     1       0.630  15.195  18.862  0.00  0.00    +0.000 A 
ATOM     19  C   UNL     1       2.010  15.150  18.677  0.00  0.00    +0.000 A 
ATOM     20  C   UNL     1       2.712  14.033  19.090  0.00  0.00    +0.000 A 
ATOM     21  C   UNL     1       2.032  12.966  19.683  0.00  0.00    +0.000 A 
ATOM     22  C   UNL     1       0.620  12.950  19.853  0.00  0.00    +0.000 A 
ENDBRANCH   7  13
BRANCH   1  23
ATOM     23  C   UNL     1       3.194   4.699  17.500  0.00  0.00    +0.000 C 
BRANCH  23  24
ATOM     24  C   UNL     1       4.129   3.830  16.651  0.00  0.00    +0.000 C 
BRANCH  24  25
ATOM     25  N   UNL     1       5.547   3.944  17.077  0.00  0.00    +0.000 NA
ATOM     26  H   UNL     1       5.664   4.642  17.812  0.00  0.00    +0.000 HD
BRANCH  25  27
ATOM     27  S   UNL     1       6.559   4.391  15.815  0.00  0.00    +0.000 S 
ATOM     28  O   UNL     1       6.188   3.635  14.649  0.00  0.00    +0.000 OA
ATOM     29  O   UNL     1       7.906   4.500  16.301  0.00  0.00    +0.000 OA
BRANCH  27  30
ATOM     30  N   UNL     1       5.991   5.938  15.612  0.00  0.00    +0.000 NA
ATOM     31  H   UNL     1       6.144   6.214  14.641  0.00  0.00    +0.000 HD
ATOM     32  H   UNL     1       6.498   6.562  16.241  0.00  0.00    +0.000 HD
ENDBRANCH  27  30
ENDBRANCH  25  27
ENDBRANCH  24  25
ENDBRANCH  23  24
ENDBRANCH   1  23
TORSDOF 6
ENDMDL
