MODEL 1
REMARK VINA RESULT:      -8.6      0.000      0.000
REMARK  Name = 
REMARK  10 active torsions:
REMARK  status: ('A' for Active; 'I' for Inactive)
REMARK    1  A    between atoms: C_1  and  N_2
REMARK    2  A    between atoms: C_3  and  C_5
REMARK    3  A    between atoms: C_11  and  O_12
REMARK    4  A    between atoms: O_12  and  C_13
REMARK    5  A    between atoms: C_19  and  O_20
REMARK    6  A    between atoms: O_20  and  C_21
REMARK    7  A    between atoms: C_21  and  C_22
REMARK    8  A    between atoms: C_22  and  N_23
REMARK    9  A    between atoms: C_26  and  O_27
REMARK   10  A    between atoms: O_27  and  C_28
REMARK                            x       y       z     vdW  Elec       q    Type
REMARK                         _______ _______ _______ _____ _____    ______ ____
ROOT
ATOM      1  C   UNL     1       2.535   5.105  19.260  0.00  0.00    +0.000 A 
ATOM      2  C   UNL     1       1.514   4.154  19.236  0.00  0.00    +0.000 A 
ATOM      3  C   UNL     1       1.404   3.248  18.190  0.00  0.00    +0.000 A 
ATOM      4  N   UNL     1       2.301   3.285  17.177  0.00  0.00    +0.000 NA
ATOM      5  C   UNL     1       3.331   4.161  17.153  0.00  0.00    +0.000 A 
ATOM      6  C   UNL     1       4.223   4.144  16.102  0.00  0.00    +0.000 A 
ATOM      7  C   UNL     1       5.321   5.038  16.000  0.00  0.00    +0.000 A 
ATOM      8  C   UNL     1       5.510   5.982  17.111  0.00  0.00    +0.000 A 
ATOM      9  C   UNL     1       4.591   5.959  18.158  0.00  0.00    +0.000 A 
ATOM     10  C   UNL     1       3.497   5.092  18.210  0.00  0.00    +0.000 A 
ENDROOT
BRANCH   8  11
ATOM     11  O   UNL     1       6.455   6.967  17.281  0.00  0.00    +0.000 OA
ATOM     12  C   UNL     1       7.745   7.172  17.747  0.00  0.00    +0.000 C 
ENDBRANCH   8  11
BRANCH   1  13
ATOM     13  O   UNL     1       2.579   6.009  20.288  0.00  0.00    +0.000 OA
BRANCH  13  20
ATOM     14  C   UNL     1      -0.042  11.026  20.475  0.00  0.00    +0.000 A 
ATOM     15  C   UNL     1      -0.791  11.322  21.640  0.00  0.00    +0.000 A 
ATOM     16  C   UNL     1      -0.912  10.405  22.681  0.00  0.00    +0.000 A 
ATOM     17  C   UNL     1      -0.262   9.174  22.619  0.00  0.00    +0.000 A 
ATOM     18  C   UNL     1       0.492   8.832  21.483  0.00  0.00    +0.000 A 
ATOM     19  C   UNL     1       1.169   7.587  21.443  0.00  0.00    +0.000 A 
ATOM     20  C   UNL     1       1.905   7.215  20.305  0.00  0.00    +0.000 A 
ATOM     21  C   UNL     1       1.945   8.093  19.220  0.00  0.00    +0.000 A 
ATOM     22  C   UNL     1       1.320   9.332  19.263  0.00  0.00    +0.000 A 
ATOM     23  C   UNL     1       0.579   9.739  20.394  0.00  0.00    +0.000 A 
BRANCH  14  26
ATOM     24  C   UNL     1       1.307  13.941  18.337  0.00  0.00    +0.000 C 
ATOM     25  N   UNL     1       1.119  12.961  19.387  0.00  0.00    +0.000 N 
ATOM     26  C   UNL     1       0.074  12.087  19.409  0.00  0.00    +0.000 C 
ATOM     27  O   UNL     1      -0.743  12.143  18.496  0.00  0.00    +0.000 OA
ATOM     28  H   UNL     1       1.856  12.896  20.106  0.00  0.00    +0.000 HD
ENDBRANCH  14  26
ENDBRANCH  13  20
ENDBRANCH   1  13
BRANCH   7  29
ATOM     29  O   UNL     1       6.090   4.995  14.884  0.00  0.00    +0.000 OA
BRANCH  29  30
ATOM     30  C   UNL     1       6.246   3.766  14.204  0.00  0.00    +0.000 C 
BRANCH  30  31
ATOM     31  C   UNL     1       6.146   3.857  12.706  0.00  0.00    +0.000 C 
ATOM     32  C   UNL     1       5.986   2.500  12.081  0.00  0.00    +0.000 C 
ATOM     33  C   UNL     1       4.876   3.548  11.947  0.00  0.00    +0.000 C 
BRANCH  31  34
ATOM     34  N   UNL     1       7.244   4.569  12.025  0.00  0.00    +0.000 NA
ATOM     35  H   UNL     1       6.884   5.509  11.744  0.00  0.00    +0.000 HD
ATOM     36  H   UNL     1       7.491   4.068  11.143  0.00  0.00    +0.000 HD
ENDBRANCH  31  34
ENDBRANCH  30  31
ENDBRANCH  29  30
ENDBRANCH   7  29
TORSDOF 8
ENDMDL
MODEL 2
REMARK VINA RESULT:      -8.5      1.090      1.203
REMARK  Name = 
REMARK  10 active torsions:
REMARK  status: ('A' for Active; 'I' for Inactive)
REMARK    1  A    between atoms: C_1  and  N_2
REMARK    2  A    between atoms: C_3  and  C_5
REMARK    3  A    between atoms: C_11  and  O_12
REMARK    4  A    between atoms: O_12  and  C_13
REMARK    5  A    between atoms: C_19  and  O_20
REMARK    6  A    between atoms: O_20  and  C_21
REMARK    7  A    between atoms: C_21  and  C_22
REMARK    8  A    between atoms: C_22  and  N_23
REMARK    9  A    between atoms: C_26  and  O_27
REMARK   10  A    between atoms: O_27  and  C_28
REMARK                            x       y       z     vdW  Elec       q    Type
REMARK                         _______ _______ _______ _____ _____    ______ ____
ROOT
ATOM      1  C   UNL     1       2.966   5.463  19.100  0.00  0.00    +0.000 A 
ATOM      2  C   UNL     1       2.003   4.465  19.252  0.00  0.00    +0.000 A 
ATOM      3  C   UNL     1       1.920   3.408  18.357  0.00  0.00    +0.000 A 
ATOM      4  N   UNL     1       2.786   3.341  17.319  0.00  0.00    +0.000 NA
ATOM      5  C   UNL     1       3.762   4.258  17.130  0.00  0.00    +0.000 A 
ATOM      6  C   UNL     1       4.626   4.133  16.063  0.00  0.00    +0.000 A 
ATOM      7  C   UNL     1       5.666   5.060  15.792  0.00  0.00    +0.000 A 
ATOM      8  C   UNL     1       5.827   6.169  16.744  0.00  0.00    +0.000 A 
ATOM      9  C   UNL     1       4.939   6.253  17.814  0.00  0.00    +0.000 A 
ATOM     10  C   UNL     1       3.900   5.345  18.031  0.00  0.00    +0.000 A 
ENDROOT
BRANCH   8  11
ATOM     11  O   UNL     1       6.717   7.218  16.733  0.00  0.00    +0.000 OA
ATOM     12  C   UNL     1       7.705   7.818  17.498  0.00  0.00    +0.000 C 
ENDBRANCH   8  11
BRANCH   1  13
ATOM     13  O   UNL     1       2.983   6.512  19.981  0.00  0.00    +0.000 OA
BRANCH  13  20
ATOM     14  C   UNL     1      -0.687  10.822  20.132  0.00  0.00    +0.000 A 
ATOM     15  C   UNL     1      -1.109  11.269  21.408  0.00  0.00    +0.000 A 
ATOM     16  C   UNL     1      -0.673  10.650  22.577  0.00  0.00    +0.000 A 
ATOM     17  C   UNL     1       0.229   9.590  22.523  0.00  0.00    +0.000 A 
ATOM     18  C   UNL     1       0.677   9.109  21.281  0.00  0.00    +0.000 A 
ATOM     19  C   UNL     1       1.614   8.045  21.240  0.00  0.00    +0.000 A 
ATOM     20  C   UNL     1       2.052   7.532  20.006  0.00  0.00    +0.000 A 
ATOM     21  C   UNL     1       1.539   8.087  18.833  0.00  0.00    +0.000 A 
ATOM     22  C   UNL     1       0.652   9.155  18.859  0.00  0.00    +0.000 A 
ATOM     23  C   UNL     1       0.198   9.698  20.081  0.00  0.00    +0.000 A 
BRANCH  14  26
ATOM     24  C   UNL     1      -2.513  11.676  16.842  0.00  0.00    +0.000 C 
ATOM     25  N   UNL     1      -1.964  10.971  17.981  0.00  0.00    +0.000 N 
ATOM     26  C   UNL     1      -1.172  11.570  18.915  0.00  0.00    +0.000 C 
ATOM     27  O   UNL     1      -0.912  12.759  18.772  0.00  0.00    +0.000 OA
ATOM     28  H   UNL     1      -2.251   9.989  18.109  0.00  0.00    +0.000 HD
ENDBRANCH  14  26
ENDBRANCH  13  20
ENDBRANCH   1  13
BRANCH   7  29
ATOM     29  O   UNL     1       6.407   4.892  14.669  0.00  0.00    +0.000 OA
BRANCH  29  30
ATOM     30  C   UNL     1       6.366   3.649  13.997  0.00  0.00    +0.000 C 
BRANCH  30  31
ATOM     31  C   UNL     1       6.184   3.743  12.507  0.00  0.00    +0.000 C 
ATOM     32  C   UNL     1       5.936   2.393  11.897  0.00  0.00    +0.000 C 
ATOM     33  C   UNL     1       4.862   3.483  11.824  0.00  0.00    +0.000 C 
BRANCH  31  34
ATOM     34  N   UNL     1       7.268   4.411  11.763  0.00  0.00    +0.000 NA
ATOM     35  H   UNL     1       8.132   4.359  12.350  0.00  0.00    +0.000 HD
ATOM     36  H   UNL     1       7.044   5.424  11.653  0.00  0.00    +0.000 HD
ENDBRANCH  31  34
ENDBRANCH  30  31
ENDBRANCH  29  30
ENDBRANCH   7  29
TORSDOF 8
ENDMDL
MODEL 3
REMARK VINA RESULT:      -8.1      3.447     10.073
REMARK  Name = 
REMARK  10 active torsions:
REMARK  status: ('A' for Active; 'I' for Inactive)
REMARK    1  A    between atoms: C_1  and  N_2
REMARK    2  A    between atoms: C_3  and  C_5
REMARK    3  A    between atoms: C_11  and  O_12
REMARK    4  A    between atoms: O_12  and  C_13
REMARK    5  A    between atoms: C_19  and  O_20
REMARK    6  A    between atoms: O_20  and  C_21
REMARK    7  A    between atoms: C_21  and  C_22
REMARK    8  A    between atoms: C_22  and  N_23
REMARK    9  A    between atoms: C_26  and  O_27
REMARK   10  A    between atoms: O_27  and  C_28
REMARK                            x       y       z     vdW  Elec       q    Type
REMARK                         _______ _______ _______ _____ _____    ______ ____
ROOT
ATOM      1  C   UNL     1       0.613  10.433  18.820  0.00  0.00    +0.000 A 
ATOM      2  C   UNL     1       1.243  10.856  19.991  0.00  0.00    +0.000 A 
ATOM      3  C   UNL     1       0.565  11.615  20.935  0.00  0.00    +0.000 A 
ATOM      4  N   UNL     1      -0.727  11.952  20.719  0.00  0.00    +0.000 NA
ATOM      5  C   UNL     1      -1.407  11.550  19.620  0.00  0.00    +0.000 A 
ATOM      6  C   UNL     1      -2.728  11.910  19.459  0.00  0.00    +0.000 A 
ATOM      7  C   UNL     1      -3.503  11.538  18.329  0.00  0.00    +0.000 A 
ATOM      8  C   UNL     1      -2.843  10.688  17.327  0.00  0.00    +0.000 A 
ATOM      9  C   UNL     1      -1.510  10.339  17.533  0.00  0.00    +0.000 A 
ATOM     10  C   UNL     1      -0.763  10.755  18.637  0.00  0.00    +0.000 A 
ENDROOT
BRANCH   8  11
ATOM     11  O   UNL     1      -3.323  10.195  16.136  0.00  0.00    +0.000 OA
ATOM     12  C   UNL     1      -3.075  10.203  14.772  0.00  0.00    +0.000 C 
ENDBRANCH   8  11
BRANCH   1  13
ATOM     13  O   UNL     1       1.333   9.725  17.895  0.00  0.00    +0.000 OA
BRANCH  13  20
ATOM     14  C   UNL     1       4.057   4.864  18.903  0.00  0.00    +0.000 A 
ATOM     15  C   UNL     1       3.578   4.062  19.967  0.00  0.00    +0.000 A 
ATOM     16  C   UNL     1       2.507   4.467  20.759  0.00  0.00    +0.000 A 
ATOM     17  C   UNL     1       1.847   5.667  20.499  0.00  0.00    +0.000 A 
ATOM     18  C   UNL     1       2.286   6.499  19.455  0.00  0.00    +0.000 A 
ATOM     19  C   UNL     1       1.591   7.705  19.185  0.00  0.00    +0.000 A 
ATOM     20  C   UNL     1       2.032   8.565  18.163  0.00  0.00    +0.000 A 
ATOM     21  C   UNL     1       3.166   8.206  17.433  0.00  0.00    +0.000 A 
ATOM     22  C   UNL     1       3.831   7.009  17.661  0.00  0.00    +0.000 A 
ATOM     23  C   UNL     1       3.410   6.120  18.675  0.00  0.00    +0.000 A 
BRANCH  14  26
ATOM     24  C   UNL     1       6.142   3.682  15.879  0.00  0.00    +0.000 C 
ATOM     25  N   UNL     1       5.052   4.111  16.730  0.00  0.00    +0.000 N 
ATOM     26  C   UNL     1       5.196   4.338  18.066  0.00  0.00    +0.000 C 
ATOM     27  O   UNL     1       6.303   4.162  18.563  0.00  0.00    +0.000 OA
ATOM     28  H   UNL     1       4.149   4.311  16.272  0.00  0.00    +0.000 HD
ENDBRANCH  14  26
ENDBRANCH  13  20
ENDBRANCH   1  13
BRANCH   7  29
ATOM     29  O   UNL     1      -4.767  12.015  18.226  0.00  0.00    +0.000 OA
BRANCH  29  30
ATOM     30  C   UNL     1      -5.349  12.669  19.336  0.00  0.00    +0.000 C 
BRANCH  30  31
ATOM     31  C   UNL     1      -6.191  11.789  20.217  0.00  0.00    +0.000 C 
ATOM     32  C   UNL     1      -7.643  11.856  19.834  0.00  0.00    +0.000 C 
ATOM     33  C   UNL     1      -6.872  10.536  19.716  0.00  0.00    +0.000 C 
BRANCH  31  34
ATOM     34  N   UNL     1      -6.070  12.019  21.669  0.00  0.00    +0.000 NA
ATOM     35  H   UNL     1      -5.209  11.524  21.995  0.00  0.00    +0.000 HD
ATOM     36  H   UNL     1      -6.875  11.574  22.162  0.00  0.00    +0.000 HD
ENDBRANCH  31  34
ENDBRANCH  30  31
ENDBRANCH  29  30
ENDBRANCH   7  29
TORSDOF 8
ENDMDL
MODEL 4
REMARK VINA RESULT:      -8.0      1.415      1.573
REMARK  Name = 
REMARK  10 active torsions:
REMARK  status: ('A' for Active; 'I' for Inactive)
REMARK    1  A    between atoms: C_1  and  N_2
REMARK    2  A    between atoms: C_3  and  C_5
REMARK    3  A    between atoms: C_11  and  O_12
REMARK    4  A    between atoms: O_12  and  C_13
REMARK    5  A    between atoms: C_19  and  O_20
REMARK    6  A    between atoms: O_20  and  C_21
REMARK    7  A    between atoms: C_21  and  C_22
REMARK    8  A    between atoms: C_22  and  N_23
REMARK    9  A    between atoms: C_26  and  O_27
REMARK   10  A    between atoms: O_27  and  C_28
REMARK                            x       y       z     vdW  Elec       q    Type
REMARK                         _______ _______ _______ _____ _____    ______ ____
ROOT
ATOM      1  C   UNL     1       2.013   4.982  20.165  0.00  0.00    +0.000 A 
ATOM      2  C   UNL     1       0.846   4.248  19.948  0.00  0.00    +0.000 A 
ATOM      3  C   UNL     1       0.792   3.262  18.972  0.00  0.00    +0.000 A 
ATOM      4  N   UNL     1       1.886   3.008  18.217  0.00  0.00    +0.000 NA
ATOM      5  C   UNL     1       3.057   3.661  18.396  0.00  0.00    +0.000 A 
ATOM      6  C   UNL     1       4.144   3.351  17.607  0.00  0.00    +0.000 A 
ATOM      7  C   UNL     1       5.401   4.000  17.725  0.00  0.00    +0.000 A 
ATOM      8  C   UNL     1       5.523   5.015  18.782  0.00  0.00    +0.000 A 
ATOM      9  C   UNL     1       4.403   5.291  19.563  0.00  0.00    +0.000 A 
ATOM     10  C   UNL     1       3.168   4.662  19.395  0.00  0.00    +0.000 A 
ENDROOT
BRANCH   8  11
ATOM     11  O   UNL     1       6.591   5.814  19.118  0.00  0.00    +0.000 OA
ATOM     12  C   UNL     1       7.925   5.752  19.491  0.00  0.00    +0.000 C 
ENDBRANCH   8  11
BRANCH   1  13
ATOM     13  O   UNL     1       2.008   5.976  21.108  0.00  0.00    +0.000 OA
BRANCH  13  20
ATOM     14  C   UNL     1       0.152  11.278  20.394  0.00  0.00    +0.000 A 
ATOM     15  C   UNL     1      -0.664  11.821  21.415  0.00  0.00    +0.000 A 
ATOM     16  C   UNL     1      -1.031  11.072  22.530  0.00  0.00    +0.000 A 
ATOM     17  C   UNL     1      -0.568   9.768  22.690  0.00  0.00    +0.000 A 
ATOM     18  C   UNL     1       0.245   9.183  21.704  0.00  0.00    +0.000 A 
ATOM     19  C   UNL     1       0.731   7.864  21.891  0.00  0.00    +0.000 A 
ATOM     20  C   UNL     1       1.522   7.252  20.902  0.00  0.00    +0.000 A 
ATOM     21  C   UNL     1       1.807   7.968  19.739  0.00  0.00    +0.000 A 
ATOM     22  C   UNL     1       1.372   9.274  19.562  0.00  0.00    +0.000 A 
ATOM     23  C   UNL     1       0.581   9.920  20.538  0.00  0.00    +0.000 A 
BRANCH  14  26
ATOM     24  C   UNL     1       2.226  13.471  17.989  0.00  0.00    +0.000 C 
ATOM     25  N   UNL     1       1.795  12.680  19.123  0.00  0.00    +0.000 N 
ATOM     26  C   UNL     1       0.539  12.166  19.237  0.00  0.00    +0.000 C 
ATOM     27  O   UNL     1      -0.260  12.393  18.335  0.00  0.00    +0.000 OA
ATOM     28  H   UNL     1       2.507  12.453  19.834  0.00  0.00    +0.000 HD
ENDBRANCH  14  26
ENDBRANCH  13  20
ENDBRANCH   1  13
BRANCH   7  29
ATOM     29  O   UNL     1       6.381   3.680  16.845  0.00  0.00    +0.000 OA
BRANCH  29  30
ATOM     30  C   UNL     1       6.939   4.697  16.037  0.00  0.00    +0.000 C 
BRANCH  30  31
ATOM     31  C   UNL     1       6.116   5.069  14.835  0.00  0.00    +0.000 C 
ATOM     32  C   UNL     1       6.914   4.956  13.566  0.00  0.00    +0.000 C 
ATOM     33  C   UNL     1       5.687   4.065  13.790  0.00  0.00    +0.000 C 
BRANCH  31  34
ATOM     34  N   UNL     1       5.472   6.396  14.875  0.00  0.00    +0.000 NA
ATOM     35  H   UNL     1       5.342   6.652  15.880  0.00  0.00    +0.000 HD
ATOM     36  H   UNL     1       4.518   6.333  14.458  0.00  0.00    +0.000 HD
ENDBRANCH  31  34
ENDBRANCH  30  31
ENDBRANCH  29  30
ENDBRANCH   7  29
TORSDOF 8
ENDMDL
MODEL 5
REMARK VINA RESULT:      -8.0      1.626      2.462
REMARK  Name = 
REMARK  10 active torsions:
REMARK  status: ('A' for Active; 'I' for Inactive)
REMARK    1  A    between atoms: C_1  and  N_2
REMARK    2  A    between atoms: C_3  and  C_5
REMARK    3  A    between atoms: C_11  and  O_12
REMARK    4  A    between atoms: O_12  and  C_13
REMARK    5  A    between atoms: C_19  and  O_20
REMARK    6  A    between atoms: O_20  and  C_21
REMARK    7  A    between atoms: C_21  and  C_22
REMARK    8  A    between atoms: C_22  and  N_23
REMARK    9  A    between atoms: C_26  and  O_27
REMARK   10  A    between atoms: O_27  and  C_28
REMARK                            x       y       z     vdW  Elec       q    Type
REMARK                         _______ _______ _______ _____ _____    ______ ____
ROOT
ATOM      1  C   UNL     1       1.987   4.652  19.941  0.00  0.00    +0.000 A 
ATOM      2  C   UNL     1       0.858   3.869  19.693  0.00  0.00    +0.000 A 
ATOM      3  C   UNL     1       0.849   2.929  18.672  0.00  0.00    +0.000 A 
ATOM      4  N   UNL     1       1.951   2.767  17.903  0.00  0.00    +0.000 NA
ATOM      5  C   UNL     1       3.087   3.471  18.108  0.00  0.00    +0.000 A 
ATOM      6  C   UNL     1       4.185   3.254  17.302  0.00  0.00    +0.000 A 
ATOM      7  C   UNL     1       5.407   3.961  17.447  0.00  0.00    +0.000 A 
ATOM      8  C   UNL     1       5.483   4.931  18.550  0.00  0.00    +0.000 A 
ATOM      9  C   UNL     1       4.354   5.112  19.346  0.00  0.00    +0.000 A 
ATOM     10  C   UNL     1       3.152   4.428  19.153  0.00  0.00    +0.000 A 
ENDROOT
BRANCH   8  11
ATOM     11  O   UNL     1       6.511   5.767  18.920  0.00  0.00    +0.000 OA
ATOM     12  C   UNL     1       7.794   5.753  19.445  0.00  0.00    +0.000 C 
ENDBRANCH   8  11
BRANCH   1  13
ATOM     13  O   UNL     1       1.936   5.599  20.929  0.00  0.00    +0.000 OA
BRANCH  13  20
ATOM     14  C   UNL     1       0.551  11.006  19.976  0.00  0.00    +0.000 A 
ATOM     15  C   UNL     1       0.999  11.586  18.764  0.00  0.00    +0.000 A 
ATOM     16  C   UNL     1       1.781  10.871  17.860  0.00  0.00    +0.000 A 
ATOM     17  C   UNL     1       2.115   9.541  18.110  0.00  0.00    +0.000 A 
ATOM     18  C   UNL     1       1.695   8.922  19.299  0.00  0.00    +0.000 A 
ATOM     19  C   UNL     1       2.020   7.560  19.531  0.00  0.00    +0.000 A 
ATOM     20  C   UNL     1       1.633   6.931  20.727  0.00  0.00    +0.000 A 
ATOM     21  C   UNL     1       0.934   7.677  21.677  0.00  0.00    +0.000 A 
ATOM     22  C   UNL     1       0.575   8.999  21.446  0.00  0.00    +0.000 A 
ATOM     23  C   UNL     1       0.942   9.658  20.251  0.00  0.00    +0.000 A 
BRANCH  14  26
ATOM     24  C   UNL     1      -2.556  12.632  21.586  0.00  0.00    +0.000 C 
ATOM     25  N   UNL     1      -1.672  11.915  20.692  0.00  0.00    +0.000 N 
ATOM     26  C   UNL     1      -0.326  11.833  20.884  0.00  0.00    +0.000 C 
ATOM     27  O   UNL     1       0.152  12.402  21.859  0.00  0.00    +0.000 OA
ATOM     28  H   UNL     1      -2.110  11.394  19.917  0.00  0.00    +0.000 HD
ENDBRANCH  14  26
ENDBRANCH  13  20
ENDBRANCH   1  13
BRANCH   7  29
ATOM     29  O   UNL     1       6.398   3.734  16.550  0.00  0.00    +0.000 OA
BRANCH  29  30
ATOM     30  C   UNL     1       7.028   4.835  15.928  0.00  0.00    +0.000 C 
BRANCH  30  31
ATOM     31  C   UNL     1       6.765   4.962  14.453  0.00  0.00    +0.000 C 
ATOM     32  C   UNL     1       6.383   3.641  13.847  0.00  0.00    +0.000 C 
ATOM     33  C   UNL     1       5.389   4.808  13.848  0.00  0.00    +0.000 C 
BRANCH  31  34
ATOM     34  N   UNL     1       7.850   5.558  13.649  0.00  0.00    +0.000 NA
ATOM     35  H   UNL     1       7.806   5.133  12.696  0.00  0.00    +0.000 HD
ATOM     36  H   UNL     1       8.773   5.288  14.054  0.00  0.00    +0.000 HD
ENDBRANCH  31  34
ENDBRANCH  30  31
ENDBRANCH  29  30
ENDBRANCH   7  29
TORSDOF 8
ENDMDL
MODEL 6
REMARK VINA RESULT:      -7.9      3.684      9.892
REMARK  Name = 
REMARK  10 active torsions:
REMARK  status: ('A' for Active; 'I' for Inactive)
REMARK    1  A    between atoms: C_1  and  N_2
REMARK    2  A    between atoms: C_3  and  C_5
REMARK    3  A    between atoms: C_11  and  O_12
REMARK    4  A    between atoms: O_12  and  C_13
REMARK    5  A    between atoms: C_19  and  O_20
REMARK    6  A    between atoms: O_20  and  C_21
REMARK    7  A    between atoms: C_21  and  C_22
REMARK    8  A    between atoms: C_22  and  N_23
REMARK    9  A    between atoms: C_26  and  O_27
REMARK   10  A    between atoms: O_27  and  C_28
REMARK                            x       y       z     vdW  Elec       q    Type
REMARK                         _______ _______ _______ _____ _____    ______ ____
ROOT
ATOM      1  C   UNL     1       0.687  10.690  19.268  0.00  0.00    +0.000 A 
ATOM      2  C   UNL     1       0.987  11.081  20.574  0.00  0.00    +0.000 A 
ATOM      3  C   UNL     1       0.032  11.686  21.378  0.00  0.00    +0.000 A 
ATOM      4  N   UNL     1      -1.212  11.902  20.891  0.00  0.00    +0.000 NA
ATOM      5  C   UNL     1      -1.579  11.521  19.646  0.00  0.00    +0.000 A 
ATOM      6  C   UNL     1      -2.865  11.753  19.207  0.00  0.00    +0.000 A 
ATOM      7  C   UNL     1      -3.321  11.393  17.911  0.00  0.00    +0.000 A 
ATOM      8  C   UNL     1      -2.359  10.701  17.041  0.00  0.00    +0.000 A 
ATOM      9  C   UNL     1      -1.073  10.478  17.527  0.00  0.00    +0.000 A 
ATOM     10  C   UNL     1      -0.643  10.880  18.794  0.00  0.00    +0.000 A 
ENDROOT
BRANCH   8  11
ATOM     11  O   UNL     1      -2.501  10.257  15.747  0.00  0.00    +0.000 OA
ATOM     12  C   UNL     1      -3.402  10.240  14.692  0.00  0.00    +0.000 C 
ENDBRANCH   8  11
BRANCH   1  13
ATOM     13  O   UNL     1       1.673  10.138  18.495  0.00  0.00    +0.000 OA
BRANCH  13  20
ATOM     14  C   UNL     1       3.234   4.702  18.782  0.00  0.00    +0.000 A 
ATOM     15  C   UNL     1       2.800   3.963  19.908  0.00  0.00    +0.000 A 
ATOM     16  C   UNL     1       2.055   4.555  20.925  0.00  0.00    +0.000 A 
ATOM     17  C   UNL     1       1.680   5.894  20.841  0.00  0.00    +0.000 A 
ATOM     18  C   UNL     1       2.087   6.671  19.743  0.00  0.00    +0.000 A 
ATOM     19  C   UNL     1       1.678   8.026  19.656  0.00  0.00    +0.000 A 
ATOM     20  C   UNL     1       2.098   8.827  18.579  0.00  0.00    +0.000 A 
ATOM     21  C   UNL     1       2.927   8.260  17.610  0.00  0.00    +0.000 A 
ATOM     22  C   UNL     1       3.301   6.924  17.662  0.00  0.00    +0.000 A 
ATOM     23  C   UNL     1       2.891   6.091  18.727  0.00  0.00    +0.000 A 
BRANCH  14  26
ATOM     24  C   UNL     1       5.840   3.896  16.053  0.00  0.00    +0.000 C 
ATOM     25  N   UNL     1       5.028   4.581  17.037  0.00  0.00    +0.000 N 
ATOM     26  C   UNL     1       4.003   3.980  17.703  0.00  0.00    +0.000 C 
ATOM     27  O   UNL     1       3.759   2.806  17.447  0.00  0.00    +0.000 OA
ATOM     28  H   UNL     1       5.297   5.547  17.277  0.00  0.00    +0.000 HD
ENDBRANCH  14  26
ENDBRANCH  13  20
ENDBRANCH   1  13
BRANCH   7  29
ATOM     29  O   UNL     1      -4.579  11.742  17.548  0.00  0.00    +0.000 OA
BRANCH  29  30
ATOM     30  C   UNL     1      -5.659  10.912  17.926  0.00  0.00    +0.000 C 
BRANCH  30  31
ATOM     31  C   UNL     1      -6.823  11.635  18.546  0.00  0.00    +0.000 C 
ATOM     32  C   UNL     1      -6.423  12.994  19.046  0.00  0.00    +0.000 C 
ATOM     33  C   UNL     1      -7.457  12.857  17.923  0.00  0.00    +0.000 C 
BRANCH  31  34
ATOM     34  N   UNL     1      -7.532  10.919  19.624  0.00  0.00    +0.000 NA
ATOM     35  H   UNL     1      -7.629   9.921  19.329  0.00  0.00    +0.000 HD
ATOM     36  H   UNL     1      -8.500  11.297  19.717  0.00  0.00    +0.000 HD
ENDBRANCH  31  34
ENDBRANCH  30  31
ENDBRANCH  29  30
ENDBRANCH   7  29
TORSDOF 8
ENDMDL
MODEL 7
REMARK VINA RESULT:      -7.9      1.271      2.102
REMARK  Name = 
REMARK  10 active torsions:
REMARK  status: ('A' for Active; 'I' for Inactive)
REMARK    1  A    between atoms: C_1  and  N_2
REMARK    2  A    between atoms: C_3  and  C_5
REMARK    3  A    between atoms: C_11  and  O_12
REMARK    4  A    between atoms: O_12  and  C_13
REMARK    5  A    between atoms: C_19  and  O_20
REMARK    6  A    between atoms: O_20  and  C_21
REMARK    7  A    between atoms: C_21  and  C_22
REMARK    8  A    between atoms: C_22  and  N_23
REMARK    9  A    between atoms: C_26  and  O_27
REMARK   10  A    between atoms: O_27  and  C_28
REMARK                            x       y       z     vdW  Elec       q    Type
REMARK                         _______ _______ _______ _____ _____    ______ ____
ROOT
ATOM      1  C   UNL     1       2.758   5.399  19.164  0.00  0.00    +0.000 A 
ATOM      2  C   UNL     1       1.709   4.481  19.230  0.00  0.00    +0.000 A 
ATOM      3  C   UNL     1       1.509   3.549  18.221  0.00  0.00    +0.000 A 
ATOM      4  N   UNL     1       2.343   3.527  17.156  0.00  0.00    +0.000 NA
ATOM      5  C   UNL     1       3.397   4.367  17.044  0.00  0.00    +0.000 A 
ATOM      6  C   UNL     1       4.223   4.291  15.943  0.00  0.00    +0.000 A 
ATOM      7  C   UNL     1       5.340   5.145  15.748  0.00  0.00    +0.000 A 
ATOM      8  C   UNL     1       5.623   6.115  16.816  0.00  0.00    +0.000 A 
ATOM      9  C   UNL     1       4.769   6.153  17.916  0.00  0.00    +0.000 A 
ATOM     10  C   UNL     1       3.655   5.324  18.059  0.00  0.00    +0.000 A 
ENDROOT
BRANCH   8  11
ATOM     11  O   UNL     1       6.607   7.073  16.898  0.00  0.00    +0.000 OA
ATOM     12  C   UNL     1       7.675   7.476  17.686  0.00  0.00    +0.000 C 
ENDBRANCH   8  11
BRANCH   1  13
ATOM     13  O   UNL     1       2.891   6.331  20.158  0.00  0.00    +0.000 OA
BRANCH  13  20
ATOM     14  C   UNL     1      -0.427  10.899  20.598  0.00  0.00    +0.000 A 
ATOM     15  C   UNL     1      -0.867  11.498  19.393  0.00  0.00    +0.000 A 
ATOM     16  C   UNL     1      -0.469  11.012  18.150  0.00  0.00    +0.000 A 
ATOM     17  C   UNL     1       0.349   9.888  18.058  0.00  0.00    +0.000 A 
ATOM     18  C   UNL     1       0.813   9.258  19.226  0.00  0.00    +0.000 A 
ATOM     19  C   UNL     1       1.624   8.099  19.120  0.00  0.00    +0.000 A 
ATOM     20  C   UNL     1       2.121   7.472  20.276  0.00  0.00    +0.000 A 
ATOM     21  C   UNL     1       1.804   8.018  21.520  0.00  0.00    +0.000 A 
ATOM     22  C   UNL     1       0.977   9.128  21.639  0.00  0.00    +0.000 A 
ATOM     23  C   UNL     1       0.456   9.777  20.498  0.00  0.00    +0.000 A 
BRANCH  14  26
ATOM     24  C   UNL     1      -1.491  13.381  23.354  0.00  0.00    +0.000 C 
ATOM     25  N   UNL     1      -0.941  12.800  22.147  0.00  0.00    +0.000 N 
ATOM     26  C   UNL     1      -0.934  11.460  21.903  0.00  0.00    +0.000 C 
ATOM     27  O   UNL     1      -1.412  10.718  22.754  0.00  0.00    +0.000 OA
ATOM     28  H   UNL     1      -0.604  13.453  21.423  0.00  0.00    +0.000 HD
ENDBRANCH  14  26
ENDBRANCH  13  20
ENDBRANCH   1  13
BRANCH   7  29
ATOM     29  O   UNL     1       6.038   5.045  14.591  0.00  0.00    +0.000 OA
BRANCH  29  30
ATOM     30  C   UNL     1       6.218   3.771  14.004  0.00  0.00    +0.000 C 
BRANCH  30  31
ATOM     31  C   UNL     1       6.124   3.748  12.504  0.00  0.00    +0.000 C 
ATOM     32  C   UNL     1       5.900   2.355  11.987  0.00  0.00    +0.000 C 
ATOM     33  C   UNL     1       4.841   3.441  11.766  0.00  0.00    +0.000 C 
BRANCH  31  34
ATOM     34  N   UNL     1       7.255   4.351  11.774  0.00  0.00    +0.000 NA
ATOM     35  H   UNL     1       6.868   5.098  11.154  0.00  0.00    +0.000 HD
ATOM     36  H   UNL     1       7.686   3.638  11.147  0.00  0.00    +0.000 HD
ENDBRANCH  31  34
ENDBRANCH  30  31
ENDBRANCH  29  30
ENDBRANCH   7  29
TORSDOF 8
ENDMDL
MODEL 8
REMARK VINA RESULT:      -7.9      1.119      1.234
REMARK  Name = 
REMARK  10 active torsions:
REMARK  status: ('A' for Active; 'I' for Inactive)
REMARK    1  A    between atoms: C_1  and  N_2
REMARK    2  A    between atoms: C_3  and  C_5
REMARK    3  A    between atoms: C_11  and  O_12
REMARK    4  A    between atoms: O_12  and  C_13
REMARK    5  A    between atoms: C_19  and  O_20
REMARK    6  A    between atoms: O_20  and  C_21
REMARK    7  A    between atoms: C_21  and  C_22
REMARK    8  A    between atoms: C_22  and  N_23
REMARK    9  A    between atoms: C_26  and  O_27
REMARK   10  A    between atoms: O_27  and  C_28
REMARK                            x       y       z     vdW  Elec       q    Type
REMARK                         _______ _______ _______ _____ _____    ______ ____
ROOT
ATOM      1  C   UNL     1       2.293   5.683  20.041  0.00  0.00    +0.000 A 
ATOM      2  C   UNL     1       1.146   4.974  20.402  0.00  0.00    +0.000 A 
ATOM      3  C   UNL     1       0.813   3.783  19.771  0.00  0.00    +0.000 A 
ATOM      4  N   UNL     1       1.610   3.300  18.791  0.00  0.00    +0.000 NA
ATOM      5  C   UNL     1       2.751   3.921  18.413  0.00  0.00    +0.000 A 
ATOM      6  C   UNL     1       3.533   3.376  17.417  0.00  0.00    +0.000 A 
ATOM      7  C   UNL     1       4.736   3.974  16.958  0.00  0.00    +0.000 A 
ATOM      8  C   UNL     1       5.158   5.210  17.633  0.00  0.00    +0.000 A 
ATOM      9  C   UNL     1       4.343   5.722  18.640  0.00  0.00    +0.000 A 
ATOM     10  C   UNL     1       3.144   5.130  19.042  0.00  0.00    +0.000 A 
ENDROOT
BRANCH   8  11
ATOM     11  O   UNL     1       6.248   6.016  17.396  0.00  0.00    +0.000 OA
ATOM     12  C   UNL     1       7.415   6.473  17.987  0.00  0.00    +0.000 C 
ENDBRANCH   8  11
BRANCH   1  13
ATOM     13  O   UNL     1       2.558   6.876  20.657  0.00  0.00    +0.000 OA
BRANCH  13  20
ATOM     14  C   UNL     1      -0.793  11.439  20.793  0.00  0.00    +0.000 A 
ATOM     15  C   UNL     1      -1.447  11.726  22.016  0.00  0.00    +0.000 A 
ATOM     16  C   UNL     1      -1.307  10.900  23.128  0.00  0.00    +0.000 A 
ATOM     17  C   UNL     1      -0.479   9.780  23.078  0.00  0.00    +0.000 A 
ATOM     18  C   UNL     1       0.191   9.453  21.888  0.00  0.00    +0.000 A 
ATOM     19  C   UNL     1       1.050   8.324  21.857  0.00  0.00    +0.000 A 
ATOM     20  C   UNL     1       1.707   7.964  20.667  0.00  0.00    +0.000 A 
ATOM     21  C   UNL     1       1.487   8.735  19.525  0.00  0.00    +0.000 A 
ATOM     22  C   UNL     1       0.681   9.865  19.552  0.00  0.00    +0.000 A 
ATOM     23  C   UNL     1       0.013  10.258  20.732  0.00  0.00    +0.000 A 
BRANCH  14  26
ATOM     24  C   UNL     1      -0.232  14.388  18.368  0.00  0.00    +0.000 C 
ATOM     25  N   UNL     1      -0.150  13.485  19.498  0.00  0.00    +0.000 N 
ATOM     26  C   UNL     1      -0.964  12.403  19.645  0.00  0.00    +0.000 C 
ATOM     27  O   UNL     1      -1.808  12.196  18.780  0.00  0.00    +0.000 OA
ATOM     28  H   UNL     1       0.610  13.650  20.176  0.00  0.00    +0.000 HD
ENDBRANCH  14  26
ENDBRANCH  13  20
ENDBRANCH   1  13
BRANCH   7  29
ATOM     29  O   UNL     1       5.387   3.402  15.916  0.00  0.00    +0.000 OA
BRANCH  29  30
ATOM     30  C   UNL     1       6.564   4.010  15.423  0.00  0.00    +0.000 C 
BRANCH  30  31
ATOM     31  C   UNL     1       6.480   4.487  13.999  0.00  0.00    +0.000 C 
ATOM     32  C   UNL     1       6.412   3.335  13.037  0.00  0.00    +0.000 C 
ATOM     33  C   UNL     1       5.242   4.318  13.149  0.00  0.00    +0.000 C 
BRANCH  31  34
ATOM     34  N   UNL     1       7.542   5.412  13.561  0.00  0.00    +0.000 NA
ATOM     35  H   UNL     1       8.261   5.447  14.318  0.00  0.00    +0.000 HD
ATOM     36  H   UNL     1       7.152   6.376  13.476  0.00  0.00    +0.000 HD
ENDBRANCH  31  34
ENDBRANCH  30  31
ENDBRANCH  29  30
ENDBRANCH   7  29
TORSDOF 8
ENDMDL
MODEL 9
REMARK VINA RESULT:      -7.8      3.591     10.171
REMARK  Name = 
REMARK  10 active torsions:
REMARK  status: ('A' for Active; 'I' for Inactive)
REMARK    1  A    between atoms: C_1  and  N_2
REMARK    2  A    between atoms: C_3  and  C_5
REMARK    3  A    between atoms: C_11  and  O_12
REMARK    4  A    between atoms: O_12  and  C_13
REMARK    5  A    between atoms: C_19  and  O_20
REMARK    6  A    between atoms: O_20  and  C_21
REMARK    7  A    between atoms: C_21  and  C_22
REMARK    8  A    between atoms: C_22  and  N_23
REMARK    9  A    between atoms: C_26  and  O_27
REMARK   10  A    between atoms: O_27  and  C_28
REMARK                            x       y       z     vdW  Elec       q    Type
REMARK                         _______ _______ _______ _____ _____    ______ ____
ROOT
ATOM      1  C   UNL     1       0.906   9.568  18.727  0.00  0.00    +0.000 A 
ATOM      2  C   UNL     1       1.422   9.504  20.023  0.00  0.00    +0.000 A 
ATOM      3  C   UNL     1       0.713  10.012  21.102  0.00  0.00    +0.000 A 
ATOM      4  N   UNL     1      -0.498  10.580  20.898  0.00  0.00    +0.000 NA
ATOM      5  C   UNL     1      -1.070  10.648  19.674  0.00  0.00    +0.000 A 
ATOM      6  C   UNL     1      -2.313  11.225  19.527  0.00  0.00    +0.000 A 
ATOM      7  C   UNL     1      -2.972  11.344  18.275  0.00  0.00    +0.000 A 
ATOM      8  C   UNL     1      -2.283  10.771  17.110  0.00  0.00    +0.000 A 
ATOM      9  C   UNL     1      -1.033  10.189  17.303  0.00  0.00    +0.000 A 
ATOM     10  C   UNL     1      -0.393  10.123  18.543  0.00  0.00    +0.000 A 
ENDROOT
BRANCH   8  11
ATOM     11  O   UNL     1      -2.656  10.754  15.785  0.00  0.00    +0.000 OA
ATOM     12  C   UNL     1      -3.666  10.316  14.942  0.00  0.00    +0.000 C 
ENDBRANCH   8  11
BRANCH   1  13
ATOM     13  O   UNL     1       1.659   9.095  17.686  0.00  0.00    +0.000 OA
BRANCH  13  20
ATOM     14  C   UNL     1       4.950   4.499  18.039  0.00  0.00    +0.000 A 
ATOM     15  C   UNL     1       6.276   4.614  17.556  0.00  0.00    +0.000 A 
ATOM     16  C   UNL     1       6.742   5.793  16.980  0.00  0.00    +0.000 A 
ATOM     17  C   UNL     1       5.920   6.915  16.899  0.00  0.00    +0.000 A 
ATOM     18  C   UNL     1       4.595   6.852  17.364  0.00  0.00    +0.000 A 
ATOM     19  C   UNL     1       3.776   8.007  17.299  0.00  0.00    +0.000 A 
ATOM     20  C   UNL     1       2.439   7.956  17.734  0.00  0.00    +0.000 A 
ATOM     21  C   UNL     1       1.942   6.745  18.218  0.00  0.00    +0.000 A 
ATOM     22  C   UNL     1       2.745   5.618  18.325  0.00  0.00    +0.000 A 
ATOM     23  C   UNL     1       4.094   5.638  17.904  0.00  0.00    +0.000 A 
BRANCH  14  26
ATOM     24  C   UNL     1       4.654   1.582  20.547  0.00  0.00    +0.000 C 
ATOM     25  N   UNL     1       5.084   2.780  19.857  0.00  0.00    +0.000 N 
ATOM     26  C   UNL     1       4.532   3.202  18.684  0.00  0.00    +0.000 C 
ATOM     27  O   UNL     1       3.635   2.525  18.194  0.00  0.00    +0.000 OA
ATOM     28  H   UNL     1       5.795   3.361  20.325  0.00  0.00    +0.000 HD
ENDBRANCH  14  26
ENDBRANCH  13  20
ENDBRANCH   1  13
BRANCH   7  29
ATOM     29  O   UNL     1      -4.155  12.003  18.226  0.00  0.00    +0.000 OA
BRANCH  29  30
ATOM     30  C   UNL     1      -4.817  12.320  19.434  0.00  0.00    +0.000 C 
BRANCH  30  31
ATOM     31  C   UNL     1      -6.116  11.593  19.651  0.00  0.00    +0.000 C 
ATOM     32  C   UNL     1      -7.200  12.125  18.755  0.00  0.00    +0.000 C 
ATOM     33  C   UNL     1      -6.725  10.674  18.617  0.00  0.00    +0.000 C 
BRANCH  31  34
ATOM     34  N   UNL     1      -6.618  11.560  21.038  0.00  0.00    +0.000 NA
ATOM     35  H   UNL     1      -6.820  12.545  21.323  0.00  0.00    +0.000 HD
ATOM     36  H   UNL     1      -5.865  11.215  21.673  0.00  0.00    +0.000 HD
ENDBRANCH  31  34
ENDBRANCH  30  31
ENDBRANCH  29  30
ENDBRANCH   7  29
TORSDOF 8
ENDMDL
