MODEL 1
REMARK VINA RESULT:      -7.9      0.000      0.000
REMARK  Name = 
REMARK  2 active torsions:
REMARK  status: ('A' for Active; 'I' for Inactive)
REMARK    1  A    between atoms: C_1  and  C_2
REMARK    2  A    between atoms: N_4  and  C_5
REMARK                            x       y       z     vdW  Elec       q    Type
REMARK                         _______ _______ _______ _____ _____    ______ ____
ROOT
ATOM      1  C   UNL     1       2.013   7.626  19.989  0.00  0.00    +0.000 C 
ATOM      2  C   UNL     1       2.475   6.307  19.398  0.00  0.00    +0.000 C 
ATOM      3  C   UNL     1       3.995   6.079  19.565  0.00  0.00    +0.000 C 
ATOM      4  N   UNL     1       4.277   4.812  18.883  0.00  0.00    +0.000 N 
ATOM      5  C   UNL     1       3.603   3.660  19.492  0.00  0.00    +0.000 C 
ATOM      6  C   UNL     1       2.070   3.903  19.488  0.00  0.00    +0.000 C 
ATOM      7  C   UNL     1       1.254   2.724  20.102  0.00  0.00    +0.000 C 
ATOM      8  C   UNL     1       1.163   2.127  18.681  0.00  0.00    +0.000 C 
ATOM      9  C   UNL     1       1.331   3.564  18.153  0.00  0.00    +0.000 C 
ATOM     10  O   UNL     1       1.755   5.225  20.031  0.00  0.00    +0.000 OA
ENDROOT
BRANCH   4  11
ATOM     11  C   UNL     1       5.486   4.632  18.253  0.00  0.00    +0.000 A 
ATOM     12  N   UNL     1       6.655   4.747  18.931  0.00  0.00    +0.000 NA
ATOM     13  C   UNL     1       7.819   4.644  18.253  0.00  0.00    +0.000 A 
ATOM     14  N   UNL     1       8.002   4.477  16.928  0.00  0.00    +0.000 NA
ATOM     15  C   UNL     1       6.824   4.408  16.291  0.00  0.00    +0.000 A 
ATOM     16  N   UNL     1       6.627   4.295  14.945  0.00  0.00    +0.000 N 
ATOM     17  N   UNL     1       5.329   4.266  14.584  0.00  0.00    +0.000 NA
ATOM     18  C   UNL     1       4.691   4.385  15.754  0.00  0.00    +0.000 A 
ATOM     19  C   UNL     1       5.568   4.465  16.859  0.00  0.00    +0.000 A 
ATOM     20  H   UNL     1       7.340   4.253  14.225  0.00  0.00    +0.000 HD
ENDBRANCH   4  11
TORSDOF 1
ENDMDL
MODEL 2
REMARK VINA RESULT:      -7.4      1.043      2.254
REMARK  Name = 
REMARK  2 active torsions:
REMARK  status: ('A' for Active; 'I' for Inactive)
REMARK    1  A    between atoms: C_1  and  C_2
REMARK    2  A    between atoms: N_4  and  C_5
REMARK                            x       y       z     vdW  Elec       q    Type
REMARK                         _______ _______ _______ _____ _____    ______ ____
ROOT
ATOM      1  C   UNL     1       1.797   8.022  20.189  0.00  0.00    +0.000 C 
ATOM      2  C   UNL     1       2.141   6.610  19.751  0.00  0.00    +0.000 C 
ATOM      3  C   UNL     1       3.607   6.471  19.283  0.00  0.00    +0.000 C 
ATOM      4  N   UNL     1       3.744   5.083  18.833  0.00  0.00    +0.000 N 
ATOM      5  C   UNL     1       3.544   4.101  19.904  0.00  0.00    +0.000 C 
ATOM      6  C   UNL     1       2.131   4.294  20.518  0.00  0.00    +0.000 C 
ATOM      7  C   UNL     1       1.809   3.283  21.661  0.00  0.00    +0.000 C 
ATOM      8  C   UNL     1       1.214   2.349  20.585  0.00  0.00    +0.000 C 
ATOM      9  C   UNL     1       0.955   3.614  19.744  0.00  0.00    +0.000 C 
ATOM     10  O   UNL     1       1.899   5.700  20.849  0.00  0.00    +0.000 OA
ENDROOT
BRANCH   4  11
ATOM     11  C   UNL     1       4.594   4.785  17.793  0.00  0.00    +0.000 A 
ATOM     12  N   UNL     1       4.117   4.354  16.598  0.00  0.00    +0.000 NA
ATOM     13  C   UNL     1       4.994   3.994  15.635  0.00  0.00    +0.000 A 
ATOM     14  N   UNL     1       6.339   3.958  15.701  0.00  0.00    +0.000 NA
ATOM     15  C   UNL     1       6.767   4.354  16.909  0.00  0.00    +0.000 A 
ATOM     16  N   UNL     1       8.058   4.392  17.348  0.00  0.00    +0.000 N 
ATOM     17  N   UNL     1       8.190   4.818  18.620  0.00  0.00    +0.000 NA
ATOM     18  C   UNL     1       6.925   5.035  18.995  0.00  0.00    +0.000 A 
ATOM     19  C   UNL     1       5.989   4.777  17.967  0.00  0.00    +0.000 A 
ATOM     20  H   UNL     1       8.888   4.122  16.831  0.00  0.00    +0.000 HD
ENDBRANCH   4  11
TORSDOF 1
ENDMDL
MODEL 3
REMARK VINA RESULT:      -7.2      2.504      5.379
REMARK  Name = 
REMARK  2 active torsions:
REMARK  status: ('A' for Active; 'I' for Inactive)
REMARK    1  A    between atoms: C_1  and  C_2
REMARK    2  A    between atoms: N_4  and  C_5
REMARK                            x       y       z     vdW  Elec       q    Type
REMARK                         _______ _______ _______ _____ _____    ______ ____
ROOT
ATOM      1  C   UNL     1       7.841   7.826  17.843  0.00  0.00    +0.000 C 
ATOM      2  C   UNL     1       7.077   6.549  17.549  0.00  0.00    +0.000 C 
ATOM      3  C   UNL     1       5.827   6.382  18.442  0.00  0.00    +0.000 C 
ATOM      4  N   UNL     1       5.258   5.080  18.081  0.00  0.00    +0.000 N 
ATOM      5  C   UNL     1       4.800   5.010  16.689  0.00  0.00    +0.000 C 
ATOM      6  C   UNL     1       5.990   5.320  15.742  0.00  0.00    +0.000 C 
ATOM      7  C   UNL     1       5.613   5.256  14.231  0.00  0.00    +0.000 C 
ATOM      8  C   UNL     1       6.019   3.767  14.255  0.00  0.00    +0.000 C 
ATOM      9  C   UNL     1       6.944   4.120  15.435  0.00  0.00    +0.000 C 
ATOM     10  O   UNL     1       6.678   6.543  16.159  0.00  0.00    +0.000 OA
ENDROOT
BRANCH   4  11
ATOM     11  C   UNL     1       4.625   4.324  19.040  0.00  0.00    +0.000 A 
ATOM     12  N   UNL     1       5.015   3.052  19.302  0.00  0.00    +0.000 NA
ATOM     13  C   UNL     1       4.309   2.320  20.192  0.00  0.00    +0.000 A 
ATOM     14  N   UNL     1       3.195   2.670  20.864  0.00  0.00    +0.000 NA
ATOM     15  C   UNL     1       2.821   3.920  20.547  0.00  0.00    +0.000 A 
ATOM     16  N   UNL     1       1.714   4.580  20.993  0.00  0.00    +0.000 N 
ATOM     17  N   UNL     1       1.582   5.824  20.492  0.00  0.00    +0.000 NA
ATOM     18  C   UNL     1       2.642   5.935  19.685  0.00  0.00    +0.000 A 
ATOM     19  C   UNL     1       3.463   4.784  19.685  0.00  0.00    +0.000 A 
ATOM     20  H   UNL     1       1.004   4.226  21.625  0.00  0.00    +0.000 HD
ENDBRANCH   4  11
TORSDOF 1
ENDMDL
MODEL 4
REMARK VINA RESULT:      -7.2      2.391      5.597
REMARK  Name = 
REMARK  2 active torsions:
REMARK  status: ('A' for Active; 'I' for Inactive)
REMARK    1  A    between atoms: C_1  and  C_2
REMARK    2  A    between atoms: N_4  and  C_5
REMARK                            x       y       z     vdW  Elec       q    Type
REMARK                         _______ _______ _______ _____ _____    ______ ____
ROOT
ATOM      1  C   UNL     1       7.996   5.871  19.240  0.00  0.00    +0.000 C 
ATOM      2  C   UNL     1       6.963   5.141  18.403  0.00  0.00    +0.000 C 
ATOM      3  C   UNL     1       5.564   5.130  19.058  0.00  0.00    +0.000 C 
ATOM      4  N   UNL     1       4.719   4.331  18.165  0.00  0.00    +0.000 N 
ATOM      5  C   UNL     1       4.561   4.922  16.831  0.00  0.00    +0.000 C 
ATOM      6  C   UNL     1       5.959   5.097  16.180  0.00  0.00    +0.000 C 
ATOM      7  C   UNL     1       5.903   5.705  14.745  0.00  0.00    +0.000 C 
ATOM      8  C   UNL     1       5.830   4.262  14.202  0.00  0.00    +0.000 C 
ATOM      9  C   UNL     1       6.552   3.825  15.490  0.00  0.00    +0.000 C 
ATOM     10  O   UNL     1       6.879   5.765  17.101  0.00  0.00    +0.000 OA
ENDROOT
BRANCH   4  11
ATOM     11  C   UNL     1       3.704   3.567  18.690  0.00  0.00    +0.000 A 
ATOM     12  N   UNL     1       3.558   2.262  18.349  0.00  0.00    +0.000 NA
ATOM     13  C   UNL     1       2.496   1.575  18.825  0.00  0.00    +0.000 A 
ATOM     14  N   UNL     1       1.487   2.026  19.596  0.00  0.00    +0.000 NA
ATOM     15  C   UNL     1       1.649   3.328  19.878  0.00  0.00    +0.000 A 
ATOM     16  N   UNL     1       0.797   4.123  20.586  0.00  0.00    +0.000 N 
ATOM     17  N   UNL     1       1.209   5.401  20.698  0.00  0.00    +0.000 NA
ATOM     18  C   UNL     1       2.358   5.405  20.013  0.00  0.00    +0.000 A 
ATOM     19  C   UNL     1       2.695   4.138  19.487  0.00  0.00    +0.000 A 
ATOM     20  H   UNL     1      -0.089   3.854  21.001  0.00  0.00    +0.000 HD
ENDBRANCH   4  11
TORSDOF 1
ENDMDL
MODEL 5
REMARK VINA RESULT:      -7.2      2.462      5.324
REMARK  Name = 
REMARK  2 active torsions:
REMARK  status: ('A' for Active; 'I' for Inactive)
REMARK    1  A    between atoms: C_1  and  C_2
REMARK    2  A    between atoms: N_4  and  C_5
REMARK                            x       y       z     vdW  Elec       q    Type
REMARK                         _______ _______ _______ _____ _____    ______ ____
ROOT
ATOM      1  C   UNL     1       8.154   5.615  19.261  0.00  0.00    +0.000 C 
ATOM      2  C   UNL     1       6.903   5.197  18.513  0.00  0.00    +0.000 C 
ATOM      3  C   UNL     1       5.614   5.782  19.132  0.00  0.00    +0.000 C 
ATOM      4  N   UNL     1       4.512   5.225  18.341  0.00  0.00    +0.000 N 
ATOM      5  C   UNL     1       4.536   5.641  16.934  0.00  0.00    +0.000 C 
ATOM      6  C   UNL     1       5.883   5.208  16.296  0.00  0.00    +0.000 C 
ATOM      7  C   UNL     1       6.006   5.590  14.789  0.00  0.00    +0.000 C 
ATOM      8  C   UNL     1       5.402   4.209  14.453  0.00  0.00    +0.000 C 
ATOM      9  C   UNL     1       5.958   3.726  15.805  0.00  0.00    +0.000 C 
ATOM     10  O   UNL     1       7.009   5.622  17.134  0.00  0.00    +0.000 OA
ENDROOT
BRANCH   4  11
ATOM     11  C   UNL     1       3.306   4.958  18.946  0.00  0.00    +0.000 A 
ATOM     12  N   UNL     1       2.865   5.701  19.992  0.00  0.00    +0.000 NA
ATOM     13  C   UNL     1       1.715   5.349  20.607  0.00  0.00    +0.000 A 
ATOM     14  N   UNL     1       0.919   4.293  20.349  0.00  0.00    +0.000 NA
ATOM     15  C   UNL     1       1.410   3.563  19.336  0.00  0.00    +0.000 A 
ATOM     16  N   UNL     1       0.898   2.400  18.842  0.00  0.00    +0.000 N 
ATOM     17  N   UNL     1       1.614   1.875  17.828  0.00  0.00    +0.000 NA
ATOM     18  C   UNL     1       2.626   2.739  17.699  0.00  0.00    +0.000 A 
ATOM     19  C   UNL     1       2.549   3.823  18.602  0.00  0.00    +0.000 A 
ATOM     20  H   UNL     1       0.074   1.907  19.169  0.00  0.00    +0.000 HD
ENDBRANCH   4  11
TORSDOF 1
ENDMDL
MODEL 6
REMARK VINA RESULT:      -7.2      2.430      5.738
REMARK  Name = 
REMARK  2 active torsions:
REMARK  status: ('A' for Active; 'I' for Inactive)
REMARK    1  A    between atoms: C_1  and  C_2
REMARK    2  A    between atoms: N_4  and  C_5
REMARK                            x       y       z     vdW  Elec       q    Type
REMARK                         _______ _______ _______ _____ _____    ______ ____
ROOT
ATOM      1  C   UNL     1       5.325   4.252  14.380  0.00  0.00    +0.000 C 
ATOM      2  C   UNL     1       5.337   4.728  15.821  0.00  0.00    +0.000 C 
ATOM      3  C   UNL     1       4.255   4.041  16.685  0.00  0.00    +0.000 C 
ATOM      4  N   UNL     1       4.358   4.664  18.008  0.00  0.00    +0.000 N 
ATOM      5  C   UNL     1       5.647   4.422  18.667  0.00  0.00    +0.000 C 
ATOM      6  C   UNL     1       6.791   4.961  17.766  0.00  0.00    +0.000 C 
ATOM      7  C   UNL     1       8.210   4.769  18.384  0.00  0.00    +0.000 C 
ATOM      8  C   UNL     1       8.054   6.165  19.024  0.00  0.00    +0.000 C 
ATOM      9  C   UNL     1       7.079   6.494  17.878  0.00  0.00    +0.000 C 
ATOM     10  O   UNL     1       6.641   4.477  16.393  0.00  0.00    +0.000 OA
ENDROOT
BRANCH   4  11
ATOM     11  C   UNL     1       3.228   4.826  18.775  0.00  0.00    +0.000 A 
ATOM     12  N   UNL     1       3.073   5.907  19.578  0.00  0.00    +0.000 NA
ATOM     13  C   UNL     1       1.985   5.981  20.376  0.00  0.00    +0.000 A 
ATOM     14  N   UNL     1       0.999   5.075  20.529  0.00  0.00    +0.000 NA
ATOM     15  C   UNL     1       1.210   4.005  19.747  0.00  0.00    +0.000 A 
ATOM     16  N   UNL     1       0.449   2.875  19.685  0.00  0.00    +0.000 N 
ATOM     17  N   UNL     1       0.912   1.953  18.818  0.00  0.00    +0.000 NA
ATOM     18  C   UNL     1       2.021   2.525  18.337  0.00  0.00    +0.000 A 
ATOM     19  C   UNL     1       2.255   3.814  18.868  0.00  0.00    +0.000 A 
ATOM     20  H   UNL     1      -0.387   2.671  20.222  0.00  0.00    +0.000 HD
ENDBRANCH   4  11
TORSDOF 1
ENDMDL
MODEL 7
REMARK VINA RESULT:      -7.0      1.421      2.112
REMARK  Name = 
REMARK  2 active torsions:
REMARK  status: ('A' for Active; 'I' for Inactive)
REMARK    1  A    between atoms: C_1  and  C_2
REMARK    2  A    between atoms: N_4  and  C_5
REMARK                            x       y       z     vdW  Elec       q    Type
REMARK                         _______ _______ _______ _____ _____    ______ ____
ROOT
ATOM      1  C   UNL     1       1.793   8.132  19.968  0.00  0.00    +0.000 C 
ATOM      2  C   UNL     1       2.173   6.724  19.549  0.00  0.00    +0.000 C 
ATOM      3  C   UNL     1       3.613   6.633  18.998  0.00  0.00    +0.000 C 
ATOM      4  N   UNL     1       3.785   5.239  18.578  0.00  0.00    +0.000 N 
ATOM      5  C   UNL     1       3.692   4.282  19.686  0.00  0.00    +0.000 C 
ATOM      6  C   UNL     1       2.311   4.433  20.378  0.00  0.00    +0.000 C 
ATOM      7  C   UNL     1       2.101   3.444  21.565  0.00  0.00    +0.000 C 
ATOM      8  C   UNL     1       1.486   2.454  20.553  0.00  0.00    +0.000 C 
ATOM      9  C   UNL     1       1.122   3.680  19.695  0.00  0.00    +0.000 C 
ATOM     10  O   UNL     1       2.036   5.838  20.684  0.00  0.00    +0.000 OA
ENDROOT
BRANCH   4  11
ATOM     11  C   UNL     1       4.584   4.947  17.498  0.00  0.00    +0.000 A 
ATOM     12  N   UNL     1       4.417   3.802  16.790  0.00  0.00    +0.000 NA
ATOM     13  C   UNL     1       5.280   3.518  15.790  0.00  0.00    +0.000 A 
ATOM     14  N   UNL     1       6.361   4.219  15.395  0.00  0.00    +0.000 NA
ATOM     15  C   UNL     1       6.512   5.322  16.144  0.00  0.00    +0.000 A 
ATOM     16  N   UNL     1       7.524   6.233  16.062  0.00  0.00    +0.000 N 
ATOM     17  N   UNL     1       7.427   7.237  16.957  0.00  0.00    +0.000 NA
ATOM     18  C   UNL     1       6.319   6.925  17.637  0.00  0.00    +0.000 A 
ATOM     19  C   UNL     1       5.693   5.747  17.169  0.00  0.00    +0.000 A 
ATOM     20  H   UNL     1       8.315   6.213  15.429  0.00  0.00    +0.000 HD
ENDBRANCH   4  11
TORSDOF 1
ENDMDL
MODEL 8
REMARK VINA RESULT:      -6.9      1.315      2.475
REMARK  Name = 
REMARK  2 active torsions:
REMARK  status: ('A' for Active; 'I' for Inactive)
REMARK    1  A    between atoms: C_1  and  C_2
REMARK    2  A    between atoms: N_4  and  C_5
REMARK                            x       y       z     vdW  Elec       q    Type
REMARK                         _______ _______ _______ _____ _____    ______ ____
ROOT
ATOM      1  C   UNL     1       1.689   8.801  18.358  0.00  0.00    +0.000 C 
ATOM      2  C   UNL     1       2.187   7.368  18.376  0.00  0.00    +0.000 C 
ATOM      3  C   UNL     1       3.693   7.255  18.050  0.00  0.00    +0.000 C 
ATOM      4  N   UNL     1       3.985   5.819  18.037  0.00  0.00    +0.000 N 
ATOM      5  C   UNL     1       3.781   5.172  19.339  0.00  0.00    +0.000 C 
ATOM      6  C   UNL     1       2.312   5.384  19.791  0.00  0.00    +0.000 C 
ATOM      7  C   UNL     1       1.983   4.718  21.162  0.00  0.00    +0.000 C 
ATOM      8  C   UNL     1       1.561   3.456  20.380  0.00  0.00    +0.000 C 
ATOM      9  C   UNL     1       1.266   4.389  19.191  0.00  0.00    +0.000 C 
ATOM     10  O   UNL     1       1.934   6.793  19.679  0.00  0.00    +0.000 OA
ENDROOT
BRANCH   4  11
ATOM     11  C   UNL     1       4.939   5.325  17.180  0.00  0.00    +0.000 A 
ATOM     12  N   UNL     1       4.619   4.941  15.919  0.00  0.00    +0.000 NA
ATOM     13  C   UNL     1       5.574   4.383  15.141  0.00  0.00    +0.000 A 
ATOM     14  N   UNL     1       6.852   4.101  15.461  0.00  0.00    +0.000 NA
ATOM     15  C   UNL     1       7.116   4.460  16.727  0.00  0.00    +0.000 A 
ATOM     16  N   UNL     1       8.287   4.276  17.402  0.00  0.00    +0.000 N 
ATOM     17  N   UNL     1       8.260   4.722  18.673  0.00  0.00    +0.000 NA
ATOM     18  C   UNL     1       7.012   5.186  18.800  0.00  0.00    +0.000 A 
ATOM     19  C   UNL     1       6.251   5.064  17.616  0.00  0.00    +0.000 A 
ATOM     20  H   UNL     1       9.131   3.835  17.053  0.00  0.00    +0.000 HD
ENDBRANCH   4  11
TORSDOF 1
ENDMDL
MODEL 9
REMARK VINA RESULT:      -6.8      2.537      5.183
REMARK  Name = 
REMARK  2 active torsions:
REMARK  status: ('A' for Active; 'I' for Inactive)
REMARK    1  A    between atoms: C_1  and  C_2
REMARK    2  A    between atoms: N_4  and  C_5
REMARK                            x       y       z     vdW  Elec       q    Type
REMARK                         _______ _______ _______ _____ _____    ______ ____
ROOT
ATOM      1  C   UNL     1       7.912   7.340  18.141  0.00  0.00    +0.000 C 
ATOM      2  C   UNL     1       7.094   6.161  17.649  0.00  0.00    +0.000 C 
ATOM      3  C   UNL     1       5.786   5.967  18.449  0.00  0.00    +0.000 C 
ATOM      4  N   UNL     1       5.166   4.758  17.898  0.00  0.00    +0.000 N 
ATOM      5  C   UNL     1       4.787   4.891  16.486  0.00  0.00    +0.000 C 
ATOM      6  C   UNL     1       6.046   5.237  15.649  0.00  0.00    +0.000 C 
ATOM      7  C   UNL     1       5.755   5.384  14.124  0.00  0.00    +0.000 C 
ATOM      8  C   UNL     1       6.073   3.881  13.980  0.00  0.00    +0.000 C 
ATOM      9  C   UNL     1       6.946   4.025  15.240  0.00  0.00    +0.000 C 
ATOM     10  O   UNL     1       6.778   6.352  16.251  0.00  0.00    +0.000 OA
ENDROOT
BRANCH   4  11
ATOM     11  C   UNL     1       4.435   3.933  18.719  0.00  0.00    +0.000 A 
ATOM     12  N   UNL     1       5.039   3.157  19.654  0.00  0.00    +0.000 NA
ATOM     13  C   UNL     1       4.288   2.300  20.380  0.00  0.00    +0.000 A 
ATOM     14  N   UNL     1       2.965   2.059  20.281  0.00  0.00    +0.000 NA
ATOM     15  C   UNL     1       2.414   2.817  19.321  0.00  0.00    +0.000 A 
ATOM     16  N   UNL     1       1.113   2.798  18.910  0.00  0.00    +0.000 N 
ATOM     17  N   UNL     1       0.845   3.659  17.909  0.00  0.00    +0.000 NA
ATOM     18  C   UNL     1       2.034   4.223  17.673  0.00  0.00    +0.000 A 
ATOM     19  C   UNL     1       3.053   3.750  18.531  0.00  0.00    +0.000 A 
ATOM     20  H   UNL     1       0.369   2.206  19.263  0.00  0.00    +0.000 HD
ENDBRANCH   4  11
TORSDOF 1
ENDMDL
