MODEL 1
REMARK VINA RESULT:      -8.1      0.000      0.000
REMARK  Name = 
REMARK  5 active torsions:
REMARK  status: ('A' for Active; 'I' for Inactive)
REMARK    1  A    between atoms: C_2  and  C_3
REMARK    2  A    between atoms: C_7  and  C_8
REMARK    3  A    between atoms: C_10  and  C_11
REMARK    4  A    between atoms: N_13  and  C_14
REMARK    5  A    between atoms: C_17  and  C_18
REMARK                            x       y       z     vdW  Elec       q    Type
REMARK                         _______ _______ _______ _____ _____    ______ ____
ROOT
ATOM      1  C   UNL     1       1.020   9.711  19.808  0.00  0.00    +0.000 C 
ATOM      2  O   UNL     1       1.323  10.704  19.155  0.00  0.00    +0.000 OA
ATOM      3  N   UNL     1       0.107   9.665  20.847  0.00  0.00    +0.000 N 
ATOM      4  H   UNL     1       0.045   8.818  21.392  0.00  0.00    +0.000 HD
ENDROOT
BRANCH   1   7
ATOM      5  C   UNL     1       2.715   6.647  18.806  0.00  0.00    +0.000 A 
ATOM      6  C   UNL     1       2.238   7.919  18.408  0.00  0.00    +0.000 A 
ATOM      7  C   UNL     1       1.673   8.468  19.535  0.00  0.00    +0.000 A 
ATOM      8  N   UNL     1       1.842   7.531  20.515  0.00  0.00    +0.000 N 
ATOM      9  N   UNL     1       2.440   6.408  20.093  0.00  0.00    +0.000 NA
ATOM     10  H   UNL     1       1.560   7.613  21.488  0.00  0.00    +0.000 HD
BRANCH   5  15
ATOM     11  C   UNL     1       5.306   5.115  16.567  0.00  0.00    +0.000 A 
ATOM     12  C   UNL     1       4.761   3.841  16.346  0.00  0.00    +0.000 A 
ATOM     13  C   UNL     1       3.556   3.490  16.946  0.00  0.00    +0.000 A 
ATOM     14  C   UNL     1       2.894   4.405  17.766  0.00  0.00    +0.000 A 
ATOM     15  C   UNL     1       3.431   5.678  17.977  0.00  0.00    +0.000 A 
ATOM     16  C   UNL     1       4.642   6.030  17.385  0.00  0.00    +0.000 A 
BRANCH  11  18
ATOM     17  N   UNL     1       7.550   5.776  15.459  0.00  0.00    +0.000 NA
ATOM     18  C   UNL     1       6.543   5.477  15.953  0.00  0.00    +0.000 C 
ENDBRANCH  11  18
ENDBRANCH   5  15
ENDBRANCH   1   7
BRANCH   3  19
ATOM     19  C   UNL     1      -0.668  10.749  21.290  0.00  0.00    +0.000 A 
ATOM     20  C   UNL     1      -1.393  11.533  20.407  0.00  0.00    +0.000 A 
ATOM     21  C   UNL     1      -2.152  12.595  20.872  0.00  0.00    +0.000 A 
ATOM     22  C   UNL     1      -2.239  12.900  22.235  0.00  0.00    +0.000 A 
ATOM     23  C   UNL     1      -1.486  12.117  23.123  0.00  0.00    +0.000 A 
ATOM     24  C   UNL     1      -0.722  11.038  22.658  0.00  0.00    +0.000 A 
BRANCH  22  25
ATOM     25  C   UNL     1      -3.120  14.044  22.738  0.00  0.00    +0.000 C 
ATOM     26  C   UNL     1      -3.488  13.903  24.228  0.00  0.00    +0.000 C 
ATOM     27  C   UNL     1      -4.535  12.813  24.462  0.00  0.00    +0.000 C 
ATOM     28  C   UNL     1      -5.735  12.932  23.521  0.00  0.00    +0.000 C 
ATOM     29  N   UNL     1      -5.368  13.121  22.123  0.00  0.00    +0.000 NA
ATOM     30  C   UNL     1      -4.433  14.240  21.939  0.00  0.00    +0.000 C 
ATOM     31  H   UNL     1      -6.198  13.252  21.550  0.00  0.00    +0.000 HD
ENDBRANCH  22  25
ENDBRANCH   3  19
TORSDOF 5
ENDMDL
MODEL 2
REMARK VINA RESULT:      -8.1      1.328      1.413
REMARK  Name = 
REMARK  5 active torsions:
REMARK  status: ('A' for Active; 'I' for Inactive)
REMARK    1  A    between atoms: C_2  and  C_3
REMARK    2  A    between atoms: C_7  and  C_8
REMARK    3  A    between atoms: C_10  and  C_11
REMARK    4  A    between atoms: N_13  and  C_14
REMARK    5  A    between atoms: C_17  and  C_18
REMARK                            x       y       z     vdW  Elec       q    Type
REMARK                         _______ _______ _______ _____ _____    ______ ____
ROOT
ATOM      1  C   UNL     1       0.931  10.702  19.591  0.00  0.00    +0.000 C 
ATOM      2  O   UNL     1       1.503  11.786  19.659  0.00  0.00    +0.000 OA
ATOM      3  N   UNL     1      -0.291  10.388  20.160  0.00  0.00    +0.000 N 
ATOM      4  H   UNL     1      -0.591   9.425  20.146  0.00  0.00    +0.000 HD
ENDROOT
BRANCH   1   7
ATOM      5  C   UNL     1       2.531   7.775  18.129  0.00  0.00    +0.000 A 
ATOM      6  C   UNL     1       1.953   8.353  19.285  0.00  0.00    +0.000 A 
ATOM      7  C   UNL     1       1.565   9.618  18.907  0.00  0.00    +0.000 A 
ATOM      8  N   UNL     1       1.913   9.722  17.590  0.00  0.00    +0.000 N 
ATOM      9  N   UNL     1       2.528   8.635  17.104  0.00  0.00    +0.000 NA
ATOM     10  H   UNL     1       1.754  10.522  16.982  0.00  0.00    +0.000 HD
BRANCH   5  15
ATOM     11  C   UNL     1       4.928   4.944  17.570  0.00  0.00    +0.000 A 
ATOM     12  C   UNL     1       4.077   3.835  17.688  0.00  0.00    +0.000 A 
ATOM     13  C   UNL     1       2.727   4.025  17.967  0.00  0.00    +0.000 A 
ATOM     14  C   UNL     1       2.224   5.317  18.127  0.00  0.00    +0.000 A 
ATOM     15  C   UNL     1       3.070   6.422  17.998  0.00  0.00    +0.000 A 
ATOM     16  C   UNL     1       4.424   6.236  17.728  0.00  0.00    +0.000 A 
BRANCH  11  18
ATOM     17  N   UNL     1       7.441   4.588  17.060  0.00  0.00    +0.000 NA
ATOM     18  C   UNL     1       6.314   4.752  17.286  0.00  0.00    +0.000 C 
ENDBRANCH  11  18
ENDBRANCH   5  15
ENDBRANCH   1   7
BRANCH   3  19
ATOM     19  C   UNL     1      -1.108  11.286  20.865  0.00  0.00    +0.000 A 
ATOM     20  C   UNL     1      -2.016  12.107  20.216  0.00  0.00    +0.000 A 
ATOM     21  C   UNL     1      -2.812  12.982  20.938  0.00  0.00    +0.000 A 
ATOM     22  C   UNL     1      -2.754  13.053  22.334  0.00  0.00    +0.000 A 
ATOM     23  C   UNL     1      -1.818  12.235  22.986  0.00  0.00    +0.000 A 
ATOM     24  C   UNL     1      -1.014  11.344  22.260  0.00  0.00    +0.000 A 
BRANCH  22  25
ATOM     25  C   UNL     1      -3.673  13.987  23.121  0.00  0.00    +0.000 C 
ATOM     26  C   UNL     1      -3.733  13.641  24.622  0.00  0.00    +0.000 C 
ATOM     27  C   UNL     1      -4.558  12.381  24.891  0.00  0.00    +0.000 C 
ATOM     28  C   UNL     1      -5.918  12.402  24.190  0.00  0.00    +0.000 C 
ATOM     29  N   UNL     1      -5.848  12.786  22.786  0.00  0.00    +0.000 NA
ATOM     30  C   UNL     1      -5.128  14.052  22.589  0.00  0.00    +0.000 C 
ATOM     31  H   UNL     1      -6.781  12.841  22.383  0.00  0.00    +0.000 HD
ENDBRANCH  22  25
ENDBRANCH   3  19
TORSDOF 5
ENDMDL
MODEL 3
REMARK VINA RESULT:      -8.0      8.572     10.285
REMARK  Name = 
REMARK  5 active torsions:
REMARK  status: ('A' for Active; 'I' for Inactive)
REMARK    1  A    between atoms: C_2  and  C_3
REMARK    2  A    between atoms: C_7  and  C_8
REMARK    3  A    between atoms: C_10  and  C_11
REMARK    4  A    between atoms: N_13  and  C_14
REMARK    5  A    between atoms: C_17  and  C_18
REMARK                            x       y       z     vdW  Elec       q    Type
REMARK                         _______ _______ _______ _____ _____    ______ ____
ROOT
ATOM      1  C   UNL     1       8.884   9.906  18.698  0.00  0.00    +0.000 C 
ATOM      2  O   UNL     1       9.304  10.114  19.832  0.00  0.00    +0.000 OA
ATOM      3  N   UNL     1       8.839  10.823  17.663  0.00  0.00    +0.000 N 
ATOM      4  H   UNL     1       8.348  10.568  16.820  0.00  0.00    +0.000 HD
ENDROOT
BRANCH   1   7
ATOM      5  C   UNL     1       7.355   6.777  17.629  0.00  0.00    +0.000 A 
ATOM      6  C   UNL     1       7.530   8.157  17.368  0.00  0.00    +0.000 A 
ATOM      7  C   UNL     1       8.340   8.621  18.378  0.00  0.00    +0.000 A 
ATOM      8  N   UNL     1       8.603   7.531  19.158  0.00  0.00    +0.000 N 
ATOM      9  N   UNL     1       7.994   6.411  18.746  0.00  0.00    +0.000 NA
ATOM     10  H   UNL     1       9.190   7.505  19.987  0.00  0.00    +0.000 HD
BRANCH   5  15
ATOM     11  C   UNL     1       4.720   4.330  16.561  0.00  0.00    +0.000 A 
ATOM     12  C   UNL     1       5.199   3.941  15.301  0.00  0.00    +0.000 A 
ATOM     13  C   UNL     1       6.373   4.498  14.805  0.00  0.00    +0.000 A 
ATOM     14  C   UNL     1       7.072   5.440  15.563  0.00  0.00    +0.000 A 
ATOM     15  C   UNL     1       6.601   5.818  16.822  0.00  0.00    +0.000 A 
ATOM     16  C   UNL     1       5.419   5.270  17.318  0.00  0.00    +0.000 A 
BRANCH  11  18
ATOM     17  N   UNL     1       2.530   3.307  17.487  0.00  0.00    +0.000 NA
ATOM     18  C   UNL     1       3.513   3.762  17.071  0.00  0.00    +0.000 C 
ENDBRANCH  11  18
ENDBRANCH   5  15
ENDBRANCH   1   7
BRANCH   3  19
ATOM     19  C   UNL     1       9.325  12.138  17.728  0.00  0.00    +0.000 A 
ATOM     20  C   UNL     1      10.649  12.439  17.450  0.00  0.00    +0.000 A 
ATOM     21  C   UNL     1      11.101  13.747  17.520  0.00  0.00    +0.000 A 
ATOM     22  C   UNL     1      10.247  14.808  17.841  0.00  0.00    +0.000 A 
ATOM     23  C   UNL     1       8.912  14.496  18.143  0.00  0.00    +0.000 A 
ATOM     24  C   UNL     1       8.449  13.175  18.068  0.00  0.00    +0.000 A 
BRANCH  22  25
ATOM     25  C   UNL     1      10.749  16.252  17.865  0.00  0.00    +0.000 C 
ATOM     26  C   UNL     1      12.132  16.392  18.529  0.00  0.00    +0.000 C 
ATOM     27  C   UNL     1      12.059  16.249  20.050  0.00  0.00    +0.000 C 
ATOM     28  C   UNL     1      10.965  17.117  20.675  0.00  0.00    +0.000 C 
ATOM     29  N   UNL     1       9.678  17.014  20.000  0.00  0.00    +0.000 NA
ATOM     30  C   UNL     1       9.786  17.253  18.554  0.00  0.00    +0.000 C 
ATOM     31  H   UNL     1       9.004  17.652  20.417  0.00  0.00    +0.000 HD
ENDBRANCH  22  25
ENDBRANCH   3  19
TORSDOF 5
ENDMDL
MODEL 4
REMARK VINA RESULT:      -8.0      1.823     10.869
REMARK  Name = 
REMARK  5 active torsions:
REMARK  status: ('A' for Active; 'I' for Inactive)
REMARK    1  A    between atoms: C_2  and  C_3
REMARK    2  A    between atoms: C_7  and  C_8
REMARK    3  A    between atoms: C_10  and  C_11
REMARK    4  A    between atoms: N_13  and  C_14
REMARK    5  A    between atoms: C_17  and  C_18
REMARK                            x       y       z     vdW  Elec       q    Type
REMARK                         _______ _______ _______ _____ _____    ______ ____
ROOT
ATOM      1  C   UNL     1       0.868   9.894  19.768  0.00  0.00    +0.000 C 
ATOM      2  O   UNL     1       0.763  10.041  18.554  0.00  0.00    +0.000 OA
ATOM      3  N   UNL     1       1.352   8.770  20.414  0.00  0.00    +0.000 N 
ATOM      4  H   UNL     1       1.262   8.721  21.418  0.00  0.00    +0.000 HD
ENDROOT
BRANCH   1   7
ATOM      5  C   UNL     1      -0.536  12.379  22.032  0.00  0.00    +0.000 A 
ATOM      6  C   UNL     1      -0.716  11.131  21.386  0.00  0.00    +0.000 A 
ATOM      7  C   UNL     1       0.424  10.937  20.640  0.00  0.00    +0.000 A 
ATOM      8  N   UNL     1       1.200  12.036  20.877  0.00  0.00    +0.000 N 
ATOM      9  N   UNL     1       0.630  12.938  21.688  0.00  0.00    +0.000 NA
ATOM     10  H   UNL     1       2.127  12.216  20.501  0.00  0.00    +0.000 HD
BRANCH   5  15
ATOM     11  C   UNL     1      -3.588  13.090  24.092  0.00  0.00    +0.000 A 
ATOM     12  C   UNL     1      -3.228  14.296  24.712  0.00  0.00    +0.000 A 
ATOM     13  C   UNL     1      -1.979  14.857  24.462  0.00  0.00    +0.000 A 
ATOM     14  C   UNL     1      -1.091  14.219  23.595  0.00  0.00    +0.000 A 
ATOM     15  C   UNL     1      -1.455  13.024  22.968  0.00  0.00    +0.000 A 
ATOM     16  C   UNL     1      -2.701  12.454  23.224  0.00  0.00    +0.000 A 
BRANCH  11  18
ATOM     17  N   UNL     1      -5.912  12.049  24.558  0.00  0.00    +0.000 NA
ATOM     18  C   UNL     1      -4.869  12.512  24.349  0.00  0.00    +0.000 C 
ENDBRANCH  11  18
ENDBRANCH   5  15
ENDBRANCH   1   7
BRANCH   3  19
ATOM     19  C   UNL     1       1.858   7.626  19.777  0.00  0.00    +0.000 A 
ATOM     20  C   UNL     1       1.702   6.362  20.322  0.00  0.00    +0.000 A 
ATOM     21  C   UNL     1       2.210   5.249  19.670  0.00  0.00    +0.000 A 
ATOM     22  C   UNL     1       2.869   5.351  18.440  0.00  0.00    +0.000 A 
ATOM     23  C   UNL     1       3.044   6.635  17.903  0.00  0.00    +0.000 A 
ATOM     24  C   UNL     1       2.526   7.763  18.556  0.00  0.00    +0.000 A 
BRANCH  22  25
ATOM     25  C   UNL     1       3.380   4.110  17.708  0.00  0.00    +0.000 C 
ATOM     26  C   UNL     1       2.574   2.841  18.049  0.00  0.00    +0.000 C 
ATOM     27  C   UNL     1       2.892   2.314  19.448  0.00  0.00    +0.000 C 
ATOM     28  C   UNL     1       4.395   2.199  19.711  0.00  0.00    +0.000 C 
ATOM     29  N   UNL     1       5.149   3.387  19.330  0.00  0.00    +0.000 NA
ATOM     30  C   UNL     1       4.880   3.799  17.945  0.00  0.00    +0.000 C 
ATOM     31  H   UNL     1       6.146   3.238  19.470  0.00  0.00    +0.000 HD
ENDBRANCH  22  25
ENDBRANCH   3  19
TORSDOF 5
ENDMDL
MODEL 5
REMARK VINA RESULT:      -8.0      8.174     10.111
REMARK  Name = 
REMARK  5 active torsions:
REMARK  status: ('A' for Active; 'I' for Inactive)
REMARK    1  A    between atoms: C_2  and  C_3
REMARK    2  A    between atoms: C_7  and  C_8
REMARK    3  A    between atoms: C_10  and  C_11
REMARK    4  A    between atoms: N_13  and  C_14
REMARK    5  A    between atoms: C_17  and  C_18
REMARK                            x       y       z     vdW  Elec       q    Type
REMARK                         _______ _______ _______ _____ _____    ______ ____
ROOT
ATOM      1  C   UNL     1       7.885   8.185  17.999  0.00  0.00    +0.000 C 
ATOM      2  O   UNL     1       7.767   8.707  16.896  0.00  0.00    +0.000 OA
ATOM      3  N   UNL     1       8.615   8.683  19.064  0.00  0.00    +0.000 N 
ATOM      4  H   UNL     1       8.743   8.094  19.873  0.00  0.00    +0.000 HD
ENDROOT
BRANCH   1   7
ATOM      5  C   UNL     1       6.022   5.101  18.536  0.00  0.00    +0.000 A 
ATOM      6  C   UNL     1       5.973   6.458  18.133  0.00  0.00    +0.000 A 
ATOM      7  C   UNL     1       7.264   6.920  18.245  0.00  0.00    +0.000 A 
ATOM      8  N   UNL     1       7.992   5.850  18.685  0.00  0.00    +0.000 N 
ATOM      9  N   UNL     1       7.261   4.749  18.900  0.00  0.00    +0.000 NA
ATOM     10  H   UNL     1       8.993   5.829  18.859  0.00  0.00    +0.000 HD
BRANCH   5  15
ATOM     11  C   UNL     1       3.175   3.001  19.782  0.00  0.00    +0.000 A 
ATOM     12  C   UNL     1       2.828   2.290  18.623  0.00  0.00    +0.000 A 
ATOM     13  C   UNL     1       3.522   2.518  17.438  0.00  0.00    +0.000 A 
ATOM     14  C   UNL     1       4.559   3.451  17.407  0.00  0.00    +0.000 A 
ATOM     15  C   UNL     1       4.911   4.152  18.564  0.00  0.00    +0.000 A 
ATOM     16  C   UNL     1       4.212   3.933  19.750  0.00  0.00    +0.000 A 
BRANCH  11  18
ATOM     17  N   UNL     1       1.890   2.580  21.990  0.00  0.00    +0.000 NA
ATOM     18  C   UNL     1       2.463   2.771  20.998  0.00  0.00    +0.000 C 
ENDBRANCH  11  18
ENDBRANCH   5  15
ENDBRANCH   1   7
BRANCH   3  19
ATOM     19  C   UNL     1       9.299   9.909  19.072  0.00  0.00    +0.000 A 
ATOM     20  C   UNL     1       9.555  10.592  20.250  0.00  0.00    +0.000 A 
ATOM     21  C   UNL     1      10.234  11.800  20.229  0.00  0.00    +0.000 A 
ATOM     22  C   UNL     1      10.707  12.360  19.037  0.00  0.00    +0.000 A 
ATOM     23  C   UNL     1      10.426  11.677  17.844  0.00  0.00    +0.000 A 
ATOM     24  C   UNL     1       9.744  10.451  17.862  0.00  0.00    +0.000 A 
BRANCH  22  25
ATOM     25  C   UNL     1      11.498  13.668  19.033  0.00  0.00    +0.000 C 
ATOM     26  C   UNL     1      11.010  14.663  20.104  0.00  0.00    +0.000 C 
ATOM     27  C   UNL     1       9.678  15.311  19.726  0.00  0.00    +0.000 C 
ATOM     28  C   UNL     1       9.670  15.861  18.298  0.00  0.00    +0.000 C 
ATOM     29  N   UNL     1      10.187  14.927  17.307  0.00  0.00    +0.000 NA
ATOM     30  C   UNL     1      11.512  14.405  17.669  0.00  0.00    +0.000 C 
ATOM     31  H   UNL     1      10.215  15.361  16.386  0.00  0.00    +0.000 HD
ENDBRANCH  22  25
ENDBRANCH   3  19
TORSDOF 5
ENDMDL
MODEL 6
REMARK VINA RESULT:      -8.0      1.752      2.303
REMARK  Name = 
REMARK  5 active torsions:
REMARK  status: ('A' for Active; 'I' for Inactive)
REMARK    1  A    between atoms: C_2  and  C_3
REMARK    2  A    between atoms: C_7  and  C_8
REMARK    3  A    between atoms: C_10  and  C_11
REMARK    4  A    between atoms: N_13  and  C_14
REMARK    5  A    between atoms: C_17  and  C_18
REMARK                            x       y       z     vdW  Elec       q    Type
REMARK                         _______ _______ _______ _____ _____    ______ ____
ROOT
ATOM      1  C   UNL     1       0.512   9.496  20.393  0.00  0.00    +0.000 C 
ATOM      2  O   UNL     1       0.313   8.942  21.470  0.00  0.00    +0.000 OA
ATOM      3  N   UNL     1      -0.048  10.690  19.975  0.00  0.00    +0.000 N 
ATOM      4  H   UNL     1       0.090  10.972  19.016  0.00  0.00    +0.000 HD
ENDROOT
BRANCH   1   7
ATOM      5  C   UNL     1       2.705   7.648  18.147  0.00  0.00    +0.000 A 
ATOM      6  C   UNL     1       2.032   7.667  19.393  0.00  0.00    +0.000 A 
ATOM      7  C   UNL     1       1.361   8.867  19.429  0.00  0.00    +0.000 A 
ATOM      8  N   UNL     1       1.651   9.477  18.241  0.00  0.00    +0.000 N 
ATOM      9  N   UNL     1       2.486   8.777  17.462  0.00  0.00    +0.000 NA
ATOM     10  H   UNL     1       1.304  10.377  17.921  0.00  0.00    +0.000 HD
BRANCH   5  15
ATOM     11  C   UNL     1       4.041   4.217  17.431  0.00  0.00    +0.000 A 
ATOM     12  C   UNL     1       5.156   4.516  16.635  0.00  0.00    +0.000 A 
ATOM     13  C   UNL     1       5.451   5.840  16.325  0.00  0.00    +0.000 A 
ATOM     14  C   UNL     1       4.637   6.866  16.809  0.00  0.00    +0.000 A 
ATOM     15  C   UNL     1       3.533   6.569  17.611  0.00  0.00    +0.000 A 
ATOM     16  C   UNL     1       3.229   5.243  17.915  0.00  0.00    +0.000 A 
BRANCH  11  18
ATOM     17  N   UNL     1       3.491   1.755  18.012  0.00  0.00    +0.000 NA
ATOM     18  C   UNL     1       3.735   2.859  17.748  0.00  0.00    +0.000 C 
ENDBRANCH  11  18
ENDBRANCH   5  15
ENDBRANCH   1   7
BRANCH   3  19
ATOM     19  C   UNL     1      -0.899  11.498  20.746  0.00  0.00    +0.000 A 
ATOM     20  C   UNL     1      -0.624  11.783  22.074  0.00  0.00    +0.000 A 
ATOM     21  C   UNL     1      -1.480  12.585  22.812  0.00  0.00    +0.000 A 
ATOM     22  C   UNL     1      -2.628  13.155  22.248  0.00  0.00    +0.000 A 
ATOM     23  C   UNL     1      -2.913  12.846  20.910  0.00  0.00    +0.000 A 
ATOM     24  C   UNL     1      -2.046  12.039  20.158  0.00  0.00    +0.000 A 
BRANCH  22  25
ATOM     25  C   UNL     1      -3.536  14.078  23.060  0.00  0.00    +0.000 C 
ATOM     26  C   UNL     1      -3.559  13.725  24.560  0.00  0.00    +0.000 C 
ATOM     27  C   UNL     1      -4.368  12.458  24.842  0.00  0.00    +0.000 C 
ATOM     28  C   UNL     1      -5.744  12.471  24.172  0.00  0.00    +0.000 C 
ATOM     29  N   UNL     1      -5.709  12.862  22.769  0.00  0.00    +0.000 NA
ATOM     30  C   UNL     1      -5.003  14.134  22.561  0.00  0.00    +0.000 C 
ATOM     31  H   UNL     1      -6.651  12.911  22.388  0.00  0.00    +0.000 HD
ENDBRANCH  22  25
ENDBRANCH   3  19
TORSDOF 5
ENDMDL
MODEL 7
REMARK VINA RESULT:      -7.9      1.521      1.698
REMARK  Name = 
REMARK  5 active torsions:
REMARK  status: ('A' for Active; 'I' for Inactive)
REMARK    1  A    between atoms: C_2  and  C_3
REMARK    2  A    between atoms: C_7  and  C_8
REMARK    3  A    between atoms: C_10  and  C_11
REMARK    4  A    between atoms: N_13  and  C_14
REMARK    5  A    between atoms: C_17  and  C_18
REMARK                            x       y       z     vdW  Elec       q    Type
REMARK                         _______ _______ _______ _____ _____    ______ ____
ROOT
ATOM      1  C   UNL     1       0.271  10.302  19.466  0.00  0.00    +0.000 C 
ATOM      2  O   UNL     1      -0.746  10.633  18.866  0.00  0.00    +0.000 OA
ATOM      3  N   UNL     1       0.643  10.717  20.733  0.00  0.00    +0.000 N 
ATOM      4  H   UNL     1       1.566  10.480  21.061  0.00  0.00    +0.000 HD
ENDROOT
BRANCH   1   7
ATOM      5  C   UNL     1       2.631   7.898  18.078  0.00  0.00    +0.000 A 
ATOM      6  C   UNL     1       1.736   8.204  19.133  0.00  0.00    +0.000 A 
ATOM      7  C   UNL     1       1.213   9.438  18.823  0.00  0.00    +0.000 A 
ATOM      8  N   UNL     1       1.796   9.789  17.638  0.00  0.00    +0.000 N 
ATOM      9  N   UNL     1       2.680   8.891  17.183  0.00  0.00    +0.000 NA
ATOM     10  H   UNL     1       1.623  10.637  17.105  0.00  0.00    +0.000 HD
BRANCH   5  15
ATOM     11  C   UNL     1       5.306   5.516  16.969  0.00  0.00    +0.000 A 
ATOM     12  C   UNL     1       4.880   4.322  17.570  0.00  0.00    +0.000 A 
ATOM     13  C   UNL     1       3.727   4.313  18.348  0.00  0.00    +0.000 A 
ATOM     14  C   UNL     1       2.998   5.490  18.527  0.00  0.00    +0.000 A 
ATOM     15  C   UNL     1       3.417   6.676  17.920  0.00  0.00    +0.000 A 
ATOM     16  C   UNL     1       4.577   6.691  17.147  0.00  0.00    +0.000 A 
BRANCH  11  18
ATOM     17  N   UNL     1       7.458   5.542  15.529  0.00  0.00    +0.000 NA
ATOM     18  C   UNL     1       6.491   5.528  16.172  0.00  0.00    +0.000 C 
ENDBRANCH  11  18
ENDBRANCH   5  15
ENDBRANCH   1   7
BRANCH   3  19
ATOM     19  C   UNL     1      -0.120  11.551  21.566  0.00  0.00    +0.000 A 
ATOM     20  C   UNL     1      -0.028  12.932  21.495  0.00  0.00    +0.000 A 
ATOM     21  C   UNL     1      -0.794  13.731  22.328  0.00  0.00    +0.000 A 
ATOM     22  C   UNL     1      -1.701  13.186  23.244  0.00  0.00    +0.000 A 
ATOM     23  C   UNL     1      -1.776  11.787  23.328  0.00  0.00    +0.000 A 
ATOM     24  C   UNL     1      -1.006  10.975  22.482  0.00  0.00    +0.000 A 
BRANCH  22  25
ATOM     25  C   UNL     1      -2.577  14.080  24.122  0.00  0.00    +0.000 C 
ATOM     26  C   UNL     1      -3.862  13.375  24.598  0.00  0.00    +0.000 C 
ATOM     27  C   UNL     1      -4.892  13.236  23.477  0.00  0.00    +0.000 C 
ATOM     28  C   UNL     1      -5.130  14.546  22.724  0.00  0.00    +0.000 C 
ATOM     29  N   UNL     1      -3.903  15.227  22.331  0.00  0.00    +0.000 NA
ATOM     30  C   UNL     1      -2.986  15.422  23.463  0.00  0.00    +0.000 C 
ATOM     31  H   UNL     1      -4.115  16.118  21.887  0.00  0.00    +0.000 HD
ENDBRANCH  22  25
ENDBRANCH   3  19
TORSDOF 5
ENDMDL
MODEL 8
REMARK VINA RESULT:      -7.9      1.778      2.668
REMARK  Name = 
REMARK  5 active torsions:
REMARK  status: ('A' for Active; 'I' for Inactive)
REMARK    1  A    between atoms: C_2  and  C_3
REMARK    2  A    between atoms: C_7  and  C_8
REMARK    3  A    between atoms: C_10  and  C_11
REMARK    4  A    between atoms: N_13  and  C_14
REMARK    5  A    between atoms: C_17  and  C_18
REMARK                            x       y       z     vdW  Elec       q    Type
REMARK                         _______ _______ _______ _____ _____    ______ ____
ROOT
ATOM      1  C   UNL     1       0.848  10.786  19.783  0.00  0.00    +0.000 C 
ATOM      2  O   UNL     1       1.452  11.839  19.962  0.00  0.00    +0.000 OA
ATOM      3  N   UNL     1      -0.401  10.466  20.283  0.00  0.00    +0.000 N 
ATOM      4  H   UNL     1      -0.731   9.519  20.177  0.00  0.00    +0.000 HD
ENDROOT
BRANCH   1   7
ATOM      5  C   UNL     1       2.389   7.936  18.116  0.00  0.00    +0.000 A 
ATOM      6  C   UNL     1       1.761   8.423  19.288  0.00  0.00    +0.000 A 
ATOM      7  C   UNL     1       1.470   9.742  19.027  0.00  0.00    +0.000 A 
ATOM      8  N   UNL     1       1.918   9.964  17.755  0.00  0.00    +0.000 N 
ATOM      9  N   UNL     1       2.507   8.899  17.194  0.00  0.00    +0.000 NA
ATOM     10  H   UNL     1       1.848  10.832  17.230  0.00  0.00    +0.000 HD
BRANCH   5  15
ATOM     11  C   UNL     1       2.492   4.191  17.942  0.00  0.00    +0.000 A 
ATOM     12  C   UNL     1       3.794   3.973  17.466  0.00  0.00    +0.000 A 
ATOM     13  C   UNL     1       4.621   5.057  17.190  0.00  0.00    +0.000 A 
ATOM     14  C   UNL     1       4.154   6.357  17.389  0.00  0.00    +0.000 A 
ATOM     15  C   UNL     1       2.862   6.574  17.873  0.00  0.00    +0.000 A 
ATOM     16  C   UNL     1       2.027   5.491  18.142  0.00  0.00    +0.000 A 
BRANCH  11  18
ATOM     17  N   UNL     1       0.944   2.181  18.456  0.00  0.00    +0.000 NA
ATOM     18  C   UNL     1       1.641   3.080  18.224  0.00  0.00    +0.000 C 
ENDBRANCH  11  18
ENDBRANCH   5  15
ENDBRANCH   1   7
BRANCH   3  19
ATOM     19  C   UNL     1      -1.213  11.327  21.039  0.00  0.00    +0.000 A 
ATOM     20  C   UNL     1      -1.150  11.358  22.423  0.00  0.00    +0.000 A 
ATOM     21  C   UNL     1      -1.962  12.219  23.144  0.00  0.00    +0.000 A 
ATOM     22  C   UNL     1      -2.847  13.101  22.513  0.00  0.00    +0.000 A 
ATOM     23  C   UNL     1      -2.923  13.052  21.113  0.00  0.00    +0.000 A 
ATOM     24  C   UNL     1      -2.099  12.186  20.379  0.00  0.00    +0.000 A 
BRANCH  22  25
ATOM     25  C   UNL     1      -3.700  14.081  23.319  0.00  0.00    +0.000 C 
ATOM     26  C   UNL     1      -3.946  13.609  24.766  0.00  0.00    +0.000 C 
ATOM     27  C   UNL     1      -4.955  12.462  24.834  0.00  0.00    +0.000 C 
ATOM     28  C   UNL     1      -6.229  12.745  24.035  0.00  0.00    +0.000 C 
ATOM     29  N   UNL     1      -5.977  13.244  22.689  0.00  0.00    +0.000 NA
ATOM     30  C   UNL     1      -5.076  14.405  22.683  0.00  0.00    +0.000 C 
ATOM     31  H   UNL     1      -6.853  13.471  22.222  0.00  0.00    +0.000 HD
ENDBRANCH  22  25
ENDBRANCH   3  19
TORSDOF 5
ENDMDL
MODEL 9
REMARK VINA RESULT:      -7.9      3.797      4.601
REMARK  Name = 
REMARK  5 active torsions:
REMARK  status: ('A' for Active; 'I' for Inactive)
REMARK    1  A    between atoms: C_2  and  C_3
REMARK    2  A    between atoms: C_7  and  C_8
REMARK    3  A    between atoms: C_10  and  C_11
REMARK    4  A    between atoms: N_13  and  C_14
REMARK    5  A    between atoms: C_17  and  C_18
REMARK                            x       y       z     vdW  Elec       q    Type
REMARK                         _______ _______ _______ _____ _____    ______ ____
ROOT
ATOM      1  C   UNL     1       0.816  10.445  19.403  0.00  0.00    +0.000 C 
ATOM      2  O   UNL     1      -0.336  10.526  19.819  0.00  0.00    +0.000 OA
ATOM      3  N   UNL     1       1.612  11.501  18.995  0.00  0.00    +0.000 N 
ATOM      4  H   UNL     1       2.491  11.291  18.548  0.00  0.00    +0.000 HD
ENDROOT
BRANCH   1   7
ATOM      5  C   UNL     1       2.414   7.237  18.750  0.00  0.00    +0.000 A 
ATOM      6  C   UNL     1       2.017   8.490  18.223  0.00  0.00    +0.000 A 
ATOM      7  C   UNL     1       1.423   9.157  19.269  0.00  0.00    +0.000 A 
ATOM      8  N   UNL     1       1.500   8.300  20.331  0.00  0.00    +0.000 N 
ATOM      9  N   UNL     1       2.065   7.121  20.037  0.00  0.00    +0.000 NA
ATOM     10  H   UNL     1       1.174   8.477  21.278  0.00  0.00    +0.000 HD
BRANCH   5  15
ATOM     11  C   UNL     1       5.047   5.406  16.806  0.00  0.00    +0.000 A 
ATOM     12  C   UNL     1       4.446   4.149  16.644  0.00  0.00    +0.000 A 
ATOM     13  C   UNL     1       3.189   3.907  17.188  0.00  0.00    +0.000 A 
ATOM     14  C   UNL     1       2.530   4.916  17.892  0.00  0.00    +0.000 A 
ATOM     15  C   UNL     1       3.124   6.172  18.044  0.00  0.00    +0.000 A 
ATOM     16  C   UNL     1       4.387   6.414  17.509  0.00  0.00    +0.000 A 
BRANCH  11  18
ATOM     17  N   UNL     1       7.386   5.864  15.795  0.00  0.00    +0.000 NA
ATOM     18  C   UNL     1       6.339   5.655  16.250  0.00  0.00    +0.000 C 
ENDBRANCH  11  18
ENDBRANCH   5  15
ENDBRANCH   1   7
BRANCH   3  19
ATOM     19  C   UNL     1       1.246  12.855  19.044  0.00  0.00    +0.000 A 
ATOM     20  C   UNL     1       0.033  13.300  18.541  0.00  0.00    +0.000 A 
ATOM     21  C   UNL     1      -0.304  14.642  18.605  0.00  0.00    +0.000 A 
ATOM     22  C   UNL     1       0.541  15.588  19.197  0.00  0.00    +0.000 A 
ATOM     23  C   UNL     1       1.777  15.137  19.686  0.00  0.00    +0.000 A 
ATOM     24  C   UNL     1       2.119  13.779  19.628  0.00  0.00    +0.000 A 
BRANCH  22  25
ATOM     25  C   UNL     1       0.134  17.058  19.305  0.00  0.00    +0.000 C 
ATOM     26  C   UNL     1      -0.856  17.486  18.205  0.00  0.00    +0.000 C 
ATOM     27  C   UNL     1      -0.176  17.635  16.843  0.00  0.00    +0.000 C 
ATOM     28  C   UNL     1       1.102  18.473  16.907  0.00  0.00    +0.000 C 
ATOM     29  N   UNL     1       2.001  18.090  17.988  0.00  0.00    +0.000 NA
ATOM     30  C   UNL     1       1.322  18.054  19.292  0.00  0.00    +0.000 C 
ATOM     31  H   UNL     1       2.805  18.714  18.023  0.00  0.00    +0.000 HD
ENDBRANCH  22  25
ENDBRANCH   3  19
TORSDOF 5
ENDMDL
