MODEL 1
REMARK VINA RESULT:      -7.0      0.000      0.000
REMARK  Name = 
REMARK  11 active torsions:
REMARK  status: ('A' for Active; 'I' for Inactive)
REMARK    1  A    between atoms: C_1  and  O_2
REMARK    2  A    between atoms: O_2  and  C_3
REMARK    3  A    between atoms: C_7  and  C_8
REMARK    4  A    between atoms: C_8  and  C_9
REMARK    5  A    between atoms: C_9  and  N_10
REMARK    6  A    between atoms: C_9  and  C_14
REMARK    7  A    between atoms: C_11  and  C_12
REMARK    8  A    between atoms: N_16  and  C_17
REMARK    9  A    between atoms: C_21  and  C_23
REMARK   10  A    between atoms: C_32  and  O_33
REMARK   11  A    between atoms: O_33  and  C_34
REMARK                            x       y       z     vdW  Elec       q    Type
REMARK                         _______ _______ _______ _____ _____    ______ ____
ROOT
ATOM      1  C   UNL     1       1.639   7.466  20.307  0.00  0.00    +0.000 C 
ATOM      2  O   UNL     1       1.126   6.680  21.101  0.00  0.00    +0.000 OA
ATOM      3  N   UNL     1       2.512   7.061  19.319  0.00  0.00    +0.000 N 
ATOM      4  H   UNL     1       2.989   7.792  18.791  0.00  0.00    +0.000 HD
ENDROOT
BRANCH   3   5
ATOM      5  C   UNL     1       2.840   5.666  19.060  0.00  0.00    +0.000 C 
ATOM      6  C   UNL     1       4.140   5.259  19.764  0.00  0.00    +0.000 C 
ATOM      7  C   UNL     1       5.372   5.865  19.092  0.00  0.00    +0.000 C 
ATOM      8  N   UNL     1       5.396   5.556  17.663  0.00  0.00    +0.000 N 
ATOM      9  C   UNL     1       6.478   4.824  17.159  0.00  0.00    +0.000 C 
ATOM     10  O   UNL     1       7.362   4.370  17.883  0.00  0.00    +0.000 OA
ATOM     11  C   UNL     1       4.192   5.964  16.936  0.00  0.00    +0.000 C 
ATOM     12  C   UNL     1       2.932   5.376  17.560  0.00  0.00    +0.000 C 
BRANCH   9  13
ATOM     13  C   UNL     1       6.591   4.536  15.702  0.00  0.00    +0.000 A 
ATOM     14  C   UNL     1       5.808   3.565  15.067  0.00  0.00    +0.000 A 
ATOM     15  C   UNL     1       6.005   3.274  13.722  0.00  0.00    +0.000 A 
ATOM     16  C   UNL     1       6.920   4.018  12.980  0.00  0.00    +0.000 A 
ATOM     17 CL   UNL     1       7.161   3.651  11.317  0.00  0.00    +0.000 Cl
ATOM     18  C   UNL     1       7.637   5.055  13.573  0.00  0.00    +0.000 A 
ATOM     19  C   UNL     1       7.477   5.311  14.939  0.00  0.00    +0.000 A 
ENDBRANCH   9  13
ENDBRANCH   3   5
BRANCH   1  20
ATOM     20  C   UNL     1       1.449   8.993  20.431  0.00  0.00    +0.000 C 
BRANCH  20  21
ATOM     21  N   UNL     1       0.296   9.305  21.299  0.00  0.00    +0.000 N 
ATOM     22  C   UNL     1       0.349   9.590  22.637  0.00  0.00    +0.000 C 
ATOM     23  C   UNL     1      -0.974   9.985  23.232  0.00  0.00    +0.000 C 
ATOM     24  O   UNL     1       1.396   9.613  23.278  0.00  0.00    +0.000 OA
ATOM     25  H   UNL     1      -0.584   9.448  20.824  0.00  0.00    +0.000 HD
ENDBRANCH  20  21
BRANCH  20  26
ATOM     26  C   UNL     1       1.456   9.615  19.018  0.00  0.00    +0.000 C 
BRANCH  26  31
ATOM     27  C   UNL     1      -0.634  12.838  18.720  0.00  0.00    +0.000 A 
ATOM     28  C   UNL     1      -1.852  12.266  18.311  0.00  0.00    +0.000 A 
ATOM     29  C   UNL     1      -1.962  10.905  18.045  0.00  0.00    +0.000 A 
ATOM     30  C   UNL     1      -0.868  10.081  18.242  0.00  0.00    +0.000 A 
ATOM     31  C   UNL     1       0.342  10.602  18.724  0.00  0.00    +0.000 A 
ATOM     32  C   UNL     1       0.481  11.997  18.928  0.00  0.00    +0.000 A 
BRANCH  27  34
ATOM     33  C   UNL     1      -1.248  14.744  20.025  0.00  0.00    +0.000 C 
ATOM     34  O   UNL     1      -0.509  14.189  18.939  0.00  0.00    +0.000 OA
ENDBRANCH  27  34
BRANCH  32  35
ATOM     35  O   UNL     1       1.750  12.356  19.305  0.00  0.00    +0.000 OA
ATOM     36  C   UNL     1       1.990  12.974  20.558  0.00  0.00    +0.000 C 
ENDBRANCH  32  35
ENDBRANCH  26  31
ENDBRANCH  20  26
ENDBRANCH   1  20
TORSDOF 8
ENDMDL
MODEL 2
REMARK VINA RESULT:      -6.9      4.502     10.645
REMARK  Name = 
REMARK  11 active torsions:
REMARK  status: ('A' for Active; 'I' for Inactive)
REMARK    1  A    between atoms: C_1  and  O_2
REMARK    2  A    between atoms: O_2  and  C_3
REMARK    3  A    between atoms: C_7  and  C_8
REMARK    4  A    between atoms: C_8  and  C_9
REMARK    5  A    between atoms: C_9  and  N_10
REMARK    6  A    between atoms: C_9  and  C_14
REMARK    7  A    between atoms: C_11  and  C_12
REMARK    8  A    between atoms: N_16  and  C_17
REMARK    9  A    between atoms: C_21  and  C_23
REMARK   10  A    between atoms: C_32  and  O_33
REMARK   11  A    between atoms: O_33  and  C_34
REMARK                            x       y       z     vdW  Elec       q    Type
REMARK                         _______ _______ _______ _____ _____    ______ ____
ROOT
ATOM      1  C   UNL     1       2.243   8.627  18.051  0.00  0.00    +0.000 C 
ATOM      2  O   UNL     1       2.700   9.213  17.073  0.00  0.00    +0.000 OA
ATOM      3  N   UNL     1       1.261   9.171  18.853  0.00  0.00    +0.000 N 
ATOM      4  H   UNL     1       1.036   8.674  19.715  0.00  0.00    +0.000 HD
ENDROOT
BRANCH   3   5
ATOM      5  C   UNL     1       0.608  10.442  18.571  0.00  0.00    +0.000 C 
ATOM      6  C   UNL     1       1.395  11.617  19.165  0.00  0.00    +0.000 C 
ATOM      7  C   UNL     1       1.270  11.680  20.687  0.00  0.00    +0.000 C 
ATOM      8  N   UNL     1      -0.132  11.688  21.100  0.00  0.00    +0.000 N 
ATOM      9  C   UNL     1      -0.607  12.789  21.822  0.00  0.00    +0.000 C 
ATOM     10  O   UNL     1       0.088  13.777  22.053  0.00  0.00    +0.000 OA
ATOM     11  C   UNL     1      -0.918  10.561  20.592  0.00  0.00    +0.000 C 
ATOM     12  C   UNL     1      -0.838  10.458  19.073  0.00  0.00    +0.000 C 
BRANCH   9  13
ATOM     13  C   UNL     1      -2.008  12.823  22.327  0.00  0.00    +0.000 A 
ATOM     14  C   UNL     1      -2.367  12.305  23.577  0.00  0.00    +0.000 A 
ATOM     15  C   UNL     1      -3.700  12.285  23.971  0.00  0.00    +0.000 A 
ATOM     16  C   UNL     1      -4.671  12.869  23.161  0.00  0.00    +0.000 A 
ATOM     17 CL   UNL     1      -6.319  12.838  23.653  0.00  0.00    +0.000 Cl
ATOM     18  C   UNL     1      -4.317  13.478  21.959  0.00  0.00    +0.000 A 
ATOM     19  C   UNL     1      -2.984  13.449  21.537  0.00  0.00    +0.000 A 
ENDBRANCH   9  13
ENDBRANCH   3   5
BRANCH   1  20
ATOM     20  C   UNL     1       2.822   7.282  18.543  0.00  0.00    +0.000 C 
BRANCH  20  21
ATOM     21  N   UNL     1       4.052   6.944  17.800  0.00  0.00    +0.000 N 
ATOM     22  C   UNL     1       5.113   6.226  18.284  0.00  0.00    +0.000 C 
ATOM     23  C   UNL     1       6.175   5.936  17.259  0.00  0.00    +0.000 C 
ATOM     24  O   UNL     1       5.157   5.778  19.426  0.00  0.00    +0.000 OA
ATOM     25  H   UNL     1       4.038   7.150  16.812  0.00  0.00    +0.000 HD
ENDBRANCH  20  21
BRANCH  20  26
ATOM     26  C   UNL     1       1.695   6.228  18.559  0.00  0.00    +0.000 C 
BRANCH  26  31
ATOM     27  C   UNL     1       2.446   2.561  19.474  0.00  0.00    +0.000 A 
ATOM     28  C   UNL     1       2.343   2.664  20.873  0.00  0.00    +0.000 A 
ATOM     29  C   UNL     1       2.140   3.890  21.497  0.00  0.00    +0.000 A 
ATOM     30  C   UNL     1       1.976   5.029  20.728  0.00  0.00    +0.000 A 
ATOM     31  C   UNL     1       1.994   4.954  19.327  0.00  0.00    +0.000 A 
ATOM     32  C   UNL     1       2.272   3.721  18.687  0.00  0.00    +0.000 A 
BRANCH  27  34
ATOM     33  C   UNL     1       4.042   0.896  18.848  0.00  0.00    +0.000 C 
ATOM     34  O   UNL     1       2.693   1.359  18.856  0.00  0.00    +0.000 OA
ENDBRANCH  27  34
BRANCH  32  35
ATOM     35  O   UNL     1       2.350   3.835  17.323  0.00  0.00    +0.000 OA
ATOM     36  C   UNL     1       3.567   3.587  16.640  0.00  0.00    +0.000 C 
ENDBRANCH  32  35
ENDBRANCH  26  31
ENDBRANCH  20  26
ENDBRANCH   1  20
TORSDOF 8
ENDMDL
MODEL 3
REMARK VINA RESULT:      -6.9      2.671      5.555
REMARK  Name = 
REMARK  11 active torsions:
REMARK  status: ('A' for Active; 'I' for Inactive)
REMARK    1  A    between atoms: C_1  and  O_2
REMARK    2  A    between atoms: O_2  and  C_3
REMARK    3  A    between atoms: C_7  and  C_8
REMARK    4  A    between atoms: C_8  and  C_9
REMARK    5  A    between atoms: C_9  and  N_10
REMARK    6  A    between atoms: C_9  and  C_14
REMARK    7  A    between atoms: C_11  and  C_12
REMARK    8  A    between atoms: N_16  and  C_17
REMARK    9  A    between atoms: C_21  and  C_23
REMARK   10  A    between atoms: C_32  and  O_33
REMARK   11  A    between atoms: O_33  and  C_34
REMARK                            x       y       z     vdW  Elec       q    Type
REMARK                         _______ _______ _______ _____ _____    ______ ____
ROOT
ATOM      1  C   UNL     1       0.033  12.518  19.197  0.00  0.00    +0.000 C 
ATOM      2  O   UNL     1      -1.160  12.580  18.913  0.00  0.00    +0.000 OA
ATOM      3  N   UNL     1       0.728  11.326  19.235  0.00  0.00    +0.000 N 
ATOM      4  H   UNL     1       1.678  11.354  19.607  0.00  0.00    +0.000 HD
ENDROOT
BRANCH   3   5
ATOM      5  C   UNL     1       0.146  10.046  18.858  0.00  0.00    +0.000 C 
ATOM      6  C   UNL     1      -0.136   9.178  20.090  0.00  0.00    +0.000 C 
ATOM      7  C   UNL     1       1.147   8.622  20.708  0.00  0.00    +0.000 C 
ATOM      8  N   UNL     1       1.950   7.920  19.707  0.00  0.00    +0.000 N 
ATOM      9  C   UNL     1       2.222   6.561  19.907  0.00  0.00    +0.000 C 
ATOM     10  O   UNL     1       1.749   5.924  20.847  0.00  0.00    +0.000 OA
ATOM     11  C   UNL     1       2.283   8.722  18.528  0.00  0.00    +0.000 C 
ATOM     12  C   UNL     1       1.035   9.292  17.865  0.00  0.00    +0.000 C 
BRANCH   9  13
ATOM     13  C   UNL     1       3.090   5.810  18.958  0.00  0.00    +0.000 A 
ATOM     14  C   UNL     1       4.487   5.865  19.015  0.00  0.00    +0.000 A 
ATOM     15  C   UNL     1       5.255   5.212  18.058  0.00  0.00    +0.000 A 
ATOM     16  C   UNL     1       4.635   4.421  17.093  0.00  0.00    +0.000 A 
ATOM     17 CL   UNL     1       5.590   3.619  15.910  0.00  0.00    +0.000 Cl
ATOM     18  C   UNL     1       3.249   4.275  17.083  0.00  0.00    +0.000 A 
ATOM     19  C   UNL     1       2.474   4.976  18.013  0.00  0.00    +0.000 A 
ENDBRANCH   9  13
ENDBRANCH   3   5
BRANCH   1  20
ATOM     20  C   UNL     1       0.829  13.757  19.662  0.00  0.00    +0.000 C 
BRANCH  20  21
ATOM     21  N   UNL     1       2.138  13.820  18.981  0.00  0.00    +0.000 N 
ATOM     22  C   UNL     1       2.771  14.957  18.557  0.00  0.00    +0.000 C 
ATOM     23  C   UNL     1       4.149  14.720  18.003  0.00  0.00    +0.000 C 
ATOM     24  O   UNL     1       2.300  16.082  18.697  0.00  0.00    +0.000 OA
ATOM     25  H   UNL     1       2.659  12.955  18.954  0.00  0.00    +0.000 HD
ENDBRANCH  20  21
BRANCH  20  26
ATOM     26  C   UNL     1       0.833  13.801  21.205  0.00  0.00    +0.000 C 
BRANCH  26  31
ATOM     27  C   UNL     1      -2.330  14.343  23.336  0.00  0.00    +0.000 A 
ATOM     28  C   UNL     1      -2.728  15.588  22.815  0.00  0.00    +0.000 A 
ATOM     29  C   UNL     1      -1.948  16.268  21.886  0.00  0.00    +0.000 A 
ATOM     30  C   UNL     1      -0.784  15.687  21.415  0.00  0.00    +0.000 A 
ATOM     31  C   UNL     1      -0.395  14.412  21.852  0.00  0.00    +0.000 A 
ATOM     32  C   UNL     1      -1.146  13.746  22.851  0.00  0.00    +0.000 A 
BRANCH  27  34
ATOM     33  C   UNL     1      -4.323  13.140  23.875  0.00  0.00    +0.000 C 
ATOM     34  O   UNL     1      -3.074  13.689  24.289  0.00  0.00    +0.000 OA
ENDBRANCH  27  34
BRANCH  32  35
ATOM     35  O   UNL     1      -0.581  12.557  23.238  0.00  0.00    +0.000 OA
ATOM     36  C   UNL     1      -1.129  11.319  22.817  0.00  0.00    +0.000 C 
ENDBRANCH  32  35
ENDBRANCH  26  31
ENDBRANCH  20  26
ENDBRANCH   1  20
TORSDOF 8
ENDMDL
MODEL 4
REMARK VINA RESULT:      -6.9      3.168      5.589
REMARK  Name = 
REMARK  11 active torsions:
REMARK  status: ('A' for Active; 'I' for Inactive)
REMARK    1  A    between atoms: C_1  and  O_2
REMARK    2  A    between atoms: O_2  and  C_3
REMARK    3  A    between atoms: C_7  and  C_8
REMARK    4  A    between atoms: C_8  and  C_9
REMARK    5  A    between atoms: C_9  and  N_10
REMARK    6  A    between atoms: C_9  and  C_14
REMARK    7  A    between atoms: C_11  and  C_12
REMARK    8  A    between atoms: N_16  and  C_17
REMARK    9  A    between atoms: C_21  and  C_23
REMARK   10  A    between atoms: C_32  and  O_33
REMARK   11  A    between atoms: O_33  and  C_34
REMARK                            x       y       z     vdW  Elec       q    Type
REMARK                         _______ _______ _______ _____ _____    ______ ____
ROOT
ATOM      1  C   UNL     1       0.453  12.552  19.013  0.00  0.00    +0.000 C 
ATOM      2  O   UNL     1      -0.530  12.712  18.295  0.00  0.00    +0.000 OA
ATOM      3  N   UNL     1       0.878  11.305  19.425  0.00  0.00    +0.000 N 
ATOM      4  H   UNL     1       1.621  11.274  20.123  0.00  0.00    +0.000 HD
ENDROOT
BRANCH   3   5
ATOM      5  C   UNL     1       0.266  10.062  18.980  0.00  0.00    +0.000 C 
ATOM      6  C   UNL     1      -0.071   9.150  20.167  0.00  0.00    +0.000 C 
ATOM      7  C   UNL     1       1.181   8.528  20.786  0.00  0.00    +0.000 C 
ATOM      8  N   UNL     1       1.983   7.844  19.773  0.00  0.00    +0.000 N 
ATOM      9  C   UNL     1       2.209   6.470  19.920  0.00  0.00    +0.000 C 
ATOM     10  O   UNL     1       1.696   5.809  20.821  0.00  0.00    +0.000 OA
ATOM     11  C   UNL     1       2.367   8.685  18.637  0.00  0.00    +0.000 C 
ATOM     12  C   UNL     1       1.152   9.323  17.974  0.00  0.00    +0.000 C 
BRANCH   9  13
ATOM     13  C   UNL     1       3.074   5.733  18.957  0.00  0.00    +0.000 A 
ATOM     14  C   UNL     1       4.471   5.788  19.010  0.00  0.00    +0.000 A 
ATOM     15  C   UNL     1       5.237   5.150  18.040  0.00  0.00    +0.000 A 
ATOM     16  C   UNL     1       4.613   4.373  17.067  0.00  0.00    +0.000 A 
ATOM     17 CL   UNL     1       5.565   3.588  15.869  0.00  0.00    +0.000 Cl
ATOM     18  C   UNL     1       3.227   4.226  17.059  0.00  0.00    +0.000 A 
ATOM     19  C   UNL     1       2.455   4.913  18.002  0.00  0.00    +0.000 A 
ENDBRANCH   9  13
ENDBRANCH   3   5
BRANCH   1  20
ATOM     20  C   UNL     1       1.224  13.743  19.623  0.00  0.00    +0.000 C 
BRANCH  20  21
ATOM     21  N   UNL     1       0.436  14.375  20.699  0.00  0.00    +0.000 N 
ATOM     22  C   UNL     1      -0.001  13.764  21.844  0.00  0.00    +0.000 C 
ATOM     23  C   UNL     1      -0.679  14.691  22.814  0.00  0.00    +0.000 C 
ATOM     24  O   UNL     1       0.221  12.584  22.103  0.00  0.00    +0.000 OA
ATOM     25  H   UNL     1       0.332  15.378  20.635  0.00  0.00    +0.000 HD
ENDBRANCH  20  21
BRANCH  20  26
ATOM     26  C   UNL     1       1.719  14.657  18.481  0.00  0.00    +0.000 C 
BRANCH  26  31
ATOM     27  C   UNL     1       4.672  16.950  19.410  0.00  0.00    +0.000 A 
ATOM     28  C   UNL     1       5.696  16.266  18.730  0.00  0.00    +0.000 A 
ATOM     29  C   UNL     1       5.456  15.058  18.084  0.00  0.00    +0.000 A 
ATOM     30  C   UNL     1       4.173  14.542  18.055  0.00  0.00    +0.000 A 
ATOM     31  C   UNL     1       3.111  15.235  18.654  0.00  0.00    +0.000 A 
ATOM     32  C   UNL     1       3.361  16.428  19.376  0.00  0.00    +0.000 A 
BRANCH  27  34
ATOM     33  C   UNL     1       5.319  18.009  21.453  0.00  0.00    +0.000 C 
ATOM     34  O   UNL     1       4.915  18.119  20.090  0.00  0.00    +0.000 OA
ENDBRANCH  27  34
BRANCH  32  35
ATOM     35  O   UNL     1       2.237  16.928  19.983  0.00  0.00    +0.000 OA
ATOM     36  C   UNL     1       1.584  18.079  19.473  0.00  0.00    +0.000 C 
ENDBRANCH  32  35
ENDBRANCH  26  31
ENDBRANCH  20  26
ENDBRANCH   1  20
TORSDOF 8
ENDMDL
MODEL 5
REMARK VINA RESULT:      -6.9      2.624      5.282
REMARK  Name = 
REMARK  11 active torsions:
REMARK  status: ('A' for Active; 'I' for Inactive)
REMARK    1  A    between atoms: C_1  and  O_2
REMARK    2  A    between atoms: O_2  and  C_3
REMARK    3  A    between atoms: C_7  and  C_8
REMARK    4  A    between atoms: C_8  and  C_9
REMARK    5  A    between atoms: C_9  and  N_10
REMARK    6  A    between atoms: C_9  and  C_14
REMARK    7  A    between atoms: C_11  and  C_12
REMARK    8  A    between atoms: N_16  and  C_17
REMARK    9  A    between atoms: C_21  and  C_23
REMARK   10  A    between atoms: C_32  and  O_33
REMARK   11  A    between atoms: O_33  and  C_34
REMARK                            x       y       z     vdW  Elec       q    Type
REMARK                         _______ _______ _______ _____ _____    ______ ____
ROOT
ATOM      1  C   UNL     1       0.358  12.297  19.005  0.00  0.00    +0.000 C 
ATOM      2  O   UNL     1      -0.592  12.421  18.236  0.00  0.00    +0.000 OA
ATOM      3  N   UNL     1       0.784  11.068  19.468  0.00  0.00    +0.000 N 
ATOM      4  H   UNL     1       1.493  11.068  20.202  0.00  0.00    +0.000 HD
ENDROOT
BRANCH   3   5
ATOM      5  C   UNL     1       0.216   9.803  19.026  0.00  0.00    +0.000 C 
ATOM      6  C   UNL     1       0.032   8.833  20.200  0.00  0.00    +0.000 C 
ATOM      7  C   UNL     1       1.366   8.273  20.695  0.00  0.00    +0.000 C 
ATOM      8  N   UNL     1       2.125   7.676  19.597  0.00  0.00    +0.000 N 
ATOM      9  C   UNL     1       2.446   6.315  19.673  0.00  0.00    +0.000 C 
ATOM     10  O   UNL     1       2.048   5.593  20.586  0.00  0.00    +0.000 OA
ATOM     11  C   UNL     1       2.363   8.577  18.467  0.00  0.00    +0.000 C 
ATOM     12  C   UNL     1       1.062   9.157  17.926  0.00  0.00    +0.000 C 
BRANCH   9  13
ATOM     13  C   UNL     1       3.274   5.667  18.618  0.00  0.00    +0.000 A 
ATOM     14  C   UNL     1       2.756   4.703  17.745  0.00  0.00    +0.000 A 
ATOM     15  C   UNL     1       3.586   4.067  16.830  0.00  0.00    +0.000 A 
ATOM     16  C   UNL     1       4.919   4.458  16.715  0.00  0.00    +0.000 A 
ATOM     17 CL   UNL     1       5.941   3.665  15.583  0.00  0.00    +0.000 Cl
ATOM     18  C   UNL     1       5.425   5.485  17.508  0.00  0.00    +0.000 A 
ATOM     19  C   UNL     1       4.603   6.088  18.466  0.00  0.00    +0.000 A 
ENDBRANCH   9  13
ENDBRANCH   3   5
BRANCH   1  20
ATOM     20  C   UNL     1       1.077  13.516  19.621  0.00  0.00    +0.000 C 
BRANCH  20  21
ATOM     21  N   UNL     1       2.326  13.807  18.889  0.00  0.00    +0.000 N 
ATOM     22  C   UNL     1       2.869  15.047  18.684  0.00  0.00    +0.000 C 
ATOM     23  C   UNL     1       4.211  15.024  18.006  0.00  0.00    +0.000 C 
ATOM     24  O   UNL     1       2.355  16.083  19.097  0.00  0.00    +0.000 OA
ATOM     25  H   UNL     1       2.885  13.004  18.641  0.00  0.00    +0.000 HD
ENDBRANCH  20  21
BRANCH  20  26
ATOM     26  C   UNL     1       1.185  13.316  21.148  0.00  0.00    +0.000 C 
BRANCH  26  31
ATOM     27  C   UNL     1      -2.169  13.453  23.040  0.00  0.00    +0.000 A 
ATOM     28  C   UNL     1      -2.213  14.835  23.297  0.00  0.00    +0.000 A 
ATOM     29  C   UNL     1      -1.153  15.670  22.960  0.00  0.00    +0.000 A 
ATOM     30  C   UNL     1      -0.052  15.146  22.305  0.00  0.00    +0.000 A 
ATOM     31  C   UNL     1      -0.006  13.786  21.962  0.00  0.00    +0.000 A 
ATOM     32  C   UNL     1      -1.049  12.918  22.365  0.00  0.00    +0.000 A 
BRANCH  27  34
ATOM     33  C   UNL     1      -3.919  12.962  24.591  0.00  0.00    +0.000 C 
ATOM     34  O   UNL     1      -3.194  12.617  23.413  0.00  0.00    +0.000 OA
ENDBRANCH  27  34
BRANCH  32  35
ATOM     35  O   UNL     1      -0.807  11.608  22.039  0.00  0.00    +0.000 OA
ATOM     36  C   UNL     1      -0.692  10.615  23.045  0.00  0.00    +0.000 C 
ENDBRANCH  32  35
ENDBRANCH  26  31
ENDBRANCH  20  26
ENDBRANCH   1  20
TORSDOF 8
ENDMDL
MODEL 6
REMARK VINA RESULT:      -6.8      4.489     10.376
REMARK  Name = 
REMARK  11 active torsions:
REMARK  status: ('A' for Active; 'I' for Inactive)
REMARK    1  A    between atoms: C_1  and  O_2
REMARK    2  A    between atoms: O_2  and  C_3
REMARK    3  A    between atoms: C_7  and  C_8
REMARK    4  A    between atoms: C_8  and  C_9
REMARK    5  A    between atoms: C_9  and  N_10
REMARK    6  A    between atoms: C_9  and  C_14
REMARK    7  A    between atoms: C_11  and  C_12
REMARK    8  A    between atoms: N_16  and  C_17
REMARK    9  A    between atoms: C_21  and  C_23
REMARK   10  A    between atoms: C_32  and  O_33
REMARK   11  A    between atoms: O_33  and  C_34
REMARK                            x       y       z     vdW  Elec       q    Type
REMARK                         _______ _______ _______ _____ _____    ______ ____
ROOT
ATOM      1  C   UNL     1       1.484   9.104  18.858  0.00  0.00    +0.000 C 
ATOM      2  O   UNL     1       1.927   8.832  17.745  0.00  0.00    +0.000 OA
ATOM      3  N   UNL     1       1.070  10.375  19.203  0.00  0.00    +0.000 N 
ATOM      4  H   UNL     1       0.841  10.539  20.184  0.00  0.00    +0.000 HD
ENDROOT
BRANCH   3   5
ATOM      5  C   UNL     1       1.031  11.488  18.266  0.00  0.00    +0.000 C 
ATOM      6  C   UNL     1       2.280  12.368  18.392  0.00  0.00    +0.000 C 
ATOM      7  C   UNL     1       2.267  13.204  19.671  0.00  0.00    +0.000 C 
ATOM      8  N   UNL     1       1.031  13.978  19.779  0.00  0.00    +0.000 N 
ATOM      9  C   UNL     1       1.123  15.375  19.827  0.00  0.00    +0.000 C 
ATOM     10  O   UNL     1       2.191  15.971  19.705  0.00  0.00    +0.000 OA
ATOM     11  C   UNL     1      -0.193  13.177  19.707  0.00  0.00    +0.000 C 
ATOM     12  C   UNL     1      -0.236  12.330  18.441  0.00  0.00    +0.000 C 
BRANCH   9  13
ATOM     13  C   UNL     1      -0.096  16.213  20.005  0.00  0.00    +0.000 A 
ATOM     14  C   UNL     1      -0.665  16.452  21.261  0.00  0.00    +0.000 A 
ATOM     15  C   UNL     1      -1.848  17.173  21.370  0.00  0.00    +0.000 A 
ATOM     16  C   UNL     1      -2.420  17.741  20.233  0.00  0.00    +0.000 A 
ATOM     17 CL   UNL     1      -3.886  18.629  20.374  0.00  0.00    +0.000 Cl
ATOM     18  C   UNL     1      -1.812  17.597  18.988  0.00  0.00    +0.000 A 
ATOM     19  C   UNL     1      -0.651  16.826  18.872  0.00  0.00    +0.000 A 
ENDBRANCH   9  13
ENDBRANCH   3   5
BRANCH   1  20
ATOM     20  C   UNL     1       1.474   8.075  20.009  0.00  0.00    +0.000 C 
BRANCH  20  21
ATOM     21  N   UNL     1       1.269   8.748  21.307  0.00  0.00    +0.000 N 
ATOM     22  C   UNL     1       0.121   8.729  22.052  0.00  0.00    +0.000 C 
ATOM     23  C   UNL     1       0.247   9.407  23.388  0.00  0.00    +0.000 C 
ATOM     24  O   UNL     1      -0.896   8.135  21.705  0.00  0.00    +0.000 OA
ATOM     25  H   UNL     1       2.098   9.140  21.732  0.00  0.00    +0.000 HD
ENDBRANCH  20  21
BRANCH  20  26
ATOM     26  C   UNL     1       2.711   7.161  19.875  0.00  0.00    +0.000 C 
BRANCH  26  31
ATOM     27  C   UNL     1       3.081   3.327  19.782  0.00  0.00    +0.000 A 
ATOM     28  C   UNL     1       1.767   2.976  20.140  0.00  0.00    +0.000 A 
ATOM     29  C   UNL     1       0.830   3.941  20.496  0.00  0.00    +0.000 A 
ATOM     30  C   UNL     1       1.174   5.281  20.441  0.00  0.00    +0.000 A 
ATOM     31  C   UNL     1       2.451   5.673  20.013  0.00  0.00    +0.000 A 
ATOM     32  C   UNL     1       3.431   4.693  19.718  0.00  0.00    +0.000 A 
BRANCH  27  34
ATOM     33  C   UNL     1       3.717   1.475  18.411  0.00  0.00    +0.000 C 
ATOM     34  O   UNL     1       4.023   2.375  19.475  0.00  0.00    +0.000 OA
ENDBRANCH  27  34
BRANCH  32  35
ATOM     35  O   UNL     1       4.652   5.238  19.411  0.00  0.00    +0.000 OA
ATOM     36  C   UNL     1       5.149   5.209  18.083  0.00  0.00    +0.000 C 
ENDBRANCH  32  35
ENDBRANCH  26  31
ENDBRANCH  20  26
ENDBRANCH   1  20
TORSDOF 8
ENDMDL
MODEL 7
REMARK VINA RESULT:      -6.8      2.703      5.386
REMARK  Name = 
REMARK  11 active torsions:
REMARK  status: ('A' for Active; 'I' for Inactive)
REMARK    1  A    between atoms: C_1  and  O_2
REMARK    2  A    between atoms: O_2  and  C_3
REMARK    3  A    between atoms: C_7  and  C_8
REMARK    4  A    between atoms: C_8  and  C_9
REMARK    5  A    between atoms: C_9  and  N_10
REMARK    6  A    between atoms: C_9  and  C_14
REMARK    7  A    between atoms: C_11  and  C_12
REMARK    8  A    between atoms: N_16  and  C_17
REMARK    9  A    between atoms: C_21  and  C_23
REMARK   10  A    between atoms: C_32  and  O_33
REMARK   11  A    between atoms: O_33  and  C_34
REMARK                            x       y       z     vdW  Elec       q    Type
REMARK                         _______ _______ _______ _____ _____    ______ ____
ROOT
ATOM      1  C   UNL     1       0.088  12.503  19.145  0.00  0.00    +0.000 C 
ATOM      2  O   UNL     1      -1.078  12.581  18.765  0.00  0.00    +0.000 OA
ATOM      3  N   UNL     1       0.754  11.300  19.261  0.00  0.00    +0.000 N 
ATOM      4  H   UNL     1       1.672  11.318  19.707  0.00  0.00    +0.000 HD
ENDROOT
BRANCH   3   5
ATOM      5  C   UNL     1       0.180  10.023  18.862  0.00  0.00    +0.000 C 
ATOM      6  C   UNL     1      -0.117   9.140  20.080  0.00  0.00    +0.000 C 
ATOM      7  C   UNL     1       1.160   8.580  20.707  0.00  0.00    +0.000 C 
ATOM      8  N   UNL     1       1.976   7.891  19.709  0.00  0.00    +0.000 N 
ATOM      9  C   UNL     1       2.249   6.530  19.897  0.00  0.00    +0.000 C 
ATOM     10  O   UNL     1       1.765   5.882  20.824  0.00  0.00    +0.000 OA
ATOM     11  C   UNL     1       2.322   8.707  18.543  0.00  0.00    +0.000 C 
ATOM     12  C   UNL     1       1.082   9.283  17.872  0.00  0.00    +0.000 C 
BRANCH   9  13
ATOM     13  C   UNL     1       3.129   5.791  18.950  0.00  0.00    +0.000 A 
ATOM     14  C   UNL     1       4.526   5.845  19.028  0.00  0.00    +0.000 A 
ATOM     15  C   UNL     1       5.308   5.205  18.073  0.00  0.00    +0.000 A 
ATOM     16  C   UNL     1       4.700   4.427  17.089  0.00  0.00    +0.000 A 
ATOM     17 CL   UNL     1       5.672   3.641  15.909  0.00  0.00    +0.000 Cl
ATOM     18  C   UNL     1       3.315   4.282  17.057  0.00  0.00    +0.000 A 
ATOM     19  C   UNL     1       2.527   4.971  17.985  0.00  0.00    +0.000 A 
ENDBRANCH   9  13
ENDBRANCH   3   5
BRANCH   1  20
ATOM     20  C   UNL     1       0.868  13.737  19.649  0.00  0.00    +0.000 C 
BRANCH  20  21
ATOM     21  N   UNL     1       2.149  13.873  18.927  0.00  0.00    +0.000 N 
ATOM     22  C   UNL     1       2.693  15.040  18.464  0.00  0.00    +0.000 C 
ATOM     23  C   UNL     1       4.066  14.885  17.872  0.00  0.00    +0.000 C 
ATOM     24  O   UNL     1       2.152  16.135  18.601  0.00  0.00    +0.000 OA
ATOM     25  H   UNL     1       2.724  13.043  18.899  0.00  0.00    +0.000 HD
ENDBRANCH  20  21
BRANCH  20  26
ATOM     26  C   UNL     1       0.928  13.697  21.191  0.00  0.00    +0.000 C 
BRANCH  26  31
ATOM     27  C   UNL     1      -2.512  14.121  22.874  0.00  0.00    +0.000 A 
ATOM     28  C   UNL     1      -2.673  12.813  23.364  0.00  0.00    +0.000 A 
ATOM     29  C   UNL     1      -1.754  11.811  23.073  0.00  0.00    +0.000 A 
ATOM     30  C   UNL     1      -0.623  12.114  22.335  0.00  0.00    +0.000 A 
ATOM     31  C   UNL     1      -0.388  13.426  21.896  0.00  0.00    +0.000 A 
ATOM     32  C   UNL     1      -1.355  14.435  22.127  0.00  0.00    +0.000 A 
BRANCH  27  34
ATOM     33  C   UNL     1      -4.795  14.820  22.770  0.00  0.00    +0.000 C 
ATOM     34  O   UNL     1      -3.442  15.103  23.120  0.00  0.00    +0.000 OA
ENDBRANCH  27  34
BRANCH  32  35
ATOM     35  O   UNL     1      -1.022  15.634  21.551  0.00  0.00    +0.000 OA
ATOM     36  C   UNL     1      -1.741  16.131  20.435  0.00  0.00    +0.000 C 
ENDBRANCH  32  35
ENDBRANCH  26  31
ENDBRANCH  20  26
ENDBRANCH   1  20
TORSDOF 8
ENDMDL
MODEL 8
REMARK VINA RESULT:      -6.8      3.052      5.977
REMARK  Name = 
REMARK  11 active torsions:
REMARK  status: ('A' for Active; 'I' for Inactive)
REMARK    1  A    between atoms: C_1  and  O_2
REMARK    2  A    between atoms: O_2  and  C_3
REMARK    3  A    between atoms: C_7  and  C_8
REMARK    4  A    between atoms: C_8  and  C_9
REMARK    5  A    between atoms: C_9  and  N_10
REMARK    6  A    between atoms: C_9  and  C_14
REMARK    7  A    between atoms: C_11  and  C_12
REMARK    8  A    between atoms: N_16  and  C_17
REMARK    9  A    between atoms: C_21  and  C_23
REMARK   10  A    between atoms: C_32  and  O_33
REMARK   11  A    between atoms: O_33  and  C_34
REMARK                            x       y       z     vdW  Elec       q    Type
REMARK                         _______ _______ _______ _____ _____    ______ ____
ROOT
ATOM      1  C   UNL     1      -0.015  12.561  19.079  0.00  0.00    +0.000 C 
ATOM      2  O   UNL     1      -1.237  12.589  18.962  0.00  0.00    +0.000 OA
ATOM      3  N   UNL     1       0.711  11.388  19.030  0.00  0.00    +0.000 N 
ATOM      4  H   UNL     1       1.702  11.443  19.266  0.00  0.00    +0.000 HD
ENDROOT
BRANCH   3   5
ATOM      5  C   UNL     1       0.117  10.089  18.746  0.00  0.00    +0.000 C 
ATOM      6  C   UNL     1      -0.120   9.291  20.035  0.00  0.00    +0.000 C 
ATOM      7  C   UNL     1       1.185   8.770  20.636  0.00  0.00    +0.000 C 
ATOM      8  N   UNL     1       1.952   8.012  19.649  0.00  0.00    +0.000 N 
ATOM      9  C   UNL     1       2.233   6.666  19.916  0.00  0.00    +0.000 C 
ATOM     10  O   UNL     1       1.794   6.084  20.906  0.00  0.00    +0.000 OA
ATOM     11  C   UNL     1       2.242   8.746  18.415  0.00  0.00    +0.000 C 
ATOM     12  C   UNL     1       0.971   9.279  17.766  0.00  0.00    +0.000 C 
BRANCH   9  13
ATOM     13  C   UNL     1       3.067   5.862  18.980  0.00  0.00    +0.000 A 
ATOM     14  C   UNL     1       4.466   5.900  19.001  0.00  0.00    +0.000 A 
ATOM     15  C   UNL     1       5.202   5.195  18.055  0.00  0.00    +0.000 A 
ATOM     16  C   UNL     1       4.547   4.371  17.142  0.00  0.00    +0.000 A 
ATOM     17 CL   UNL     1       5.462   3.504  15.973  0.00  0.00    +0.000 Cl
ATOM     18  C   UNL     1       3.160   4.244  17.172  0.00  0.00    +0.000 A 
ATOM     19  C   UNL     1       2.417   4.995  18.088  0.00  0.00    +0.000 A 
ENDBRANCH   9  13
ENDBRANCH   3   5
BRANCH   1  20
ATOM     20  C   UNL     1       0.804  13.825  19.419  0.00  0.00    +0.000 C 
BRANCH  20  21
ATOM     21  N   UNL     1       0.210  15.016  18.779  0.00  0.00    +0.000 N 
ATOM     22  C   UNL     1       0.020  16.237  19.369  0.00  0.00    +0.000 C 
ATOM     23  C   UNL     1      -0.497  17.295  18.434  0.00  0.00    +0.000 C 
ATOM     24  O   UNL     1       0.328  16.477  20.533  0.00  0.00    +0.000 OA
ATOM     25  H   UNL     1       0.061  14.948  17.782  0.00  0.00    +0.000 HD
ENDBRANCH  20  21
BRANCH  20  26
ATOM     26  C   UNL     1       2.296  13.546  19.143  0.00  0.00    +0.000 C 
BRANCH  26  31
ATOM     27  C   UNL     1       5.009  16.171  19.911  0.00  0.00    +0.000 A 
ATOM     28  C   UNL     1       5.180  15.908  21.283  0.00  0.00    +0.000 A 
ATOM     29  C   UNL     1       4.377  14.989  21.950  0.00  0.00    +0.000 A 
ATOM     30  C   UNL     1       3.427  14.272  21.243  0.00  0.00    +0.000 A 
ATOM     31  C   UNL     1       3.282  14.450  19.860  0.00  0.00    +0.000 A 
ATOM     32  C   UNL     1       4.046  15.435  19.188  0.00  0.00    +0.000 A 
BRANCH  27  34
ATOM     33  C   UNL     1       7.004  16.676  18.695  0.00  0.00    +0.000 C 
ATOM     34  O   UNL     1       5.769  17.112  19.258  0.00  0.00    +0.000 OA
ENDBRANCH  27  34
BRANCH  32  35
ATOM     35  O   UNL     1       3.716  15.552  17.861  0.00  0.00    +0.000 OA
ATOM     36  C   UNL     1       3.090  16.723  17.366  0.00  0.00    +0.000 C 
ENDBRANCH  32  35
ENDBRANCH  26  31
ENDBRANCH  20  26
ENDBRANCH   1  20
TORSDOF 8
ENDMDL
MODEL 9
REMARK VINA RESULT:      -6.7      3.844      6.416
REMARK  Name = 
REMARK  11 active torsions:
REMARK  status: ('A' for Active; 'I' for Inactive)
REMARK    1  A    between atoms: C_1  and  O_2
REMARK    2  A    between atoms: O_2  and  C_3
REMARK    3  A    between atoms: C_7  and  C_8
REMARK    4  A    between atoms: C_8  and  C_9
REMARK    5  A    between atoms: C_9  and  N_10
REMARK    6  A    between atoms: C_9  and  C_14
REMARK    7  A    between atoms: C_11  and  C_12
REMARK    8  A    between atoms: N_16  and  C_17
REMARK    9  A    between atoms: C_21  and  C_23
REMARK   10  A    between atoms: C_32  and  O_33
REMARK   11  A    between atoms: O_33  and  C_34
REMARK                            x       y       z     vdW  Elec       q    Type
REMARK                         _______ _______ _______ _____ _____    ______ ____
ROOT
ATOM      1  C   UNL     1      -1.149  12.116  19.638  0.00  0.00    +0.000 C 
ATOM      2  O   UNL     1      -0.490  13.030  19.148  0.00  0.00    +0.000 OA
ATOM      3  N   UNL     1      -0.570  10.969  20.141  0.00  0.00    +0.000 N 
ATOM      4  H   UNL     1      -1.197  10.209  20.407  0.00  0.00    +0.000 HD
ENDROOT
BRANCH   3   5
ATOM      5  C   UNL     1       0.869  10.767  20.225  0.00  0.00    +0.000 C 
ATOM      6  C   UNL     1       1.543  10.985  18.865  0.00  0.00    +0.000 C 
ATOM      7  C   UNL     1       1.254   9.843  17.891  0.00  0.00    +0.000 C 
ATOM      8  N   UNL     1       1.600   8.550  18.480  0.00  0.00    +0.000 N 
ATOM      9  C   UNL     1       2.574   7.770  17.844  0.00  0.00    +0.000 C 
ATOM     10  O   UNL     1       3.198   8.164  16.861  0.00  0.00    +0.000 OA
ATOM     11  C   UNL     1       0.948   8.276  19.762  0.00  0.00    +0.000 C 
ATOM     12  C   UNL     1       1.215   9.381  20.776  0.00  0.00    +0.000 C 
BRANCH   9  13
ATOM     13  C   UNL     1       2.921   6.416  18.359  0.00  0.00    +0.000 A 
ATOM     14  C   UNL     1       4.000   6.196  19.223  0.00  0.00    +0.000 A 
ATOM     15  C   UNL     1       4.335   4.904  19.613  0.00  0.00    +0.000 A 
ATOM     16  C   UNL     1       3.536   3.833  19.219  0.00  0.00    +0.000 A 
ATOM     17 CL   UNL     1       3.958   2.237  19.703  0.00  0.00    +0.000 Cl
ATOM     18  C   UNL     1       2.400   4.045  18.441  0.00  0.00    +0.000 A 
ATOM     19  C   UNL     1       2.095   5.339  18.004  0.00  0.00    +0.000 A 
ENDBRANCH   9  13
ENDBRANCH   3   5
BRANCH   1  20
ATOM     20  C   UNL     1      -2.693  12.117  19.616  0.00  0.00    +0.000 C 
BRANCH  20  21
ATOM     21  N   UNL     1      -3.193  11.954  18.236  0.00  0.00    +0.000 N 
ATOM     22  C   UNL     1      -3.192  10.793  17.511  0.00  0.00    +0.000 C 
ATOM     23  C   UNL     1      -3.874  10.904  16.176  0.00  0.00    +0.000 C 
ATOM     24  O   UNL     1      -2.756   9.730  17.944  0.00  0.00    +0.000 OA
ATOM     25  H   UNL     1      -3.697  12.743  17.858  0.00  0.00    +0.000 HD
ENDBRANCH  20  21
BRANCH  20  26
ATOM     26  C   UNL     1      -3.204  13.337  20.412  0.00  0.00    +0.000 C 
BRANCH  26  31
ATOM     27  C   UNL     1      -5.675  13.025  23.352  0.00  0.00    +0.000 A 
ATOM     28  C   UNL     1      -4.775  12.594  24.343  0.00  0.00    +0.000 A 
ATOM     29  C   UNL     1      -3.444  12.319  24.045  0.00  0.00    +0.000 A 
ATOM     30  C   UNL     1      -2.975  12.528  22.759  0.00  0.00    +0.000 A 
ATOM     31  C   UNL     1      -3.824  13.032  21.763  0.00  0.00    +0.000 A 
ATOM     32  C   UNL     1      -5.196  13.245  22.042  0.00  0.00    +0.000 A 
BRANCH  27  34
ATOM     33  C   UNL     1      -7.915  12.193  23.361  0.00  0.00    +0.000 C 
ATOM     34  O   UNL     1      -7.001  13.253  23.633  0.00  0.00    +0.000 OA
ENDBRANCH  27  34
BRANCH  32  35
ATOM     35  O   UNL     1      -5.908  13.644  20.939  0.00  0.00    +0.000 OA
ATOM     36  C   UNL     1      -6.388  14.973  20.824  0.00  0.00    +0.000 C 
ENDBRANCH  32  35
ENDBRANCH  26  31
ENDBRANCH  20  26
ENDBRANCH   1  20
TORSDOF 8
ENDMDL
