MODEL 1
REMARK VINA RESULT:      -6.4      0.000      0.000
REMARK  Name = 
REMARK  7 active torsions:
REMARK  status: ('A' for Active; 'I' for Inactive)
REMARK    1  A    between atoms: C_2  and  C_18
REMARK    2  A    between atoms: N_3  and  CA_4
REMARK    3  A    between atoms: CA_11  and  C_12
REMARK    4  A    between atoms: C_12  and  OXT_14
REMARK    5  A    between atoms: C_18  and  S_19
REMARK    6  A    between atoms: C_18  and  C_20
REMARK    7  A    between atoms: C_20  and  C_21
REMARK                            x       y       z     vdW  Elec       q    Type
REMARK                         _______ _______ _______ _____ _____    ______ ____
ROOT
ATOM      1  CA  UNL     1      -1.493  12.420  19.781  0.00  0.00    +0.000 C 
ATOM      2  C   UNL     1      -1.201  12.391  18.276  0.00  0.00    +0.000 C 
ATOM      3  C   UNL     1      -1.532  11.055  17.597  0.00  0.00    +0.000 C 
ATOM      4  C   UNL     1      -2.896  10.482  17.976  0.00  0.00    +0.000 C 
ATOM      5  C   UNL     1      -3.925  11.595  18.048  0.00  0.00    +0.000 C 
ATOM      6  C   UNL     1      -5.353  11.123  17.788  0.00  0.00    +0.000 C 
ATOM      7  C   UNL     1      -6.158  12.292  18.339  0.00  0.00    +0.000 C 
ATOM      8  CA  UNL     1      -5.412  12.627  19.641  0.00  0.00    +0.000 C 
ATOM      9  N   UNL     1      -4.010  12.255  19.355  0.00  0.00    +0.000 N 
ATOM     10  C   UNL     1      -2.976  12.732  20.128  0.00  0.00    +0.000 C 
ATOM     11  O   UNL     1      -3.256  13.282  21.208  0.00  0.00    +0.000 OA
ENDROOT
BRANCH   1  14
ATOM     12  O   UNL     1       0.933  12.218  21.190  0.00  0.00    +0.000 OA
ATOM     13  C   UNL     1       0.197  11.229  21.156  0.00  0.00    +0.000 C 
ATOM     14  N   UNL     1      -1.013  11.232  20.487  0.00  0.00    +0.000 N 
ATOM     15  H   UNL     1      -1.660  10.465  20.639  0.00  0.00    +0.000 HD
BRANCH  13  16
ATOM     16  C   UNL     1       0.631   9.875  21.723  0.00  0.00    +0.000 C 
BRANCH  16  17
ATOM     17  S   UNL     1      -0.171   9.704  23.370  0.00  0.00    +0.000 S 
ATOM     18  H   UNL     1       0.974   9.647  24.074  0.00  0.00    +0.000 HD
ENDBRANCH  16  17
BRANCH  16  19
ATOM     19  C   UNL     1       0.191   8.711  20.821  0.00  0.00    +0.000 C 
BRANCH  19  20
ATOM     20  C   UNL     1       1.281   8.359  19.833  0.00  0.00    +0.000 A 
ATOM     21  C   UNL     1       1.464   9.123  18.675  0.00  0.00    +0.000 A 
ATOM     22  C   UNL     1       2.380   8.719  17.703  0.00  0.00    +0.000 A 
ATOM     23  C   UNL     1       3.123   7.553  17.884  0.00  0.00    +0.000 A 
ATOM     24  C   UNL     1       2.972   6.804  19.047  0.00  0.00    +0.000 A 
ATOM     25  C   UNL     1       2.061   7.209  20.022  0.00  0.00    +0.000 A 
ENDBRANCH  19  20
ENDBRANCH  16  19
ENDBRANCH  13  16
ENDBRANCH   1  14
BRANCH   8  26
ATOM     26  C   UNL     1      -6.018  11.884  20.846  0.00  0.00    +0.000 C 
ATOM     27  O   UNL     1      -6.757  10.911  20.768  0.00  0.00    +0.000 OA
BRANCH  26  28
ATOM     28  OXT UNL     1      -5.713  12.447  22.041  0.00  0.00    +0.000 OA
ATOM     29  HXT UNL     1      -4.766  12.304  22.292  0.00  0.00    +0.000 HD
ENDBRANCH  26  28
ENDBRANCH   8  26
TORSDOF 7
ENDMDL
MODEL 2
REMARK VINA RESULT:      -6.3      8.162     10.767
REMARK  Name = 
REMARK  7 active torsions:
REMARK  status: ('A' for Active; 'I' for Inactive)
REMARK    1  A    between atoms: C_2  and  C_18
REMARK    2  A    between atoms: N_3  and  CA_4
REMARK    3  A    between atoms: CA_11  and  C_12
REMARK    4  A    between atoms: C_12  and  OXT_14
REMARK    5  A    between atoms: C_18  and  S_19
REMARK    6  A    between atoms: C_18  and  C_20
REMARK    7  A    between atoms: C_20  and  C_21
REMARK                            x       y       z     vdW  Elec       q    Type
REMARK                         _______ _______ _______ _____ _____    ______ ____
ROOT
ATOM      1  CA  UNL     1       5.420   3.830  18.342  0.00  0.00    +0.000 C 
ATOM      2  C   UNL     1       5.853   5.028  19.195  0.00  0.00    +0.000 C 
ATOM      3  C   UNL     1       4.998   6.286  18.992  0.00  0.00    +0.000 C 
ATOM      4  C   UNL     1       3.493   6.028  19.002  0.00  0.00    +0.000 C 
ATOM      5  C   UNL     1       3.146   5.017  20.079  0.00  0.00    +0.000 C 
ATOM      6  C   UNL     1       1.719   5.149  20.603  0.00  0.00    +0.000 C 
ATOM      7  C   UNL     1       1.530   3.806  21.295  0.00  0.00    +0.000 C 
ATOM      8  CA  UNL     1       2.167   2.824  20.299  0.00  0.00    +0.000 C 
ATOM      9  N   UNL     1       3.228   3.619  19.643  0.00  0.00    +0.000 N 
ATOM     10  C   UNL     1       4.253   3.008  18.956  0.00  0.00    +0.000 C 
ATOM     11  O   UNL     1       4.142   1.797  18.692  0.00  0.00    +0.000 OA
ENDROOT
BRANCH   1  14
ATOM     12  O   UNL     1       7.372   4.284  16.367  0.00  0.00    +0.000 OA
ATOM     13  C   UNL     1       6.186   4.383  16.045  0.00  0.00    +0.000 C 
ATOM     14  N   UNL     1       5.156   4.179  16.946  0.00  0.00    +0.000 N 
ATOM     15  H   UNL     1       4.207   4.091  16.596  0.00  0.00    +0.000 HD
BRANCH  13  16
ATOM     16  C   UNL     1       5.758   4.882  14.662  0.00  0.00    +0.000 C 
BRANCH  16  17
ATOM     17  S   UNL     1       5.286   6.650  14.856  0.00  0.00    +0.000 S 
ATOM     18  H   UNL     1       6.534   7.101  15.080  0.00  0.00    +0.000 HD
ENDBRANCH  16  17
BRANCH  16  19
ATOM     19  C   UNL     1       6.897   4.770  13.637  0.00  0.00    +0.000 C 
BRANCH  19  20
ATOM     20  C   UNL     1       6.579   3.719  12.597  0.00  0.00    +0.000 A 
ATOM     21  C   UNL     1       5.251   3.363  12.330  0.00  0.00    +0.000 A 
ATOM     22  C   UNL     1       4.968   2.304  11.468  0.00  0.00    +0.000 A 
ATOM     23  C   UNL     1       6.006   1.596  10.863  0.00  0.00    +0.000 A 
ATOM     24  C   UNL     1       7.328   1.963  11.096  0.00  0.00    +0.000 A 
ATOM     25  C   UNL     1       7.614   3.026  11.953  0.00  0.00    +0.000 A 
ENDBRANCH  19  20
ENDBRANCH  16  19
ENDBRANCH  13  16
ENDBRANCH   1  14
BRANCH   8  26
ATOM     26  C   UNL     1       1.124   2.255  19.321  0.00  0.00    +0.000 C 
ATOM     27  O   UNL     1       0.005   2.720  19.143  0.00  0.00    +0.000 OA
BRANCH  26  28
ATOM     28  OXT UNL     1       1.527   1.122  18.694  0.00  0.00    +0.000 OA
ATOM     29  HXT UNL     1       1.485   0.330  19.286  0.00  0.00    +0.000 HD
ENDBRANCH  26  28
ENDBRANCH   8  26
TORSDOF 7
ENDMDL
MODEL 3
REMARK VINA RESULT:      -6.3      5.155      9.867
REMARK  Name = 
REMARK  7 active torsions:
REMARK  status: ('A' for Active; 'I' for Inactive)
REMARK    1  A    between atoms: C_2  and  C_18
REMARK    2  A    between atoms: N_3  and  CA_4
REMARK    3  A    between atoms: CA_11  and  C_12
REMARK    4  A    between atoms: C_12  and  OXT_14
REMARK    5  A    between atoms: C_18  and  S_19
REMARK    6  A    between atoms: C_18  and  C_20
REMARK    7  A    between atoms: C_20  and  C_21
REMARK                            x       y       z     vdW  Elec       q    Type
REMARK                         _______ _______ _______ _____ _____    ______ ____
ROOT
ATOM      1  CA  UNL     1       3.796   4.863  19.786  0.00  0.00    +0.000 C 
ATOM      2  C   UNL     1       2.855   3.904  19.048  0.00  0.00    +0.000 C 
ATOM      3  C   UNL     1       2.235   4.488  17.772  0.00  0.00    +0.000 C 
ATOM      4  C   UNL     1       3.233   5.201  16.862  0.00  0.00    +0.000 C 
ATOM      5  C   UNL     1       4.535   4.424  16.809  0.00  0.00    +0.000 C 
ATOM      6  C   UNL     1       5.328   4.647  15.524  0.00  0.00    +0.000 C 
ATOM      7  C   UNL     1       6.703   4.133  15.928  0.00  0.00    +0.000 C 
ATOM      8  CA  UNL     1       6.870   4.704  17.345  0.00  0.00    +0.000 C 
ATOM      9  N   UNL     1       5.488   4.770  17.869  0.00  0.00    +0.000 N 
ATOM     10  C   UNL     1       5.244   4.884  19.219  0.00  0.00    +0.000 C 
ATOM     11  O   UNL     1       6.197   5.172  19.966  0.00  0.00    +0.000 OA
ENDROOT
BRANCH   1  14
ATOM     12  O   UNL     1       1.434   5.548  21.151  0.00  0.00    +0.000 OA
ATOM     13  C   UNL     1       2.081   6.453  20.619  0.00  0.00    +0.000 C 
ATOM     14  N   UNL     1       3.254   6.214  19.926  0.00  0.00    +0.000 N 
ATOM     15  H   UNL     1       3.840   7.001  19.666  0.00  0.00    +0.000 HD
BRANCH  13  16
ATOM     16  C   UNL     1       1.563   7.893  20.556  0.00  0.00    +0.000 C 
BRANCH  16  17
ATOM     17  S   UNL     1       1.767   8.457  18.816  0.00  0.00    +0.000 S 
ATOM     18  H   UNL     1       2.263   7.296  18.354  0.00  0.00    +0.000 HD
ENDBRANCH  16  17
BRANCH  16  19
ATOM     19  C   UNL     1       0.081   7.984  20.950  0.00  0.00    +0.000 C 
BRANCH  19  20
ATOM     20  C   UNL     1      -0.252   9.367  21.464  0.00  0.00    +0.000 A 
ATOM     21  C   UNL     1      -0.593   9.561  22.808  0.00  0.00    +0.000 A 
ATOM     22  C   UNL     1      -1.026  10.812  23.250  0.00  0.00    +0.000 A 
ATOM     23  C   UNL     1      -1.117  11.877  22.355  0.00  0.00    +0.000 A 
ATOM     24  C   UNL     1      -0.748  11.703  21.024  0.00  0.00    +0.000 A 
ATOM     25  C   UNL     1      -0.310  10.455  20.582  0.00  0.00    +0.000 A 
ENDBRANCH  19  20
ENDBRANCH  16  19
ENDBRANCH  13  16
ENDBRANCH   1  14
BRANCH   8  26
ATOM     26  C   UNL     1       7.591   6.064  17.325  0.00  0.00    +0.000 C 
ATOM     27  O   UNL     1       7.772   6.745  16.323  0.00  0.00    +0.000 OA
BRANCH  26  28
ATOM     28  OXT UNL     1       8.085   6.436  18.531  0.00  0.00    +0.000 OA
ATOM     29  HXT UNL     1       7.712   5.897  19.273  0.00  0.00    +0.000 HD
ENDBRANCH  26  28
ENDBRANCH   8  26
TORSDOF 7
ENDMDL
MODEL 4
REMARK VINA RESULT:      -6.1      2.776      3.873
REMARK  Name = 
REMARK  7 active torsions:
REMARK  status: ('A' for Active; 'I' for Inactive)
REMARK    1  A    between atoms: C_2  and  C_18
REMARK    2  A    between atoms: N_3  and  CA_4
REMARK    3  A    between atoms: CA_11  and  C_12
REMARK    4  A    between atoms: C_12  and  OXT_14
REMARK    5  A    between atoms: C_18  and  S_19
REMARK    6  A    between atoms: C_18  and  C_20
REMARK    7  A    between atoms: C_20  and  C_21
REMARK                            x       y       z     vdW  Elec       q    Type
REMARK                         _______ _______ _______ _____ _____    ______ ____
ROOT
ATOM      1  CA  UNL     1      -2.687  13.234  23.309  0.00  0.00    +0.000 C 
ATOM      2  C   UNL     1      -2.443  14.743  23.183  0.00  0.00    +0.000 C 
ATOM      3  C   UNL     1      -2.923  15.349  21.859  0.00  0.00    +0.000 C 
ATOM      4  C   UNL     1      -4.326  14.911  21.442  0.00  0.00    +0.000 C 
ATOM      5  C   UNL     1      -5.237  14.867  22.654  0.00  0.00    +0.000 C 
ATOM      6  C   UNL     1      -6.712  15.070  22.317  0.00  0.00    +0.000 C 
ATOM      7  C   UNL     1      -7.382  14.555  23.583  0.00  0.00    +0.000 C 
ATOM      8  CA  UNL     1      -6.570  13.290  23.900  0.00  0.00    +0.000 C 
ATOM      9  N   UNL     1      -5.220  13.591  23.377  0.00  0.00    +0.000 N 
ATOM     10  C   UNL     1      -4.122  12.866  23.783  0.00  0.00    +0.000 C 
ATOM     11  O   UNL     1      -4.315  11.807  24.406  0.00  0.00    +0.000 OA
ENDROOT
BRANCH   1  14
ATOM     12  O   UNL     1      -0.570  11.390  23.132  0.00  0.00    +0.000 OA
ATOM     13  C   UNL     1      -1.248  11.595  22.123  0.00  0.00    +0.000 C 
ATOM     14  N   UNL     1      -2.308  12.484  22.111  0.00  0.00    +0.000 N 
ATOM     15  H   UNL     1      -2.942  12.482  21.320  0.00  0.00    +0.000 HD
BRANCH  13  16
ATOM     16  C   UNL     1      -0.880  10.996  20.763  0.00  0.00    +0.000 C 
BRANCH  16  17
ATOM     17  S   UNL     1      -1.802  11.954  19.490  0.00  0.00    +0.000 S 
ATOM     18  H   UNL     1      -1.445  11.179  18.451  0.00  0.00    +0.000 HD
ENDBRANCH  16  17
BRANCH  16  19
ATOM     19  C   UNL     1       0.627  11.097  20.482  0.00  0.00    +0.000 C 
BRANCH  19  20
ATOM     20  C   UNL     1       1.127   9.852  19.786  0.00  0.00    +0.000 A 
ATOM     21  C   UNL     1       1.363   8.678  20.512  0.00  0.00    +0.000 A 
ATOM     22  C   UNL     1       1.948   7.573  19.892  0.00  0.00    +0.000 A 
ATOM     23  C   UNL     1       2.295   7.630  18.543  0.00  0.00    +0.000 A 
ATOM     24  C   UNL     1       2.034   8.781  17.804  0.00  0.00    +0.000 A 
ATOM     25  C   UNL     1       1.444   9.884  18.420  0.00  0.00    +0.000 A 
ENDBRANCH  19  20
ENDBRANCH  16  19
ENDBRANCH  13  16
ENDBRANCH   1  14
BRANCH   8  26
ATOM     26  C   UNL     1      -7.211  12.036  23.276  0.00  0.00    +0.000 C 
ATOM     27  O   UNL     1      -7.908  11.232  23.882  0.00  0.00    +0.000 OA
BRANCH  26  28
ATOM     28  OXT UNL     1      -6.883  11.849  21.974  0.00  0.00    +0.000 OA
ATOM     29  HXT UNL     1      -7.170  12.604  21.401  0.00  0.00    +0.000 HD
ENDBRANCH  26  28
ENDBRANCH   8  26
TORSDOF 7
ENDMDL
MODEL 5
REMARK VINA RESULT:      -6.1      2.924      4.832
REMARK  Name = 
REMARK  7 active torsions:
REMARK  status: ('A' for Active; 'I' for Inactive)
REMARK    1  A    between atoms: C_2  and  C_18
REMARK    2  A    between atoms: N_3  and  CA_4
REMARK    3  A    between atoms: CA_11  and  C_12
REMARK    4  A    between atoms: C_12  and  OXT_14
REMARK    5  A    between atoms: C_18  and  S_19
REMARK    6  A    between atoms: C_18  and  C_20
REMARK    7  A    between atoms: C_20  and  C_21
REMARK                            x       y       z     vdW  Elec       q    Type
REMARK                         _______ _______ _______ _____ _____    ______ ____
ROOT
ATOM      1  CA  UNL     1      -2.204  13.535  22.793  0.00  0.00    +0.000 C 
ATOM      2  C   UNL     1      -1.989  15.048  22.923  0.00  0.00    +0.000 C 
ATOM      3  C   UNL     1      -2.627  15.873  21.798  0.00  0.00    +0.000 C 
ATOM      4  C   UNL     1      -4.065  15.477  21.470  0.00  0.00    +0.000 C 
ATOM      5  C   UNL     1      -4.828  15.183  22.749  0.00  0.00    +0.000 C 
ATOM      6  C   UNL     1      -6.334  15.400  22.625  0.00  0.00    +0.000 C 
ATOM      7  C   UNL     1      -6.845  14.640  23.841  0.00  0.00    +0.000 C 
ATOM      8  CA  UNL     1      -5.991  13.363  23.822  0.00  0.00    +0.000 C 
ATOM      9  N   UNL     1      -4.714  13.797  23.214  0.00  0.00    +0.000 N 
ATOM     10  C   UNL     1      -3.570  13.043  23.350  0.00  0.00    +0.000 C 
ATOM     11  O   UNL     1      -3.680  11.882  23.782  0.00  0.00    +0.000 OA
ENDROOT
BRANCH   1  14
ATOM     12  O   UNL     1      -0.042  11.914  22.012  0.00  0.00    +0.000 OA
ATOM     13  C   UNL     1      -0.867  12.235  21.153  0.00  0.00    +0.000 C 
ATOM     14  N   UNL     1      -1.962  13.030  21.441  0.00  0.00    +0.000 N 
ATOM     15  H   UNL     1      -2.702  13.115  20.752  0.00  0.00    +0.000 HD
BRANCH  13  16
ATOM     16  C   UNL     1      -0.667  11.905  19.672  0.00  0.00    +0.000 C 
BRANCH  16  17
ATOM     17  S   UNL     1       1.141  12.005  19.342  0.00  0.00    +0.000 S 
ATOM     18  H   UNL     1       1.523  11.483  20.521  0.00  0.00    +0.000 HD
ENDBRANCH  16  17
BRANCH  16  19
ATOM     19  C   UNL     1      -1.169  10.494  19.328  0.00  0.00    +0.000 C 
BRANCH  19  20
ATOM     20  C   UNL     1      -2.134  10.539  18.164  0.00  0.00    +0.000 A 
ATOM     21  C   UNL     1      -1.847   9.854  16.977  0.00  0.00    +0.000 A 
ATOM     22  C   UNL     1      -2.673  10.003  15.863  0.00  0.00    +0.000 A 
ATOM     23  C   UNL     1      -3.792  10.833  15.926  0.00  0.00    +0.000 A 
ATOM     24  C   UNL     1      -4.104  11.492  17.112  0.00  0.00    +0.000 A 
ATOM     25  C   UNL     1      -3.284  11.339  18.229  0.00  0.00    +0.000 A 
ENDBRANCH  19  20
ENDBRANCH  16  19
ENDBRANCH  13  16
ENDBRANCH   1  14
BRANCH   8  26
ATOM     26  C   UNL     1      -6.690  12.227  23.052  0.00  0.00    +0.000 C 
ATOM     27  O   UNL     1      -6.556  12.008  21.855  0.00  0.00    +0.000 OA
BRANCH  26  28
ATOM     28  OXT UNL     1      -7.546  11.502  23.813  0.00  0.00    +0.000 OA
ATOM     29  HXT UNL     1      -7.623  11.856  24.734  0.00  0.00    +0.000 HD
ENDBRANCH  26  28
ENDBRANCH   8  26
TORSDOF 7
ENDMDL
MODEL 6
REMARK VINA RESULT:      -6.1      4.864      9.695
REMARK  Name = 
REMARK  7 active torsions:
REMARK  status: ('A' for Active; 'I' for Inactive)
REMARK    1  A    between atoms: C_2  and  C_18
REMARK    2  A    between atoms: N_3  and  CA_4
REMARK    3  A    between atoms: CA_11  and  C_12
REMARK    4  A    between atoms: C_12  and  OXT_14
REMARK    5  A    between atoms: C_18  and  S_19
REMARK    6  A    between atoms: C_18  and  C_20
REMARK    7  A    between atoms: C_20  and  C_21
REMARK                            x       y       z     vdW  Elec       q    Type
REMARK                         _______ _______ _______ _____ _____    ______ ____
ROOT
ATOM      1  CA  UNL     1       3.787   4.954  19.696  0.00  0.00    +0.000 C 
ATOM      2  C   UNL     1       3.046   3.857  18.922  0.00  0.00    +0.000 C 
ATOM      3  C   UNL     1       2.520   4.301  17.551  0.00  0.00    +0.000 C 
ATOM      4  C   UNL     1       3.536   5.074  16.712  0.00  0.00    +0.000 C 
ATOM      5  C   UNL     1       4.911   4.448  16.853  0.00  0.00    +0.000 C 
ATOM      6  C   UNL     1       5.819   4.693  15.651  0.00  0.00    +0.000 C 
ATOM      7  C   UNL     1       7.185   4.360  16.237  0.00  0.00    +0.000 C 
ATOM      8  CA  UNL     1       7.123   5.019  17.624  0.00  0.00    +0.000 C 
ATOM      9  N   UNL     1       5.691   4.955  17.987  0.00  0.00    +0.000 N 
ATOM     10  C   UNL     1       5.280   5.110  19.292  0.00  0.00    +0.000 C 
ATOM     11  O   UNL     1       6.103   5.542  20.119  0.00  0.00    +0.000 OA
ENDROOT
BRANCH   1  14
ATOM     12  O   UNL     1       1.397   5.533  21.062  0.00  0.00    +0.000 OA
ATOM     13  C   UNL     1       1.917   6.430  20.394  0.00  0.00    +0.000 C 
ATOM     14  N   UNL     1       3.090   6.241  19.687  0.00  0.00    +0.000 N 
ATOM     15  H   UNL     1       3.571   7.049  19.307  0.00  0.00    +0.000 HD
BRANCH  13  16
ATOM     16  C   UNL     1       1.229   7.780  20.173  0.00  0.00    +0.000 C 
BRANCH  16  17
ATOM     17  S   UNL     1       1.411   8.735  21.735  0.00  0.00    +0.000 S 
ATOM     18  H   UNL     1       1.656   9.918  21.144  0.00  0.00    +0.000 HD
ENDBRANCH  16  17
BRANCH  16  19
ATOM     19  C   UNL     1       1.871   8.566  19.019  0.00  0.00    +0.000 C 
BRANCH  19  20
ATOM     20  C   UNL     1       1.115   9.850  18.761  0.00  0.00    +0.000 A 
ATOM     21  C   UNL     1       1.791  11.076  18.721  0.00  0.00    +0.000 A 
ATOM     22  C   UNL     1       1.076  12.269  18.614  0.00  0.00    +0.000 A 
ATOM     23  C   UNL     1      -0.316  12.247  18.542  0.00  0.00    +0.000 A 
ATOM     24  C   UNL     1      -0.995  11.032  18.547  0.00  0.00    +0.000 A 
ATOM     25  C   UNL     1      -0.282   9.838  18.648  0.00  0.00    +0.000 A 
ENDBRANCH  19  20
ENDBRANCH  16  19
ENDBRANCH  13  16
ENDBRANCH   1  14
BRANCH   8  26
ATOM     26  C   UNL     1       7.693   6.449  17.595  0.00  0.00    +0.000 C 
ATOM     27  O   UNL     1       7.728   7.168  16.605  0.00  0.00    +0.000 OA
BRANCH  26  28
ATOM     28  OXT UNL     1       8.229   6.844  18.776  0.00  0.00    +0.000 OA
ATOM     29  HXT UNL     1       7.844   7.698  19.097  0.00  0.00    +0.000 HD
ENDBRANCH  26  28
ENDBRANCH   8  26
TORSDOF 7
ENDMDL
MODEL 7
REMARK VINA RESULT:      -6.0      2.652      3.223
REMARK  Name = 
REMARK  7 active torsions:
REMARK  status: ('A' for Active; 'I' for Inactive)
REMARK    1  A    between atoms: C_2  and  C_18
REMARK    2  A    between atoms: N_3  and  CA_4
REMARK    3  A    between atoms: CA_11  and  C_12
REMARK    4  A    between atoms: C_12  and  OXT_14
REMARK    5  A    between atoms: C_18  and  S_19
REMARK    6  A    between atoms: C_18  and  C_20
REMARK    7  A    between atoms: C_20  and  C_21
REMARK                            x       y       z     vdW  Elec       q    Type
REMARK                         _______ _______ _______ _____ _____    ______ ____
ROOT
ATOM      1  CA  UNL     1      -1.420  12.407  23.035  0.00  0.00    +0.000 C 
ATOM      2  C   UNL     1      -0.718  13.738  22.739  0.00  0.00    +0.000 C 
ATOM      3  C   UNL     1      -0.798  14.178  21.272  0.00  0.00    +0.000 C 
ATOM      4  C   UNL     1      -2.191  14.062  20.659  0.00  0.00    +0.000 C 
ATOM      5  C   UNL     1      -3.239  14.506  21.663  0.00  0.00    +0.000 C 
ATOM      6  C   UNL     1      -4.520  15.029  21.018  0.00  0.00    +0.000 C 
ATOM      7  C   UNL     1      -5.489  14.974  22.190  0.00  0.00    +0.000 C 
ATOM      8  CA  UNL     1      -5.149  13.624  22.842  0.00  0.00    +0.000 C 
ATOM      9  N   UNL     1      -3.710  13.441  22.554  0.00  0.00    +0.000 N 
ATOM     10  C   UNL     1      -2.951  12.541  23.268  0.00  0.00    +0.000 C 
ATOM     11  O   UNL     1      -3.541  11.717  23.990  0.00  0.00    +0.000 OA
ENDROOT
BRANCH   1  14
ATOM     12  O   UNL     1       0.008  10.040  23.558  0.00  0.00    +0.000 OA
ATOM     13  C   UNL     1      -0.404  10.228  22.411  0.00  0.00    +0.000 C 
ATOM     14  N   UNL     1      -1.114  11.361  22.058  0.00  0.00    +0.000 N 
ATOM     15  H   UNL     1      -1.585  11.386  21.159  0.00  0.00    +0.000 HD
BRANCH  13  16
ATOM     16  C   UNL     1      -0.037   9.296  21.254  0.00  0.00    +0.000 C 
BRANCH  16  17
ATOM     17  S   UNL     1      -0.342  10.232  19.698  0.00  0.00    +0.000 S 
ATOM     18  H   UNL     1      -1.526  10.746  20.078  0.00  0.00    +0.000 HD
ENDBRANCH  16  17
BRANCH  16  19
ATOM     19  C   UNL     1       1.438   8.870  21.309  0.00  0.00    +0.000 C 
BRANCH  19  20
ATOM     20  C   UNL     1       1.689   7.692  20.395  0.00  0.00    +0.000 A 
ATOM     21  C   UNL     1       1.554   6.382  20.870  0.00  0.00    +0.000 A 
ATOM     22  C   UNL     1       1.913   5.302  20.064  0.00  0.00    +0.000 A 
ATOM     23  C   UNL     1       2.405   5.520  18.778  0.00  0.00    +0.000 A 
ATOM     24  C   UNL     1       2.513   6.817  18.284  0.00  0.00    +0.000 A 
ATOM     25  C   UNL     1       2.149   7.899  19.086  0.00  0.00    +0.000 A 
ENDBRANCH  19  20
ENDBRANCH  16  19
ENDBRANCH  13  16
ENDBRANCH   1  14
BRANCH   8  26
ATOM     26  C   UNL     1      -6.040  12.493  22.295  0.00  0.00    +0.000 C 
ATOM     27  O   UNL     1      -5.882  11.938  21.216  0.00  0.00    +0.000 OA
BRANCH  26  28
ATOM     28  OXT UNL     1      -7.088  12.190  23.100  0.00  0.00    +0.000 OA
ATOM     29  HXT UNL     1      -6.889  11.435  23.709  0.00  0.00    +0.000 HD
ENDBRANCH  26  28
ENDBRANCH   8  26
TORSDOF 7
ENDMDL
MODEL 8
REMARK VINA RESULT:      -6.0      2.997      4.963
REMARK  Name = 
REMARK  7 active torsions:
REMARK  status: ('A' for Active; 'I' for Inactive)
REMARK    1  A    between atoms: C_2  and  C_18
REMARK    2  A    between atoms: N_3  and  CA_4
REMARK    3  A    between atoms: CA_11  and  C_12
REMARK    4  A    between atoms: C_12  and  OXT_14
REMARK    5  A    between atoms: C_18  and  S_19
REMARK    6  A    between atoms: C_18  and  C_20
REMARK    7  A    between atoms: C_20  and  C_21
REMARK                            x       y       z     vdW  Elec       q    Type
REMARK                         _______ _______ _______ _____ _____    ______ ____
ROOT
ATOM      1  CA  UNL     1      -0.266  13.735  21.780  0.00  0.00    +0.000 C 
ATOM      2  C   UNL     1      -0.089  15.218  21.431  0.00  0.00    +0.000 C 
ATOM      3  C   UNL     1      -1.158  15.773  20.481  0.00  0.00    +0.000 C 
ATOM      4  C   UNL     1      -2.588  15.390  20.856  0.00  0.00    +0.000 C 
ATOM      5  C   UNL     1      -2.768  15.468  22.361  0.00  0.00    +0.000 C 
ATOM      6  C   UNL     1      -4.208  15.733  22.790  0.00  0.00    +0.000 C 
ATOM      7  C   UNL     1      -4.162  15.331  24.258  0.00  0.00    +0.000 C 
ATOM      8  CA  UNL     1      -3.325  14.042  24.224  0.00  0.00    +0.000 C 
ATOM      9  N   UNL     1      -2.414  14.237  23.075  0.00  0.00    +0.000 N 
ATOM     10  C   UNL     1      -1.275  13.476  22.934  0.00  0.00    +0.000 C 
ATOM     11  O   UNL     1      -1.150  12.467  23.650  0.00  0.00    +0.000 OA
ENDROOT
BRANCH   1  14
ATOM     12  O   UNL     1       1.228  11.497  20.962  0.00  0.00    +0.000 OA
ATOM     13  C   UNL     1       0.241  11.812  20.293  0.00  0.00    +0.000 C 
ATOM     14  N   UNL     1      -0.554  12.897  20.615  0.00  0.00    +0.000 N 
ATOM     15  H   UNL     1      -1.448  13.006  20.149  0.00  0.00    +0.000 HD
BRANCH  13  16
ATOM     16  C   UNL     1      -0.098  11.120  18.970  0.00  0.00    +0.000 C 
BRANCH  16  17
ATOM     17  S   UNL     1       1.377  10.128  18.494  0.00  0.00    +0.000 S 
ATOM     18  H   UNL     1       0.686   9.079  18.011  0.00  0.00    +0.000 HD
ENDBRANCH  16  17
BRANCH  16  19
ATOM     19  C   UNL     1      -1.313  10.191  19.107  0.00  0.00    +0.000 C 
BRANCH  19  20
ATOM     20  C   UNL     1      -2.274  10.393  17.957  0.00  0.00    +0.000 A 
ATOM     21  C   UNL     1      -1.996   9.851  16.696  0.00  0.00    +0.000 A 
ATOM     22  C   UNL     1      -2.815  10.149  15.607  0.00  0.00    +0.000 A 
ATOM     23  C   UNL     1      -3.919  10.986  15.769  0.00  0.00    +0.000 A 
ATOM     24  C   UNL     1      -4.222  11.504  17.025  0.00  0.00    +0.000 A 
ATOM     25  C   UNL     1      -3.408  11.202  18.116  0.00  0.00    +0.000 A 
ENDBRANCH  19  20
ENDBRANCH  16  19
ENDBRANCH  13  16
ENDBRANCH   1  14
BRANCH   8  26
ATOM     26  C   UNL     1      -4.217  12.793  24.104  0.00  0.00    +0.000 C 
ATOM     27  O   UNL     1      -4.593  12.302  23.048  0.00  0.00    +0.000 OA
BRANCH  26  28
ATOM     28  OXT UNL     1      -4.621  12.297  25.299  0.00  0.00    +0.000 OA
ATOM     29  HXT UNL     1      -4.484  11.318  25.366  0.00  0.00    +0.000 HD
ENDBRANCH  26  28
ENDBRANCH   8  26
TORSDOF 7
ENDMDL
MODEL 9
REMARK VINA RESULT:      -6.0      4.861      8.891
REMARK  Name = 
REMARK  7 active torsions:
REMARK  status: ('A' for Active; 'I' for Inactive)
REMARK    1  A    between atoms: C_2  and  C_18
REMARK    2  A    between atoms: N_3  and  CA_4
REMARK    3  A    between atoms: CA_11  and  C_12
REMARK    4  A    between atoms: C_12  and  OXT_14
REMARK    5  A    between atoms: C_18  and  S_19
REMARK    6  A    between atoms: C_18  and  C_20
REMARK    7  A    between atoms: C_20  and  C_21
REMARK                            x       y       z     vdW  Elec       q    Type
REMARK                         _______ _______ _______ _____ _____    ______ ____
ROOT
ATOM      1  CA  UNL     1       2.805   6.163  17.393  0.00  0.00    +0.000 C 
ATOM      2  C   UNL     1       4.327   6.257  17.241  0.00  0.00    +0.000 C 
ATOM      3  C   UNL     1       5.089   6.320  18.571  0.00  0.00    +0.000 C 
ATOM      4  C   UNL     1       4.630   5.292  19.604  0.00  0.00    +0.000 C 
ATOM      5  C   UNL     1       4.355   3.963  18.927  0.00  0.00    +0.000 C 
ATOM      6  C   UNL     1       4.514   2.761  19.854  0.00  0.00    +0.000 C 
ATOM      7  C   UNL     1       3.781   1.681  19.072  0.00  0.00    +0.000 C 
ATOM      8  CA  UNL     1       2.535   2.423  18.564  0.00  0.00    +0.000 C 
ATOM      9  N   UNL     1       2.992   3.821  18.407  0.00  0.00    +0.000 N 
ATOM     10  C   UNL     1       2.284   4.718  17.637  0.00  0.00    +0.000 C 
ATOM     11  O   UNL     1       1.136   4.404  17.276  0.00  0.00    +0.000 OA
ENDROOT
BRANCH   1  14
ATOM     12  O   UNL     1       2.284   8.889  16.935  0.00  0.00    +0.000 OA
ATOM     13  C   UNL     1       2.037   8.430  18.053  0.00  0.00    +0.000 C 
ATOM     14  N   UNL     1       2.261   7.103  18.373  0.00  0.00    +0.000 N 
ATOM     15  H   UNL     1       1.875   6.734  19.236  0.00  0.00    +0.000 HD
BRANCH  13  16
ATOM     16  C   UNL     1       1.604   9.322  19.219  0.00  0.00    +0.000 C 
BRANCH  16  17
ATOM     17  S   UNL     1       1.971  11.058  18.729  0.00  0.00    +0.000 S 
ATOM     18  H   UNL     1       3.281  11.011  19.033  0.00  0.00    +0.000 HD
ENDBRANCH  16  17
BRANCH  16  19
ATOM     19  C   UNL     1       0.103   9.185  19.516  0.00  0.00    +0.000 C 
BRANCH  19  20
ATOM     20  C   UNL     1      -0.250   9.870  20.817  0.00  0.00    +0.000 A 
ATOM     21  C   UNL     1      -0.027   9.228  22.041  0.00  0.00    +0.000 A 
ATOM     22  C   UNL     1      -0.473   9.806  23.230  0.00  0.00    +0.000 A 
ATOM     23  C   UNL     1      -1.141  11.030  23.206  0.00  0.00    +0.000 A 
ATOM     24  C   UNL     1      -1.338  11.693  21.997  0.00  0.00    +0.000 A 
ATOM     25  C   UNL     1      -0.887  11.119  20.809  0.00  0.00    +0.000 A 
ENDBRANCH  19  20
ENDBRANCH  16  19
ENDBRANCH  13  16
ENDBRANCH   1  14
BRANCH   8  26
ATOM     26  C   UNL     1       1.348   2.263  19.532  0.00  0.00    +0.000 C 
ATOM     27  O   UNL     1       1.445   2.191  20.750  0.00  0.00    +0.000 OA
BRANCH  26  28
ATOM     28  OXT UNL     1       0.151   2.141  18.909  0.00  0.00    +0.000 OA
ATOM     29  HXT UNL     1       0.239   2.133  17.923  0.00  0.00    +0.000 HD
ENDBRANCH  26  28
ENDBRANCH   8  26
TORSDOF 7
ENDMDL
