MODEL 1
REMARK VINA RESULT:      -9.3      0.000      0.000
REMARK  Name = 
REMARK  5 active torsions:
REMARK  status: ('A' for Active; 'I' for Inactive)
REMARK    1  A    between atoms: C_2  and  C_23
REMARK    2  A    between atoms: N_3  and  C_4
REMARK    3  A    between atoms: C_9  and  C_10
REMARK    4  A    between atoms: N_12  and  C_13
REMARK    5  A    between atoms: C_17  and  C_18
REMARK                            x       y       z     vdW  Elec       q    Type
REMARK                         _______ _______ _______ _____ _____    ______ ____
ROOT
ATOM      1  C   UNL     1       2.842   4.613  20.402  0.00  0.00    +0.000 A 
ATOM      2  C   UNL     1       1.958   4.002  21.309  0.00  0.00    +0.000 A 
ATOM      3  C   UNL     1       1.837   2.615  21.367  0.00  0.00    +0.000 A 
ATOM      4  C   UNL     1       2.620   1.822  20.542  0.00  0.00    +0.000 A 
ATOM      5  C   UNL     1       3.512   2.420  19.651  0.00  0.00    +0.000 A 
ATOM      6  C   UNL     1       3.639   3.822  19.550  0.00  0.00    +0.000 A 
ENDROOT
BRANCH   1   9
ATOM      7  O   UNL     1       1.711   5.892  18.298  0.00  0.00    +0.000 OA
ATOM      8  C   UNL     1       2.145   6.561  19.232  0.00  0.00    +0.000 C 
ATOM      9  N   UNL     1       2.799   6.031  20.342  0.00  0.00    +0.000 N 
ATOM     10  H   UNL     1       2.473   6.474  21.193  0.00  0.00    +0.000 HD
BRANCH   8  11
ATOM     11  C   UNL     1       2.042   8.039  19.179  0.00  0.00    +0.000 A 
ATOM     12  C   UNL     1       2.339   8.754  17.992  0.00  0.00    +0.000 A 
ATOM     13  C   UNL     1       1.833  10.046  17.815  0.00  0.00    +0.000 A 
ATOM     14  C   UNL     1       1.036  10.553  18.818  0.00  0.00    +0.000 A 
ATOM     15  C   UNL     1       0.839   9.887  20.008  0.00  0.00    +0.000 A 
ATOM     16  C   UNL     1       1.362   8.644  20.240  0.00  0.00    +0.000 A 
ATOM     17  O   UNL     1      -0.056  10.522  20.813  0.00  0.00    +0.000 OA
ATOM     18  C   UNL     1      -0.654  11.391  19.832  0.00  0.00    +0.000 C 
ATOM     19  O   UNL     1       0.246  11.661  18.733  0.00  0.00    +0.000 OA
ENDBRANCH   8  11
ENDBRANCH   1   9
BRANCH   6  20
ATOM     20  C   UNL     1       4.673   4.295  18.560  0.00  0.00    +0.000 C 
ATOM     21  O   UNL     1       5.377   5.246  18.897  0.00  0.00    +0.000 OA
ATOM     22  N   UNL     1       4.783   3.653  17.337  0.00  0.00    +0.000 N 
ATOM     23  H   UNL     1       4.270   2.791  17.235  0.00  0.00    +0.000 HD
BRANCH  22  24
ATOM     24  C   UNL     1       5.641   4.028  16.267  0.00  0.00    +0.000 A 
ATOM     25  C   UNL     1       6.789   4.802  16.455  0.00  0.00    +0.000 A 
ATOM     26  C   UNL     1       7.613   5.157  15.385  0.00  0.00    +0.000 A 
ATOM     27  C   UNL     1       7.299   4.742  14.096  0.00  0.00    +0.000 A 
ATOM     28  C   UNL     1       6.150   3.970  13.868  0.00  0.00    +0.000 A 
ATOM     29  C   UNL     1       5.321   3.626  14.962  0.00  0.00    +0.000 A 
BRANCH  28  30
ATOM     30  C   UNL     1       5.817   3.510  12.469  0.00  0.00    +0.000 C 
ATOM     31  F   UNL     1       5.972   2.169  12.281  0.00  0.00    +0.000 F 
ATOM     32  F   UNL     1       4.530   3.787  12.120  0.00  0.00    +0.000 F 
ATOM     33  F   UNL     1       6.597   4.108  11.525  0.00  0.00    +0.000 F 
ENDBRANCH  28  30
ENDBRANCH  22  24
ENDBRANCH   6  20
TORSDOF 5
ENDMDL
MODEL 2
REMARK VINA RESULT:      -9.0      1.127      1.493
REMARK  Name = 
REMARK  5 active torsions:
REMARK  status: ('A' for Active; 'I' for Inactive)
REMARK    1  A    between atoms: C_2  and  C_23
REMARK    2  A    between atoms: N_3  and  C_4
REMARK    3  A    between atoms: C_9  and  C_10
REMARK    4  A    between atoms: N_12  and  C_13
REMARK    5  A    between atoms: C_17  and  C_18
REMARK                            x       y       z     vdW  Elec       q    Type
REMARK                         _______ _______ _______ _____ _____    ______ ____
ROOT
ATOM      1  C   UNL     1       2.816   4.722  20.148  0.00  0.00    +0.000 A 
ATOM      2  C   UNL     1       2.141   4.030  21.170  0.00  0.00    +0.000 A 
ATOM      3  C   UNL     1       2.031   2.642  21.141  0.00  0.00    +0.000 A 
ATOM      4  C   UNL     1       2.620   1.927  20.109  0.00  0.00    +0.000 A 
ATOM      5  C   UNL     1       3.306   2.605  19.101  0.00  0.00    +0.000 A 
ATOM      6  C   UNL     1       3.413   4.012  19.088  0.00  0.00    +0.000 A 
ENDROOT
BRANCH   1   9
ATOM      7  O   UNL     1       0.496   6.018  20.678  0.00  0.00    +0.000 OA
ATOM      8  C   UNL     1       1.523   6.677  20.543  0.00  0.00    +0.000 C 
ATOM      9  N   UNL     1       2.765   6.140  20.213  0.00  0.00    +0.000 N 
ATOM     10  H   UNL     1       3.495   6.559  20.777  0.00  0.00    +0.000 HD
BRANCH   8  11
ATOM     11  C   UNL     1       1.462   8.153  20.668  0.00  0.00    +0.000 A 
ATOM     12  C   UNL     1       1.398   8.986  19.522  0.00  0.00    +0.000 A 
ATOM     13  C   UNL     1       0.909  10.290  19.639  0.00  0.00    +0.000 A 
ATOM     14  C   UNL     1       0.486  10.696  20.887  0.00  0.00    +0.000 A 
ATOM     15  C   UNL     1       0.648   9.911  22.009  0.00  0.00    +0.000 A 
ATOM     16  C   UNL     1       1.172   8.648  21.942  0.00  0.00    +0.000 A 
ATOM     17  O   UNL     1       0.074  10.463  23.111  0.00  0.00    +0.000 OA
ATOM     18  C   UNL     1      -0.769  11.432  22.458  0.00  0.00    +0.000 C 
ATOM     19  O   UNL     1      -0.250  11.810  21.163  0.00  0.00    +0.000 OA
ENDBRANCH   8  11
ENDBRANCH   1   9
BRANCH   6  20
ATOM     20  C   UNL     1       4.216   4.576  17.943  0.00  0.00    +0.000 C 
ATOM     21  O   UNL     1       4.097   5.779  17.714  0.00  0.00    +0.000 OA
ATOM     22  N   UNL     1       5.039   3.733  17.213  0.00  0.00    +0.000 N 
ATOM     23  H   UNL     1       5.181   2.809  17.590  0.00  0.00    +0.000 HD
BRANCH  22  24
ATOM     24  C   UNL     1       5.790   4.087  16.059  0.00  0.00    +0.000 A 
ATOM     25  C   UNL     1       6.925   4.900  16.116  0.00  0.00    +0.000 A 
ATOM     26  C   UNL     1       7.643   5.233  14.966  0.00  0.00    +0.000 A 
ATOM     27  C   UNL     1       7.232   4.755  13.726  0.00  0.00    +0.000 A 
ATOM     28  C   UNL     1       6.092   3.943  13.629  0.00  0.00    +0.000 A 
ATOM     29  C   UNL     1       5.372   3.622  14.803  0.00  0.00    +0.000 A 
BRANCH  28  30
ATOM     30  C   UNL     1       5.654   3.416  12.283  0.00  0.00    +0.000 C 
ATOM     31  F   UNL     1       4.329   3.601  12.028  0.00  0.00    +0.000 F 
ATOM     32  F   UNL     1       6.318   4.005  11.250  0.00  0.00    +0.000 F 
ATOM     33  F   UNL     1       5.872   2.078  12.153  0.00  0.00    +0.000 F 
ENDBRANCH  28  30
ENDBRANCH  22  24
ENDBRANCH   6  20
TORSDOF 5
ENDMDL
MODEL 3
REMARK VINA RESULT:      -8.6      3.768      8.047
REMARK  Name = 
REMARK  5 active torsions:
REMARK  status: ('A' for Active; 'I' for Inactive)
REMARK    1  A    between atoms: C_2  and  C_23
REMARK    2  A    between atoms: N_3  and  C_4
REMARK    3  A    between atoms: C_9  and  C_10
REMARK    4  A    between atoms: N_12  and  C_13
REMARK    5  A    between atoms: C_17  and  C_18
REMARK                            x       y       z     vdW  Elec       q    Type
REMARK                         _______ _______ _______ _____ _____    ______ ____
ROOT
ATOM      1  C   UNL     1       3.004   3.893  19.234  0.00  0.00    +0.000 A 
ATOM      2  C   UNL     1       3.104   2.510  19.474  0.00  0.00    +0.000 A 
ATOM      3  C   UNL     1       2.706   1.965  20.693  0.00  0.00    +0.000 A 
ATOM      4  C   UNL     1       2.173   2.789  21.673  0.00  0.00    +0.000 A 
ATOM      5  C   UNL     1       2.054   4.159  21.436  0.00  0.00    +0.000 A 
ATOM      6  C   UNL     1       2.473   4.745  20.222  0.00  0.00    +0.000 A 
ENDROOT
BRANCH   1   9
ATOM      7  O   UNL     1       5.683   4.066  18.869  0.00  0.00    +0.000 OA
ATOM      8  C   UNL     1       4.940   4.349  17.933  0.00  0.00    +0.000 C 
ATOM      9  N   UNL     1       3.549   4.357  18.008  0.00  0.00    +0.000 N 
ATOM     10  H   UNL     1       3.146   3.928  17.183  0.00  0.00    +0.000 HD
BRANCH   8  11
ATOM     11  C   UNL     1       5.527   4.779  16.642  0.00  0.00    +0.000 A 
ATOM     12  C   UNL     1       6.874   5.211  16.554  0.00  0.00    +0.000 A 
ATOM     13  C   UNL     1       7.532   5.189  15.321  0.00  0.00    +0.000 A 
ATOM     14  C   UNL     1       6.823   4.716  14.237  0.00  0.00    +0.000 A 
ATOM     15  C   UNL     1       5.485   4.395  14.318  0.00  0.00    +0.000 A 
ATOM     16  C   UNL     1       4.794   4.455  15.498  0.00  0.00    +0.000 A 
ATOM     17  O   UNL     1       5.012   3.860  13.160  0.00  0.00    +0.000 OA
ATOM     18  C   UNL     1       6.271   3.533  12.540  0.00  0.00    +0.000 C 
ATOM     19  O   UNL     1       7.344   4.372  13.025  0.00  0.00    +0.000 OA
ENDBRANCH   8  11
ENDBRANCH   1   9
BRANCH   6  20
ATOM     20  C   UNL     1       2.241   6.232  20.123  0.00  0.00    +0.000 C 
ATOM     21  O   UNL     1       2.901   6.848  19.287  0.00  0.00    +0.000 OA
ATOM     22  N   UNL     1       1.311   6.829  20.960  0.00  0.00    +0.000 N 
ATOM     23  H   UNL     1       0.717   6.208  21.486  0.00  0.00    +0.000 HD
BRANCH  22  24
ATOM     24  C   UNL     1       1.039   8.222  21.051  0.00  0.00    +0.000 A 
ATOM     25  C   UNL     1       0.548   8.822  22.213  0.00  0.00    +0.000 A 
ATOM     26  C   UNL     1       0.288  10.193  22.272  0.00  0.00    +0.000 A 
ATOM     27  C   UNL     1       0.516  10.994  21.159  0.00  0.00    +0.000 A 
ATOM     28  C   UNL     1       1.002  10.425  19.973  0.00  0.00    +0.000 A 
ATOM     29  C   UNL     1       1.251   9.034  19.926  0.00  0.00    +0.000 A 
BRANCH  28  30
ATOM     30  C   UNL     1       1.260  11.299  18.768  0.00  0.00    +0.000 C 
ATOM     31  F   UNL     1       1.966  12.430  19.053  0.00  0.00    +0.000 F 
ATOM     32  F   UNL     1       1.964  10.656  17.796  0.00  0.00    +0.000 F 
ATOM     33  F   UNL     1       0.108  11.722  18.177  0.00  0.00    +0.000 F 
ENDBRANCH  28  30
ENDBRANCH  22  24
ENDBRANCH   6  20
TORSDOF 5
ENDMDL
MODEL 4
REMARK VINA RESULT:      -8.6      3.891      8.142
REMARK  Name = 
REMARK  5 active torsions:
REMARK  status: ('A' for Active; 'I' for Inactive)
REMARK    1  A    between atoms: C_2  and  C_23
REMARK    2  A    between atoms: N_3  and  C_4
REMARK    3  A    between atoms: C_9  and  C_10
REMARK    4  A    between atoms: N_12  and  C_13
REMARK    5  A    between atoms: C_17  and  C_18
REMARK                            x       y       z     vdW  Elec       q    Type
REMARK                         _______ _______ _______ _____ _____    ______ ____
ROOT
ATOM      1  C   UNL     1       3.139   3.896  19.272  0.00  0.00    +0.000 A 
ATOM      2  C   UNL     1       3.296   2.527  19.552  0.00  0.00    +0.000 A 
ATOM      3  C   UNL     1       2.933   2.004  20.792  0.00  0.00    +0.000 A 
ATOM      4  C   UNL     1       2.379   2.837  21.753  0.00  0.00    +0.000 A 
ATOM      5  C   UNL     1       2.204   4.193  21.476  0.00  0.00    +0.000 A 
ATOM      6  C   UNL     1       2.586   4.757  20.240  0.00  0.00    +0.000 A 
ENDROOT
BRANCH   1   9
ATOM      7  O   UNL     1       5.804   4.173  18.872  0.00  0.00    +0.000 OA
ATOM      8  C   UNL     1       5.041   4.393  17.936  0.00  0.00    +0.000 C 
ATOM      9  N   UNL     1       3.652   4.342  18.025  0.00  0.00    +0.000 N 
ATOM     10  H   UNL     1       3.260   3.870  17.219  0.00  0.00    +0.000 HD
BRANCH   8  11
ATOM     11  C   UNL     1       5.597   4.805  16.625  0.00  0.00    +0.000 A 
ATOM     12  C   UNL     1       6.941   5.238  16.499  0.00  0.00    +0.000 A 
ATOM     13  C   UNL     1       7.569   5.200  15.251  0.00  0.00    +0.000 A 
ATOM     14  C   UNL     1       6.836   4.709  14.192  0.00  0.00    +0.000 A 
ATOM     15  C   UNL     1       5.500   4.388  14.308  0.00  0.00    +0.000 A 
ATOM     16  C   UNL     1       4.837   4.463  15.503  0.00  0.00    +0.000 A 
ATOM     17  O   UNL     1       5.002   3.835  13.170  0.00  0.00    +0.000 OA
ATOM     18  C   UNL     1       6.246   3.501  12.525  0.00  0.00    +0.000 C 
ATOM     19  O   UNL     1       7.328   4.349  12.972  0.00  0.00    +0.000 OA
ENDBRANCH   8  11
ENDBRANCH   1   9
BRANCH   6  20
ATOM     20  C   UNL     1       2.295   6.230  20.098  0.00  0.00    +0.000 C 
ATOM     21  O   UNL     1       2.920   6.844  19.234  0.00  0.00    +0.000 OA
ATOM     22  N   UNL     1       1.354   6.817  20.930  0.00  0.00    +0.000 N 
ATOM     23  H   UNL     1       0.792   6.191  21.484  0.00  0.00    +0.000 HD
BRANCH  22  24
ATOM     24  C   UNL     1       1.029   8.200  20.982  0.00  0.00    +0.000 A 
ATOM     25  C   UNL     1       1.323   9.005  22.085  0.00  0.00    +0.000 A 
ATOM     26  C   UNL     1       0.991  10.361  22.108  0.00  0.00    +0.000 A 
ATOM     27  C   UNL     1       0.351  10.940  21.018  0.00  0.00    +0.000 A 
ATOM     28  C   UNL     1       0.033  10.162  19.896  0.00  0.00    +0.000 A 
ATOM     29  C   UNL     1       0.368   8.788  19.892  0.00  0.00    +0.000 A 
BRANCH  28  30
ATOM     30  C   UNL     1      -0.652  10.795  18.709  0.00  0.00    +0.000 C 
ATOM     31  F   UNL     1      -1.965  11.090  18.926  0.00  0.00    +0.000 F 
ATOM     32  F   UNL     1      -0.067  11.965  18.329  0.00  0.00    +0.000 F 
ATOM     33  F   UNL     1      -0.632   9.993  17.607  0.00  0.00    +0.000 F 
ENDBRANCH  28  30
ENDBRANCH  22  24
ENDBRANCH   6  20
TORSDOF 5
ENDMDL
MODEL 5
REMARK VINA RESULT:      -8.5      4.609      8.368
REMARK  Name = 
REMARK  5 active torsions:
REMARK  status: ('A' for Active; 'I' for Inactive)
REMARK    1  A    between atoms: C_2  and  C_23
REMARK    2  A    between atoms: N_3  and  C_4
REMARK    3  A    between atoms: C_9  and  C_10
REMARK    4  A    between atoms: N_12  and  C_13
REMARK    5  A    between atoms: C_17  and  C_18
REMARK                            x       y       z     vdW  Elec       q    Type
REMARK                         _______ _______ _______ _____ _____    ______ ____
ROOT
ATOM      1  C   UNL     1       3.583   3.460  18.678  0.00  0.00    +0.000 A 
ATOM      2  C   UNL     1       4.032   2.252  19.242  0.00  0.00    +0.000 A 
ATOM      3  C   UNL     1       3.759   1.939  20.572  0.00  0.00    +0.000 A 
ATOM      4  C   UNL     1       3.009   2.813  21.344  0.00  0.00    +0.000 A 
ATOM      5  C   UNL     1       2.545   4.005  20.787  0.00  0.00    +0.000 A 
ATOM      6  C   UNL     1       2.827   4.363  19.451  0.00  0.00    +0.000 A 
ENDROOT
BRANCH   1   9
ATOM      7  O   UNL     1       5.760   5.003  18.209  0.00  0.00    +0.000 OA
ATOM      8  C   UNL     1       5.179   4.497  17.254  0.00  0.00    +0.000 C 
ATOM      9  N   UNL     1       4.018   3.732  17.354  0.00  0.00    +0.000 N 
ATOM     10  H   UNL     1       4.077   2.915  16.758  0.00  0.00    +0.000 HD
BRANCH   8  11
ATOM     11  C   UNL     1       5.679   4.747  15.881  0.00  0.00    +0.000 A 
ATOM     12  C   UNL     1       7.038   5.075  15.642  0.00  0.00    +0.000 A 
ATOM     13  C   UNL     1       7.586   4.878  14.372  0.00  0.00    +0.000 A 
ATOM     14  C   UNL     1       6.762   4.342  13.406  0.00  0.00    +0.000 A 
ATOM     15  C   UNL     1       5.418   4.123  13.624  0.00  0.00    +0.000 A 
ATOM     16  C   UNL     1       4.834   4.354  14.840  0.00  0.00    +0.000 A 
ATOM     17  O   UNL     1       4.819   3.501  12.573  0.00  0.00    +0.000 OA
ATOM     18  C   UNL     1       6.000   3.026  11.898  0.00  0.00    +0.000 C 
ATOM     19  O   UNL     1       7.157   3.837  12.202  0.00  0.00    +0.000 OA
ENDBRANCH   8  11
ENDBRANCH   1   9
BRANCH   6  20
ATOM     20  C   UNL     1       2.221   5.669  19.003  0.00  0.00    +0.000 C 
ATOM     21  O   UNL     1       1.665   5.682  17.906  0.00  0.00    +0.000 OA
ATOM     22  N   UNL     1       2.315   6.778  19.830  0.00  0.00    +0.000 N 
ATOM     23  H   UNL     1       2.646   6.611  20.767  0.00  0.00    +0.000 HD
BRANCH  22  24
ATOM     24  C   UNL     1       1.876   8.094  19.520  0.00  0.00    +0.000 A 
ATOM     25  C   UNL     1       2.200   8.737  18.323  0.00  0.00    +0.000 A 
ATOM     26  C   UNL     1       1.755  10.031  18.046  0.00  0.00    +0.000 A 
ATOM     27  C   UNL     1       0.972  10.711  18.971  0.00  0.00    +0.000 A 
ATOM     28  C   UNL     1       0.632  10.100  20.187  0.00  0.00    +0.000 A 
ATOM     29  C   UNL     1       1.098   8.792  20.456  0.00  0.00    +0.000 A 
BRANCH  28  30
ATOM     30  C   UNL     1      -0.229  10.837  21.187  0.00  0.00    +0.000 C 
ATOM     31  F   UNL     1      -0.555  10.094  22.281  0.00  0.00    +0.000 F 
ATOM     32  F   UNL     1       0.372  11.961  21.666  0.00  0.00    +0.000 F 
ATOM     33  F   UNL     1      -1.413  11.245  20.651  0.00  0.00    +0.000 F 
ENDBRANCH  28  30
ENDBRANCH  22  24
ENDBRANCH   6  20
TORSDOF 5
ENDMDL
MODEL 6
REMARK VINA RESULT:      -8.5      1.156      1.651
REMARK  Name = 
REMARK  5 active torsions:
REMARK  status: ('A' for Active; 'I' for Inactive)
REMARK    1  A    between atoms: C_2  and  C_23
REMARK    2  A    between atoms: N_3  and  C_4
REMARK    3  A    between atoms: C_9  and  C_10
REMARK    4  A    between atoms: N_12  and  C_13
REMARK    5  A    between atoms: C_17  and  C_18
REMARK                            x       y       z     vdW  Elec       q    Type
REMARK                         _______ _______ _______ _____ _____    ______ ____
ROOT
ATOM      1  C   UNL     1       2.303   5.013  19.797  0.00  0.00    +0.000 A 
ATOM      2  C   UNL     1       1.609   4.437  20.877  0.00  0.00    +0.000 A 
ATOM      3  C   UNL     1       1.978   3.192  21.382  0.00  0.00    +0.000 A 
ATOM      4  C   UNL     1       3.063   2.523  20.836  0.00  0.00    +0.000 A 
ATOM      5  C   UNL     1       3.767   3.096  19.776  0.00  0.00    +0.000 A 
ATOM      6  C   UNL     1       3.402   4.343  19.225  0.00  0.00    +0.000 A 
ENDROOT
BRANCH   1   9
ATOM      7  O   UNL     1       2.084   7.216  21.359  0.00  0.00    +0.000 OA
ATOM      8  C   UNL     1       1.759   7.295  20.178  0.00  0.00    +0.000 C 
ATOM      9  N   UNL     1       1.770   6.225  19.285  0.00  0.00    +0.000 N 
ATOM     10  H   UNL     1       2.158   6.509  18.394  0.00  0.00    +0.000 HD
BRANCH   8  11
ATOM     11  C   UNL     1       1.256   8.584  19.646  0.00  0.00    +0.000 A 
ATOM     12  C   UNL     1       0.357   9.387  20.392  0.00  0.00    +0.000 A 
ATOM     13  C   UNL     1       0.238  10.749  20.103  0.00  0.00    +0.000 A 
ATOM     14  C   UNL     1       1.038  11.253  19.100  0.00  0.00    +0.000 A 
ATOM     15  C   UNL     1       1.832  10.442  18.316  0.00  0.00    +0.000 A 
ATOM     16  C   UNL     1       1.933   9.095  18.535  0.00  0.00    +0.000 A 
ATOM     17  O   UNL     1       2.607  11.155  17.456  0.00  0.00    +0.000 OA
ATOM     18  C   UNL     1       2.488  12.450  18.076  0.00  0.00    +0.000 C 
ATOM     19  O   UNL     1       1.266  12.571  18.839  0.00  0.00    +0.000 OA
ENDBRANCH   8  11
ENDBRANCH   1   9
BRANCH   6  20
ATOM     20  C   UNL     1       4.291   4.827  18.107  0.00  0.00    +0.000 C 
ATOM     21  O   UNL     1       4.375   6.043  17.945  0.00  0.00    +0.000 OA
ATOM     22  N   UNL     1       4.963   3.899  17.327  0.00  0.00    +0.000 N 
ATOM     23  H   UNL     1       4.949   2.945  17.651  0.00  0.00    +0.000 HD
BRANCH  22  24
ATOM     24  C   UNL     1       5.766   4.187  16.189  0.00  0.00    +0.000 A 
ATOM     25  C   UNL     1       6.947   4.929  16.265  0.00  0.00    +0.000 A 
ATOM     26  C   UNL     1       7.714   5.197  15.129  0.00  0.00    +0.000 A 
ATOM     27  C   UNL     1       7.308   4.723  13.887  0.00  0.00    +0.000 A 
ATOM     28  C   UNL     1       6.124   3.980  13.771  0.00  0.00    +0.000 A 
ATOM     29  C   UNL     1       5.354   3.726  14.929  0.00  0.00    +0.000 A 
BRANCH  28  30
ATOM     30  C   UNL     1       5.691   3.458  12.422  0.00  0.00    +0.000 C 
ATOM     31  F   UNL     1       5.840   2.110  12.283  0.00  0.00    +0.000 F 
ATOM     32  F   UNL     1       4.381   3.716  12.157  0.00  0.00    +0.000 F 
ATOM     33  F   UNL     1       6.396   4.015  11.398  0.00  0.00    +0.000 F 
ENDBRANCH  28  30
ENDBRANCH  22  24
ENDBRANCH   6  20
TORSDOF 5
ENDMDL
MODEL 7
REMARK VINA RESULT:      -8.4      4.972      8.810
REMARK  Name = 
REMARK  5 active torsions:
REMARK  status: ('A' for Active; 'I' for Inactive)
REMARK    1  A    between atoms: C_2  and  C_23
REMARK    2  A    between atoms: N_3  and  C_4
REMARK    3  A    between atoms: C_9  and  C_10
REMARK    4  A    between atoms: N_12  and  C_13
REMARK    5  A    between atoms: C_17  and  C_18
REMARK                            x       y       z     vdW  Elec       q    Type
REMARK                         _______ _______ _______ _____ _____    ______ ____
ROOT
ATOM      1  C   UNL     1       3.154   4.153  19.125  0.00  0.00    +0.000 A 
ATOM      2  C   UNL     1       3.383   2.841  19.576  0.00  0.00    +0.000 A 
ATOM      3  C   UNL     1       3.018   2.454  20.864  0.00  0.00    +0.000 A 
ATOM      4  C   UNL     1       2.392   3.364  21.704  0.00  0.00    +0.000 A 
ATOM      5  C   UNL     1       2.147   4.662  21.257  0.00  0.00    +0.000 A 
ATOM      6  C   UNL     1       2.528   5.093  19.968  0.00  0.00    +0.000 A 
ENDROOT
BRANCH   1   9
ATOM      7  O   UNL     1       5.805   4.571  18.750  0.00  0.00    +0.000 OA
ATOM      8  C   UNL     1       5.058   4.613  17.777  0.00  0.00    +0.000 C 
ATOM      9  N   UNL     1       3.673   4.473  17.842  0.00  0.00    +0.000 N 
ATOM     10  H   UNL     1       3.340   3.874  17.096  0.00  0.00    +0.000 HD
BRANCH   8  11
ATOM     11  C   UNL     1       5.623   4.894  16.436  0.00  0.00    +0.000 A 
ATOM     12  C   UNL     1       7.002   5.178  16.264  0.00  0.00    +0.000 A 
ATOM     13  C   UNL     1       7.595   5.007  15.010  0.00  0.00    +0.000 A 
ATOM     14  C   UNL     1       6.792   4.539  13.992  0.00  0.00    +0.000 A 
ATOM     15  C   UNL     1       5.433   4.365  14.148  0.00  0.00    +0.000 A 
ATOM     16  C   UNL     1       4.808   4.573  15.348  0.00  0.00    +0.000 A 
ATOM     17  O   UNL     1       4.855   3.806  13.051  0.00  0.00    +0.000 OA
ATOM     18  C   UNL     1       6.044   3.310  12.406  0.00  0.00    +0.000 C 
ATOM     19  O   UNL     1       7.217   4.065  12.787  0.00  0.00    +0.000 OA
ENDBRANCH   8  11
ENDBRANCH   1   9
BRANCH   6  20
ATOM     20  C   UNL     1       2.156   6.516  19.638  0.00  0.00    +0.000 C 
ATOM     21  O   UNL     1       2.512   6.950  18.544  0.00  0.00    +0.000 OA
ATOM     22  N   UNL     1       1.443   7.261  20.564  0.00  0.00    +0.000 N 
ATOM     23  H   UNL     1       1.067   6.757  21.352  0.00  0.00    +0.000 HD
BRANCH  22  24
ATOM     24  C   UNL     1       1.092   8.633  20.444  0.00  0.00    +0.000 A 
ATOM     25  C   UNL     1       1.515   9.431  19.378  0.00  0.00    +0.000 A 
ATOM     26  C   UNL     1       1.155  10.777  19.287  0.00  0.00    +0.000 A 
ATOM     27  C   UNL     1       0.360  11.354  20.271  0.00  0.00    +0.000 A 
ATOM     28  C   UNL     1      -0.077  10.586  21.359  0.00  0.00    +0.000 A 
ATOM     29  C   UNL     1       0.303   9.227  21.442  0.00  0.00    +0.000 A 
BRANCH  28  30
ATOM     30  C   UNL     1      -0.950  11.212  22.421  0.00  0.00    +0.000 C 
ATOM     31  F   UNL     1      -1.180  10.399  23.490  0.00  0.00    +0.000 F 
ATOM     32  F   UNL     1      -0.414  12.355  22.932  0.00  0.00    +0.000 F 
ATOM     33  F   UNL     1      -2.180  11.556  21.947  0.00  0.00    +0.000 F 
ENDBRANCH  28  30
ENDBRANCH  22  24
ENDBRANCH   6  20
TORSDOF 5
ENDMDL
MODEL 8
REMARK VINA RESULT:      -8.4      4.715      8.408
REMARK  Name = 
REMARK  5 active torsions:
REMARK  status: ('A' for Active; 'I' for Inactive)
REMARK    1  A    between atoms: C_2  and  C_23
REMARK    2  A    between atoms: N_3  and  C_4
REMARK    3  A    between atoms: C_9  and  C_10
REMARK    4  A    between atoms: N_12  and  C_13
REMARK    5  A    between atoms: C_17  and  C_18
REMARK                            x       y       z     vdW  Elec       q    Type
REMARK                         _______ _______ _______ _____ _____    ______ ____
ROOT
ATOM      1  C   UNL     1       3.908   3.753  19.436  0.00  0.00    +0.000 A 
ATOM      2  C   UNL     1       4.304   2.545  20.038  0.00  0.00    +0.000 A 
ATOM      3  C   UNL     1       3.635   2.051  21.157  0.00  0.00    +0.000 A 
ATOM      4  C   UNL     1       2.546   2.741  21.666  0.00  0.00    +0.000 A 
ATOM      5  C   UNL     1       2.137   3.931  21.064  0.00  0.00    +0.000 A 
ATOM      6  C   UNL     1       2.809   4.471  19.947  0.00  0.00    +0.000 A 
ENDROOT
BRANCH   1   9
ATOM      7  O   UNL     1       3.348   3.158  16.853  0.00  0.00    +0.000 OA
ATOM      8  C   UNL     1       4.304   3.889  17.096  0.00  0.00    +0.000 C 
ATOM      9  N   UNL     1       4.731   4.225  18.379  0.00  0.00    +0.000 N 
ATOM     10  H   UNL     1       4.956   5.211  18.434  0.00  0.00    +0.000 HD
BRANCH   8  11
ATOM     11  C   UNL     1       5.120   4.417  15.977  0.00  0.00    +0.000 A 
ATOM     12  C   UNL     1       6.436   4.899  16.191  0.00  0.00    +0.000 A 
ATOM     13  C   UNL     1       7.330   4.975  15.118  0.00  0.00    +0.000 A 
ATOM     14  C   UNL     1       6.877   4.546  13.889  0.00  0.00    +0.000 A 
ATOM     15  C   UNL     1       5.566   4.176  13.677  0.00  0.00    +0.000 A 
ATOM     16  C   UNL     1       4.649   4.140  14.692  0.00  0.00    +0.000 A 
ATOM     17  O   UNL     1       5.362   3.698  12.420  0.00  0.00    +0.000 OA
ATOM     18  C   UNL     1       6.734   3.452  12.054  0.00  0.00    +0.000 C 
ATOM     19  O   UNL     1       7.647   4.295  12.792  0.00  0.00    +0.000 OA
ENDBRANCH   8  11
ENDBRANCH   1   9
BRANCH   6  20
ATOM     20  C   UNL     1       2.213   5.745  19.403  0.00  0.00    +0.000 C 
ATOM     21  O   UNL     1       1.801   5.721  18.244  0.00  0.00    +0.000 OA
ATOM     22  N   UNL     1       2.156   6.867  20.216  0.00  0.00    +0.000 N 
ATOM     23  H   UNL     1       2.372   6.726  21.190  0.00  0.00    +0.000 HD
BRANCH  22  24
ATOM     24  C   UNL     1       1.707   8.159  19.830  0.00  0.00    +0.000 A 
ATOM     25  C   UNL     1       2.044   8.741  18.605  0.00  0.00    +0.000 A 
ATOM     26  C   UNL     1       1.589  10.014  18.253  0.00  0.00    +0.000 A 
ATOM     27  C   UNL     1       0.784  10.733  19.129  0.00  0.00    +0.000 A 
ATOM     28  C   UNL     1       0.432  10.183  20.370  0.00  0.00    +0.000 A 
ATOM     29  C   UNL     1       0.908   8.897  20.716  0.00  0.00    +0.000 A 
BRANCH  28  30
ATOM     30  C   UNL     1      -0.452  10.962  21.316  0.00  0.00    +0.000 C 
ATOM     31  F   UNL     1      -1.572  11.469  20.727  0.00  0.00    +0.000 F 
ATOM     32  F   UNL     1      -0.891  10.208  22.361  0.00  0.00    +0.000 F 
ATOM     33  F   UNL     1       0.190  12.029  21.868  0.00  0.00    +0.000 F 
ENDBRANCH  28  30
ENDBRANCH  22  24
ENDBRANCH   6  20
TORSDOF 5
ENDMDL
MODEL 9
REMARK VINA RESULT:      -8.4      4.920      6.340
REMARK  Name = 
REMARK  5 active torsions:
REMARK  status: ('A' for Active; 'I' for Inactive)
REMARK    1  A    between atoms: C_2  and  C_23
REMARK    2  A    between atoms: N_3  and  C_4
REMARK    3  A    between atoms: C_9  and  C_10
REMARK    4  A    between atoms: N_12  and  C_13
REMARK    5  A    between atoms: C_17  and  C_18
REMARK                            x       y       z     vdW  Elec       q    Type
REMARK                         _______ _______ _______ _____ _____    ______ ____
ROOT
ATOM      1  C   UNL     1       5.284   5.392  16.866  0.00  0.00    +0.000 A 
ATOM      2  C   UNL     1       4.824   4.428  15.952  0.00  0.00    +0.000 A 
ATOM      3  C   UNL     1       5.649   3.957  14.933  0.00  0.00    +0.000 A 
ATOM      4  C   UNL     1       6.953   4.421  14.835  0.00  0.00    +0.000 A 
ATOM      5  C   UNL     1       7.422   5.365  15.749  0.00  0.00    +0.000 A 
ATOM      6  C   UNL     1       6.603   5.880  16.776  0.00  0.00    +0.000 A 
ENDROOT
BRANCH   1   9
ATOM      7  O   UNL     1       3.814   7.598  16.305  0.00  0.00    +0.000 OA
ATOM      8  C   UNL     1       3.602   6.999  17.356  0.00  0.00    +0.000 C 
ATOM      9  N   UNL     1       4.324   5.889  17.788  0.00  0.00    +0.000 N 
ATOM     10  H   UNL     1       3.702   5.184  18.164  0.00  0.00    +0.000 HD
BRANCH   8  11
ATOM     11  C   UNL     1       2.558   7.500  18.282  0.00  0.00    +0.000 A 
ATOM     12  C   UNL     1       2.439   6.991  19.599  0.00  0.00    +0.000 A 
ATOM     13  C   UNL     1       1.779   7.742  20.576  0.00  0.00    +0.000 A 
ATOM     14  C   UNL     1       1.291   8.975  20.201  0.00  0.00    +0.000 A 
ATOM     15  C   UNL     1       1.326   9.412  18.894  0.00  0.00    +0.000 A 
ATOM     16  C   UNL     1       1.916   8.681  17.899  0.00  0.00    +0.000 A 
ATOM     17  O   UNL     1       0.880  10.691  18.766  0.00  0.00    +0.000 OA
ATOM     18  C   UNL     1       0.957  11.089  20.149  0.00  0.00    +0.000 C 
ATOM     19  O   UNL     1       0.856   9.956  21.041  0.00  0.00    +0.000 OA
ENDBRANCH   8  11
ENDBRANCH   1   9
BRANCH   6  20
ATOM     20  C   UNL     1       7.280   6.866  17.694  0.00  0.00    +0.000 C 
ATOM     21  O   UNL     1       7.459   6.516  18.859  0.00  0.00    +0.000 OA
ATOM     22  N   UNL     1       7.666   8.101  17.195  0.00  0.00    +0.000 N 
ATOM     23  H   UNL     1       7.617   8.216  16.195  0.00  0.00    +0.000 HD
BRANCH  22  24
ATOM     24  C   UNL     1       8.233   9.167  17.944  0.00  0.00    +0.000 A 
ATOM     25  C   UNL     1       8.937   8.964  19.134  0.00  0.00    +0.000 A 
ATOM     26  C   UNL     1       9.483  10.031  19.850  0.00  0.00    +0.000 A 
ATOM     27  C   UNL     1       9.331  11.333  19.384  0.00  0.00    +0.000 A 
ATOM     28  C   UNL     1       8.625  11.576  18.197  0.00  0.00    +0.000 A 
ATOM     29  C   UNL     1       8.071  10.484  17.489  0.00  0.00    +0.000 A 
BRANCH  28  30
ATOM     30  C   UNL     1       8.472  12.989  17.687  0.00  0.00    +0.000 C 
ATOM     31  F   UNL     1       8.116  13.884  18.651  0.00  0.00    +0.000 F 
ATOM     32  F   UNL     1       9.618  13.473  17.135  0.00  0.00    +0.000 F 
ATOM     33  F   UNL     1       7.518  13.091  16.719  0.00  0.00    +0.000 F 
ENDBRANCH  28  30
ENDBRANCH  22  24
ENDBRANCH   6  20
TORSDOF 5
ENDMDL
