MODEL 1
REMARK VINA RESULT:      -8.8      0.000      0.000
REMARK  Name = 
REMARK  7 active torsions:
REMARK  status: ('A' for Active; 'I' for Inactive)
REMARK    1  A    between atoms: C_1  and  C_2
REMARK    2  A    between atoms: C_5  and  N_6
REMARK    3  A    between atoms: C_10  and  S_11
REMARK    4  A    between atoms: S_11  and  C_12
REMARK    5  A    between atoms: C_12  and  C_13
REMARK    6  A    between atoms: C_25  and  C_26
REMARK    7  A    between atoms: C_25  and  C_27
REMARK                            x       y       z     vdW  Elec       q    Type
REMARK                         _______ _______ _______ _____ _____    ______ ____
ROOT
ATOM      1  C   UNL     1       1.171   8.139  20.710  0.00  0.00    +0.000 C 
ATOM      2  O   UNL     1       0.780   7.777  21.822  0.00  0.00    +0.000 OA
ATOM      3  N   UNL     1       0.978   9.449  20.190  0.00  0.00    +0.000 N 
ATOM      4  C   UNL     1       0.297  10.476  21.013  0.00  0.00    +0.000 A 
ATOM      5  C   UNL     1      -0.325  10.231  22.248  0.00  0.00    +0.000 A 
ATOM      6  C   UNL     1      -0.969  11.245  22.977  0.00  0.00    +0.000 A 
ATOM      7  C   UNL     1      -1.026  12.540  22.488  0.00  0.00    +0.000 A 
ATOM      8  C   UNL     1      -0.396  12.832  21.288  0.00  0.00    +0.000 A 
ATOM      9  C   UNL     1       0.272  11.822  20.582  0.00  0.00    +0.000 A 
ATOM     10  N   UNL     1       1.009  12.230  19.473  0.00  0.00    +0.000 N 
ATOM     11  C   UNL     1       1.694  11.352  18.697  0.00  0.00    +0.000 C 
ATOM     12  O   UNL     1       2.547  11.783  17.921  0.00  0.00    +0.000 OA
ATOM     13  C   UNL     1       1.188   9.887  18.730  0.00  0.00    +0.000 C 
ATOM     14  C   UNL     1      -0.178   9.825  17.998  0.00  0.00    +0.000 C 
ATOM     15  C   UNL     1       2.186   9.130  17.829  0.00  0.00    +0.000 C 
ATOM     16  H   UNL     1       1.218  13.213  19.334  0.00  0.00    +0.000 HD
ENDROOT
BRANCH   1  17
ATOM     17  C   UNL     1       1.968   7.153  19.876  0.00  0.00    +0.000 C 
BRANCH  17  18
ATOM     18  S   UNL     1       2.261   5.558  20.680  0.00  0.00    +0.000 S 
BRANCH  18  23
ATOM     19  N   UNL     1       3.075   4.502  18.250  0.00  0.00    +0.000 N 
ATOM     20  N   UNL     1       2.506   3.760  17.261  0.00  0.00    +0.000 NA
ATOM     21  N   UNL     1       1.410   3.228  17.777  0.00  0.00    +0.000 NA
ATOM     22  N   UNL     1       1.192   3.676  19.053  0.00  0.00    +0.000 NA
ATOM     23  C   UNL     1       2.201   4.481  19.327  0.00  0.00    +0.000 A 
BRANCH  19  28
ATOM     24  C   UNL     1       7.875   7.551  17.681  0.00  0.00    +0.000 C 
ATOM     25  C   UNL     1       6.659   6.679  17.757  0.00  0.00    +0.000 A 
ATOM     26  C   UNL     1       5.555   6.926  16.934  0.00  0.00    +0.000 A 
ATOM     27  C   UNL     1       4.388   6.167  17.065  0.00  0.00    +0.000 A 
ATOM     28  C   UNL     1       4.304   5.176  18.055  0.00  0.00    +0.000 A 
ATOM     29  C   UNL     1       5.427   4.896  18.839  0.00  0.00    +0.000 A 
ATOM     30  C   UNL     1       6.592   5.649  18.699  0.00  0.00    +0.000 A 
ENDBRANCH  19  28
ENDBRANCH  18  23
ENDBRANCH  17  18
ENDBRANCH   1  17
TORSDOF 4
ENDMDL
MODEL 2
REMARK VINA RESULT:      -8.6      1.658      1.999
REMARK  Name = 
REMARK  7 active torsions:
REMARK  status: ('A' for Active; 'I' for Inactive)
REMARK    1  A    between atoms: C_1  and  C_2
REMARK    2  A    between atoms: C_5  and  N_6
REMARK    3  A    between atoms: C_10  and  S_11
REMARK    4  A    between atoms: S_11  and  C_12
REMARK    5  A    between atoms: C_12  and  C_13
REMARK    6  A    between atoms: C_25  and  C_26
REMARK    7  A    between atoms: C_25  and  C_27
REMARK                            x       y       z     vdW  Elec       q    Type
REMARK                         _______ _______ _______ _____ _____    ______ ____
ROOT
ATOM      1  C   UNL     1       1.689   7.589  20.218  0.00  0.00    +0.000 C 
ATOM      2  O   UNL     1       1.432   6.956  21.245  0.00  0.00    +0.000 OA
ATOM      3  N   UNL     1       1.273   8.930  19.989  0.00  0.00    +0.000 N 
ATOM      4  C   UNL     1       0.510   9.654  21.033  0.00  0.00    +0.000 A 
ATOM      5  C   UNL     1       0.017   9.074  22.213  0.00  0.00    +0.000 A 
ATOM      6  C   UNL     1      -0.714   9.810  23.162  0.00  0.00    +0.000 A 
ATOM      7  C   UNL     1      -0.990  11.152  22.955  0.00  0.00    +0.000 A 
ATOM      8  C   UNL     1      -0.494  11.772  21.818  0.00  0.00    +0.000 A 
ATOM      9  C   UNL     1       0.262  11.038  20.893  0.00  0.00    +0.000 A 
ATOM     10  N   UNL     1       0.853  11.769  19.865  0.00  0.00    +0.000 N 
ATOM     11  C   UNL     1       1.602  11.180  18.897  0.00  0.00    +0.000 C 
ATOM     12  O   UNL     1       2.328  11.885  18.196  0.00  0.00    +0.000 OA
ATOM     13  C   UNL     1       1.316   9.678  18.645  0.00  0.00    +0.000 C 
ATOM     14  C   UNL     1      -0.074   9.552  17.969  0.00  0.00    +0.000 C 
ATOM     15  C   UNL     1       2.347   9.280  17.569  0.00  0.00    +0.000 C 
ATOM     16  H   UNL     1       0.909  12.780  19.926  0.00  0.00    +0.000 HD
ENDROOT
BRANCH   1  17
ATOM     17  C   UNL     1       2.559   6.926  19.167  0.00  0.00    +0.000 C 
BRANCH  17  18
ATOM     18  S   UNL     1       1.972   5.299  18.628  0.00  0.00    +0.000 S 
BRANCH  18  23
ATOM     19  N   UNL     1       4.275   3.783  18.916  0.00  0.00    +0.000 N 
ATOM     20  N   UNL     1       4.675   2.744  19.698  0.00  0.00    +0.000 NA
ATOM     21  N   UNL     1       3.824   2.687  20.709  0.00  0.00    +0.000 NA
ATOM     22  N   UNL     1       2.816   3.603  20.563  0.00  0.00    +0.000 NA
ATOM     23  C   UNL     1       3.082   4.253  19.445  0.00  0.00    +0.000 A 
BRANCH  19  28
ATOM     24  C   UNL     1       7.418   4.948  14.287  0.00  0.00    +0.000 C 
ATOM     25  C   UNL     1       6.556   4.748  15.497  0.00  0.00    +0.000 A 
ATOM     26  C   UNL     1       7.080   4.937  16.781  0.00  0.00    +0.000 A 
ATOM     27  C   UNL     1       6.302   4.666  17.911  0.00  0.00    +0.000 A 
ATOM     28  C   UNL     1       5.001   4.163  17.762  0.00  0.00    +0.000 A 
ATOM     29  C   UNL     1       4.463   4.027  16.479  0.00  0.00    +0.000 A 
ATOM     30  C   UNL     1       5.239   4.306  15.354  0.00  0.00    +0.000 A 
ENDBRANCH  19  28
ENDBRANCH  18  23
ENDBRANCH  17  18
ENDBRANCH   1  17
TORSDOF 4
ENDMDL
MODEL 3
REMARK VINA RESULT:      -8.6      1.331      1.625
REMARK  Name = 
REMARK  7 active torsions:
REMARK  status: ('A' for Active; 'I' for Inactive)
REMARK    1  A    between atoms: C_1  and  C_2
REMARK    2  A    between atoms: C_5  and  N_6
REMARK    3  A    between atoms: C_10  and  S_11
REMARK    4  A    between atoms: S_11  and  C_12
REMARK    5  A    between atoms: C_12  and  C_13
REMARK    6  A    between atoms: C_25  and  C_26
REMARK    7  A    between atoms: C_25  and  C_27
REMARK                            x       y       z     vdW  Elec       q    Type
REMARK                         _______ _______ _______ _____ _____    ______ ____
ROOT
ATOM      1  C   UNL     1       1.511   7.916  20.293  0.00  0.00    +0.000 C 
ATOM      2  O   UNL     1       1.242   7.297  21.326  0.00  0.00    +0.000 OA
ATOM      3  N   UNL     1       1.111   9.258  20.048  0.00  0.00    +0.000 N 
ATOM      4  C   UNL     1       0.351  10.003  21.080  0.00  0.00    +0.000 A 
ATOM      5  C   UNL     1      -0.153   9.442  22.264  0.00  0.00    +0.000 A 
ATOM      6  C   UNL     1      -0.881  10.196  23.201  0.00  0.00    +0.000 A 
ATOM      7  C   UNL     1      -1.141  11.539  22.978  0.00  0.00    +0.000 A 
ATOM      8  C   UNL     1      -0.633  12.140  21.837  0.00  0.00    +0.000 A 
ATOM      9  C   UNL     1       0.119  11.388  20.923  0.00  0.00    +0.000 A 
ATOM     10  N   UNL     1       0.723  12.100  19.890  0.00  0.00    +0.000 N 
ATOM     11  C   UNL     1       1.470  11.493  18.932  0.00  0.00    +0.000 C 
ATOM     12  O   UNL     1       2.206  12.181  18.226  0.00  0.00    +0.000 OA
ATOM     13  C   UNL     1       1.168   9.991  18.696  0.00  0.00    +0.000 C 
ATOM     14  C   UNL     1      -0.221   9.872  18.015  0.00  0.00    +0.000 C 
ATOM     15  C   UNL     1       2.200   9.569  17.629  0.00  0.00    +0.000 C 
ATOM     16  H   UNL     1       0.789  13.111  19.939  0.00  0.00    +0.000 HD
ENDROOT
BRANCH   1  17
ATOM     17  C   UNL     1       2.378   7.231  19.254  0.00  0.00    +0.000 C 
BRANCH  17  18
ATOM     18  S   UNL     1       3.285   5.790  19.870  0.00  0.00    +0.000 S 
BRANCH  18  23
ATOM     19  N   UNL     1       2.943   4.116  17.687  0.00  0.00    +0.000 N 
ATOM     20  N   UNL     1       1.935   3.352  17.183  0.00  0.00    +0.000 NA
ATOM     21  N   UNL     1       1.052   3.209  18.157  0.00  0.00    +0.000 NA
ATOM     22  N   UNL     1       1.406   3.936  19.262  0.00  0.00    +0.000 NA
ATOM     23  C   UNL     1       2.553   4.515  18.956  0.00  0.00    +0.000 A 
BRANCH  19  28
ATOM     24  C   UNL     1       7.351   5.277  14.240  0.00  0.00    +0.000 C 
ATOM     25  C   UNL     1       6.266   4.979  15.230  0.00  0.00    +0.000 A 
ATOM     26  C   UNL     1       5.940   3.656  15.551  0.00  0.00    +0.000 A 
ATOM     27  C   UNL     1       4.870   3.377  16.408  0.00  0.00    +0.000 A 
ATOM     28  C   UNL     1       4.091   4.425  16.920  0.00  0.00    +0.000 A 
ATOM     29  C   UNL     1       4.452   5.746  16.640  0.00  0.00    +0.000 A 
ATOM     30  C   UNL     1       5.524   6.021  15.792  0.00  0.00    +0.000 A 
ENDBRANCH  19  28
ENDBRANCH  18  23
ENDBRANCH  17  18
ENDBRANCH   1  17
TORSDOF 4
ENDMDL
MODEL 4
REMARK VINA RESULT:      -8.4      2.415      8.380
REMARK  Name = 
REMARK  7 active torsions:
REMARK  status: ('A' for Active; 'I' for Inactive)
REMARK    1  A    between atoms: C_1  and  C_2
REMARK    2  A    between atoms: C_5  and  N_6
REMARK    3  A    between atoms: C_10  and  S_11
REMARK    4  A    between atoms: S_11  and  C_12
REMARK    5  A    between atoms: C_12  and  C_13
REMARK    6  A    between atoms: C_25  and  C_26
REMARK    7  A    between atoms: C_25  and  C_27
REMARK                            x       y       z     vdW  Elec       q    Type
REMARK                         _______ _______ _______ _____ _____    ______ ____
ROOT
ATOM      1  C   UNL     1       2.926   7.224  18.404  0.00  0.00    +0.000 C 
ATOM      2  O   UNL     1       3.368   8.113  17.672  0.00  0.00    +0.000 OA
ATOM      3  N   UNL     1       3.279   5.851  18.284  0.00  0.00    +0.000 N 
ATOM      4  C   UNL     1       4.253   5.426  17.252  0.00  0.00    +0.000 A 
ATOM      5  C   UNL     1       4.773   6.261  16.249  0.00  0.00    +0.000 A 
ATOM      6  C   UNL     1       5.684   5.797  15.285  0.00  0.00    +0.000 A 
ATOM      7  C   UNL     1       6.098   4.475  15.283  0.00  0.00    +0.000 A 
ATOM      8  C   UNL     1       5.634   3.625  16.274  0.00  0.00    +0.000 A 
ATOM      9  C   UNL     1       4.749   4.104  17.252  0.00  0.00    +0.000 A 
ATOM     10  N   UNL     1       4.458   3.232  18.298  0.00  0.00    +0.000 N 
ATOM     11  C   UNL     1       3.609   3.567  19.303  0.00  0.00    +0.000 C 
ATOM     12  O   UNL     1       3.611   2.892  20.333  0.00  0.00    +0.000 OA
ATOM     13  C   UNL     1       2.571   4.668  18.969  0.00  0.00    +0.000 C 
ATOM     14  C   UNL     1       1.534   4.078  17.978  0.00  0.00    +0.000 C 
ATOM     15  C   UNL     1       1.815   4.881  20.297  0.00  0.00    +0.000 C 
ATOM     16  H   UNL     1       5.026   2.404  18.444  0.00  0.00    +0.000 HD
ENDROOT
BRANCH   1  17
ATOM     17  C   UNL     1       2.010   7.626  19.545  0.00  0.00    +0.000 C 
BRANCH  17  18
ATOM     18  S   UNL     1       1.262   9.265  19.361  0.00  0.00    +0.000 S 
BRANCH  18  23
ATOM     19  N   UNL     1       0.271  10.752  21.480  0.00  0.00    +0.000 N 
ATOM     20  N   UNL     1       0.136  10.579  22.823  0.00  0.00    +0.000 NA
ATOM     21  N   UNL     1       0.270   9.282  23.048  0.00  0.00    +0.000 NA
ATOM     22  N   UNL     1       0.584   8.607  21.898  0.00  0.00    +0.000 NA
ATOM     23  C   UNL     1       0.613   9.519  20.945  0.00  0.00    +0.000 A 
BRANCH  19  28
ATOM     24  C   UNL     1      -0.155  15.724  18.695  0.00  0.00    +0.000 C 
ATOM     25  C   UNL     1      -0.063  14.476  19.520  0.00  0.00    +0.000 A 
ATOM     26  C   UNL     1       1.176  14.027  19.993  0.00  0.00    +0.000 A 
ATOM     27  C   UNL     1       1.272  12.817  20.688  0.00  0.00    +0.000 A 
ATOM     28  C   UNL     1       0.130  12.026  20.880  0.00  0.00    +0.000 A 
ATOM     29  C   UNL     1      -1.112  12.503  20.454  0.00  0.00    +0.000 A 
ATOM     30  C   UNL     1      -1.207  13.714  19.768  0.00  0.00    +0.000 A 
ENDBRANCH  19  28
ENDBRANCH  18  23
ENDBRANCH  17  18
ENDBRANCH   1  17
TORSDOF 4
ENDMDL
MODEL 5
REMARK VINA RESULT:      -8.3      2.675      8.596
REMARK  Name = 
REMARK  7 active torsions:
REMARK  status: ('A' for Active; 'I' for Inactive)
REMARK    1  A    between atoms: C_1  and  C_2
REMARK    2  A    between atoms: C_5  and  N_6
REMARK    3  A    between atoms: C_10  and  S_11
REMARK    4  A    between atoms: S_11  and  C_12
REMARK    5  A    between atoms: C_12  and  C_13
REMARK    6  A    between atoms: C_25  and  C_26
REMARK    7  A    between atoms: C_25  and  C_27
REMARK                            x       y       z     vdW  Elec       q    Type
REMARK                         _______ _______ _______ _____ _____    ______ ____
ROOT
ATOM      1  C   UNL     1       3.107   7.194  18.015  0.00  0.00    +0.000 C 
ATOM      2  O   UNL     1       3.595   8.022  17.243  0.00  0.00    +0.000 OA
ATOM      3  N   UNL     1       3.420   5.806  17.989  0.00  0.00    +0.000 N 
ATOM      4  C   UNL     1       4.408   5.290  17.012  0.00  0.00    +0.000 A 
ATOM      5  C   UNL     1       4.980   6.046  15.976  0.00  0.00    +0.000 A 
ATOM      6  C   UNL     1       5.902   5.498  15.068  0.00  0.00    +0.000 A 
ATOM      7  C   UNL     1       6.275   4.166  15.158  0.00  0.00    +0.000 A 
ATOM      8  C   UNL     1       5.759   3.393  16.186  0.00  0.00    +0.000 A 
ATOM      9  C   UNL     1       4.864   3.957  17.107  0.00  0.00    +0.000 A 
ATOM     10  N   UNL     1       4.518   3.160  18.195  0.00  0.00    +0.000 N 
ATOM     11  C   UNL     1       3.653   3.580  19.154  0.00  0.00    +0.000 C 
ATOM     12  O   UNL     1       3.607   2.971  20.223  0.00  0.00    +0.000 OA
ATOM     13  C   UNL     1       2.659   4.689  18.724  0.00  0.00    +0.000 C 
ATOM     14  C   UNL     1       1.631   4.069  17.742  0.00  0.00    +0.000 C 
ATOM     15  C   UNL     1       1.874   5.004  20.015  0.00  0.00    +0.000 C 
ATOM     16  H   UNL     1       5.056   2.327  18.408  0.00  0.00    +0.000 HD
ENDROOT
BRANCH   1  17
ATOM     17  C   UNL     1       2.174   7.691  19.102  0.00  0.00    +0.000 C 
BRANCH  17  18
ATOM     18  S   UNL     1       1.537   9.365  18.833  0.00  0.00    +0.000 S 
BRANCH  18  23
ATOM     19  N   UNL     1      -0.465  10.343  20.481  0.00  0.00    +0.000 N 
ATOM     20  N   UNL     1      -0.580  10.675  21.797  0.00  0.00    +0.000 NA
ATOM     21  N   UNL     1       0.446  10.114  22.415  0.00  0.00    +0.000 NA
ATOM     22  N   UNL     1       1.287   9.498  21.526  0.00  0.00    +0.000 NA
ATOM     23  C   UNL     1       0.738   9.668  20.337  0.00  0.00    +0.000 A 
BRANCH  19  28
ATOM     24  C   UNL     1      -4.647  11.653  16.813  0.00  0.00    +0.000 C 
ATOM     25  C   UNL     1      -3.482  11.373  17.713  0.00  0.00    +0.000 A 
ATOM     26  C   UNL     1      -2.680  10.245  17.508  0.00  0.00    +0.000 A 
ATOM     27  C   UNL     1      -1.647   9.937  18.399  0.00  0.00    +0.000 A 
ATOM     28  C   UNL     1      -1.436  10.739  19.531  0.00  0.00    +0.000 A 
ATOM     29  C   UNL     1      -2.203  11.894  19.703  0.00  0.00    +0.000 A 
ATOM     30  C   UNL     1      -3.227  12.203  18.808  0.00  0.00    +0.000 A 
ENDBRANCH  19  28
ENDBRANCH  18  23
ENDBRANCH  17  18
ENDBRANCH   1  17
TORSDOF 4
ENDMDL
MODEL 6
REMARK VINA RESULT:      -8.1      1.032      1.131
REMARK  Name = 
REMARK  7 active torsions:
REMARK  status: ('A' for Active; 'I' for Inactive)
REMARK    1  A    between atoms: C_1  and  C_2
REMARK    2  A    between atoms: C_5  and  N_6
REMARK    3  A    between atoms: C_10  and  S_11
REMARK    4  A    between atoms: S_11  and  C_12
REMARK    5  A    between atoms: C_12  and  C_13
REMARK    6  A    between atoms: C_25  and  C_26
REMARK    7  A    between atoms: C_25  and  C_27
REMARK                            x       y       z     vdW  Elec       q    Type
REMARK                         _______ _______ _______ _____ _____    ______ ____
ROOT
ATOM      1  C   UNL     1       1.695   7.648  20.228  0.00  0.00    +0.000 C 
ATOM      2  O   UNL     1       1.427   7.012  21.251  0.00  0.00    +0.000 OA
ATOM      3  N   UNL     1       1.272   8.986  19.995  0.00  0.00    +0.000 N 
ATOM      4  C   UNL     1       0.487   9.704  21.026  0.00  0.00    +0.000 A 
ATOM      5  C   UNL     1      -0.020   9.118  22.198  0.00  0.00    +0.000 A 
ATOM      6  C   UNL     1      -0.772   9.847  23.135  0.00  0.00    +0.000 A 
ATOM      7  C   UNL     1      -1.055  11.187  22.925  0.00  0.00    +0.000 A 
ATOM      8  C   UNL     1      -0.546  11.812  21.797  0.00  0.00    +0.000 A 
ATOM      9  C   UNL     1       0.231  11.085  20.883  0.00  0.00    +0.000 A 
ATOM     10  N   UNL     1       0.832  11.821  19.866  0.00  0.00    +0.000 N 
ATOM     11  C   UNL     1       1.601  11.240  18.910  0.00  0.00    +0.000 C 
ATOM     12  O   UNL     1       2.333  11.951  18.221  0.00  0.00    +0.000 OA
ATOM     13  C   UNL     1       1.331   9.736  18.652  0.00  0.00    +0.000 C 
ATOM     14  C   UNL     1      -0.047   9.599  17.954  0.00  0.00    +0.000 C 
ATOM     15  C   UNL     1       2.383   9.347  17.592  0.00  0.00    +0.000 C 
ATOM     16  H   UNL     1       0.879  12.833  19.928  0.00  0.00    +0.000 HD
ENDROOT
BRANCH   1  17
ATOM     17  C   UNL     1       2.587   6.993  19.191  0.00  0.00    +0.000 C 
BRANCH  17  18
ATOM     18  S   UNL     1       1.786   5.677  18.240  0.00  0.00    +0.000 S 
BRANCH  18  23
ATOM     19  N   UNL     1       4.001   4.076  18.705  0.00  0.00    +0.000 N 
ATOM     20  N   UNL     1       4.225   2.755  18.947  0.00  0.00    +0.000 NA
ATOM     21  N   UNL     1       3.060   2.238  19.304  0.00  0.00    +0.000 NA
ATOM     22  N   UNL     1       2.055   3.164  19.212  0.00  0.00    +0.000 NA
ATOM     23  C   UNL     1       2.634   4.282  18.815  0.00  0.00    +0.000 A 
BRANCH  19  28
ATOM     24  C   UNL     1       8.006   7.934  17.389  0.00  0.00    +0.000 C 
ATOM     25  C   UNL     1       7.018   6.846  17.682  0.00  0.00    +0.000 A 
ATOM     26  C   UNL     1       5.941   6.613  16.819  0.00  0.00    +0.000 A 
ATOM     27  C   UNL     1       4.972   5.656  17.137  0.00  0.00    +0.000 A 
ATOM     28  C   UNL     1       5.054   4.951  18.347  0.00  0.00    +0.000 A 
ATOM     29  C   UNL     1       6.159   5.148  19.180  0.00  0.00    +0.000 A 
ATOM     30  C   UNL     1       7.128   6.097  18.856  0.00  0.00    +0.000 A 
ENDBRANCH  19  28
ENDBRANCH  18  23
ENDBRANCH  17  18
ENDBRANCH   1  17
TORSDOF 4
ENDMDL
MODEL 7
REMARK VINA RESULT:      -8.1      2.346      8.039
REMARK  Name = 
REMARK  7 active torsions:
REMARK  status: ('A' for Active; 'I' for Inactive)
REMARK    1  A    between atoms: C_1  and  C_2
REMARK    2  A    between atoms: C_5  and  N_6
REMARK    3  A    between atoms: C_10  and  S_11
REMARK    4  A    between atoms: S_11  and  C_12
REMARK    5  A    between atoms: C_12  and  C_13
REMARK    6  A    between atoms: C_25  and  C_26
REMARK    7  A    between atoms: C_25  and  C_27
REMARK                            x       y       z     vdW  Elec       q    Type
REMARK                         _______ _______ _______ _____ _____    ______ ____
ROOT
ATOM      1  C   UNL     1       2.380   7.047  19.628  0.00  0.00    +0.000 C 
ATOM      2  O   UNL     1       2.598   8.117  19.054  0.00  0.00    +0.000 OA
ATOM      3  N   UNL     1       2.897   5.796  19.193  0.00  0.00    +0.000 N 
ATOM      4  C   UNL     1       3.776   5.734  18.001  0.00  0.00    +0.000 A 
ATOM      5  C   UNL     1       4.042   6.815  17.145  0.00  0.00    +0.000 A 
ATOM      6  C   UNL     1       4.874   6.692  16.019  0.00  0.00    +0.000 A 
ATOM      7  C   UNL     1       5.459   5.477  15.702  0.00  0.00    +0.000 A 
ATOM      8  C   UNL     1       5.248   4.392  16.538  0.00  0.00    +0.000 A 
ATOM      9  C   UNL     1       4.443   4.531  17.678  0.00  0.00    +0.000 A 
ATOM     10  N   UNL     1       4.411   3.443  18.545  0.00  0.00    +0.000 N 
ATOM     11  C   UNL     1       3.664   3.442  19.679  0.00  0.00    +0.000 C 
ATOM     12  O   UNL     1       3.892   2.594  20.542  0.00  0.00    +0.000 OA
ATOM     13  C   UNL     1       2.452   4.407  19.686  0.00  0.00    +0.000 C 
ATOM     14  C   UNL     1       1.383   3.859  18.705  0.00  0.00    +0.000 C 
ATOM     15  C   UNL     1       1.854   4.242  21.099  0.00  0.00    +0.000 C 
ATOM     16  H   UNL     1       5.100   2.703  18.460  0.00  0.00    +0.000 HD
ENDROOT
BRANCH   1  17
ATOM     17  C   UNL     1       1.576   7.076  20.914  0.00  0.00    +0.000 C 
BRANCH  17  18
ATOM     18  S   UNL     1      -0.066   7.823  20.751  0.00  0.00    +0.000 S 
BRANCH  18  23
ATOM     19  N   UNL     1      -0.105  10.524  20.129  0.00  0.00    +0.000 N 
ATOM     20  N   UNL     1       0.654  11.612  20.431  0.00  0.00    +0.000 NA
ATOM     21  N   UNL     1       1.385  11.278  21.482  0.00  0.00    +0.000 NA
ATOM     22  N   UNL     1       1.195   9.965  21.824  0.00  0.00    +0.000 NA
ATOM     23  C   UNL     1       0.303   9.499  20.970  0.00  0.00    +0.000 A 
BRANCH  19  28
ATOM     24  C   UNL     1      -3.747  10.998  15.751  0.00  0.00    +0.000 C 
ATOM     25  C   UNL     1      -2.855  10.789  16.936  0.00  0.00    +0.000 A 
ATOM     26  C   UNL     1      -3.057  11.516  18.115  0.00  0.00    +0.000 A 
ATOM     27  C   UNL     1      -2.172  11.385  19.190  0.00  0.00    +0.000 A 
ATOM     28  C   UNL     1      -1.050  10.550  19.076  0.00  0.00    +0.000 A 
ATOM     29  C   UNL     1      -0.881   9.785  17.919  0.00  0.00    +0.000 A 
ATOM     30  C   UNL     1      -1.770   9.912  16.852  0.00  0.00    +0.000 A 
ENDBRANCH  19  28
ENDBRANCH  18  23
ENDBRANCH  17  18
ENDBRANCH   1  17
TORSDOF 4
ENDMDL
MODEL 8
REMARK VINA RESULT:      -8.0      2.567      8.279
REMARK  Name = 
REMARK  7 active torsions:
REMARK  status: ('A' for Active; 'I' for Inactive)
REMARK    1  A    between atoms: C_1  and  C_2
REMARK    2  A    between atoms: C_5  and  N_6
REMARK    3  A    between atoms: C_10  and  S_11
REMARK    4  A    between atoms: S_11  and  C_12
REMARK    5  A    between atoms: C_12  and  C_13
REMARK    6  A    between atoms: C_25  and  C_26
REMARK    7  A    between atoms: C_25  and  C_27
REMARK                            x       y       z     vdW  Elec       q    Type
REMARK                         _______ _______ _______ _____ _____    ______ ____
ROOT
ATOM      1  C   UNL     1       3.081   7.369  17.911  0.00  0.00    +0.000 C 
ATOM      2  O   UNL     1       3.562   8.174  17.111  0.00  0.00    +0.000 OA
ATOM      3  N   UNL     1       3.408   5.985  17.935  0.00  0.00    +0.000 N 
ATOM      4  C   UNL     1       4.402   5.444  16.978  0.00  0.00    +0.000 A 
ATOM      5  C   UNL     1       4.968   6.169  15.917  0.00  0.00    +0.000 A 
ATOM      6  C   UNL     1       5.898   5.597  15.030  0.00  0.00    +0.000 A 
ATOM      7  C   UNL     1       6.283   4.273  15.168  0.00  0.00    +0.000 A 
ATOM      8  C   UNL     1       5.773   3.532  16.222  0.00  0.00    +0.000 A 
ATOM      9  C   UNL     1       4.871   4.119  17.121  0.00  0.00    +0.000 A 
ATOM     10  N   UNL     1       4.531   3.359  18.236  0.00  0.00    +0.000 N 
ATOM     11  C   UNL     1       3.661   3.804  19.178  0.00  0.00    +0.000 C 
ATOM     12  O   UNL     1       3.618   3.232  20.268  0.00  0.00    +0.000 OA
ATOM     13  C   UNL     1       2.656   4.886  18.708  0.00  0.00    +0.000 C 
ATOM     14  C   UNL     1       1.636   4.222  17.747  0.00  0.00    +0.000 C 
ATOM     15  C   UNL     1       1.866   5.240  19.985  0.00  0.00    +0.000 C 
ATOM     16  H   UNL     1       5.077   2.539  18.479  0.00  0.00    +0.000 HD
ENDROOT
BRANCH   1  17
ATOM     17  C   UNL     1       2.140   7.895  18.979  0.00  0.00    +0.000 C 
BRANCH  17  18
ATOM     18  S   UNL     1       1.334   9.461  18.558  0.00  0.00    +0.000 S 
BRANCH  18  23
ATOM     19  N   UNL     1       0.872  11.314  20.567  0.00  0.00    +0.000 N 
ATOM     20  N   UNL     1       0.710  11.279  21.919  0.00  0.00    +0.000 NA
ATOM     21  N   UNL     1       0.448  10.020  22.231  0.00  0.00    +0.000 NA
ATOM     22  N   UNL     1       0.526   9.208  21.130  0.00  0.00    +0.000 NA
ATOM     23  C   UNL     1       0.816  10.003  20.118  0.00  0.00    +0.000 A 
BRANCH  19  28
ATOM     24  C   UNL     1       1.981  16.385  18.177  0.00  0.00    +0.000 C 
ATOM     25  C   UNL     1       1.642  15.026  18.708  0.00  0.00    +0.000 A 
ATOM     26  C   UNL     1       0.454  14.816  19.417  0.00  0.00    +0.000 A 
ATOM     27  C   UNL     1       0.179  13.568  19.987  0.00  0.00    +0.000 A 
ATOM     28  C   UNL     1       1.115  12.529  19.883  0.00  0.00    +0.000 A 
ATOM     29  C   UNL     1       2.275  12.726  19.129  0.00  0.00    +0.000 A 
ATOM     30  C   UNL     1       2.542  13.968  18.555  0.00  0.00    +0.000 A 
ENDBRANCH  19  28
ENDBRANCH  18  23
ENDBRANCH  17  18
ENDBRANCH   1  17
TORSDOF 4
ENDMDL
MODEL 9
REMARK VINA RESULT:      -7.8      2.303      8.076
REMARK  Name = 
REMARK  7 active torsions:
REMARK  status: ('A' for Active; 'I' for Inactive)
REMARK    1  A    between atoms: C_1  and  C_2
REMARK    2  A    between atoms: C_5  and  N_6
REMARK    3  A    between atoms: C_10  and  S_11
REMARK    4  A    between atoms: S_11  and  C_12
REMARK    5  A    between atoms: C_12  and  C_13
REMARK    6  A    between atoms: C_25  and  C_26
REMARK    7  A    between atoms: C_25  and  C_27
REMARK                            x       y       z     vdW  Elec       q    Type
REMARK                         _______ _______ _______ _____ _____    ______ ____
ROOT
ATOM      1  C   UNL     1       2.508   7.058  19.154  0.00  0.00    +0.000 C 
ATOM      2  O   UNL     1       1.721   7.174  20.097  0.00  0.00    +0.000 OA
ATOM      3  N   UNL     1       3.256   5.878  18.887  0.00  0.00    +0.000 N 
ATOM      4  C   UNL     1       3.086   4.685  19.750  0.00  0.00    +0.000 A 
ATOM      5  C   UNL     1       2.335   4.655  20.937  0.00  0.00    +0.000 A 
ATOM      6  C   UNL     1       2.223   3.496  21.724  0.00  0.00    +0.000 A 
ATOM      7  C   UNL     1       2.871   2.327  21.357  0.00  0.00    +0.000 A 
ATOM      8  C   UNL     1       3.596   2.305  20.176  0.00  0.00    +0.000 A 
ATOM      9  C   UNL     1       3.677   3.457  19.380  0.00  0.00    +0.000 A 
ATOM     10  N   UNL     1       4.288   3.304  18.138  0.00  0.00    +0.000 N 
ATOM     11  C   UNL     1       4.441   4.341  17.275  0.00  0.00    +0.000 C 
ATOM     12  O   UNL     1       4.717   4.101  16.099  0.00  0.00    +0.000 OA
ATOM     13  C   UNL     1       4.441   5.754  17.913  0.00  0.00    +0.000 C 
ATOM     14  C   UNL     1       5.756   5.928  18.717  0.00  0.00    +0.000 C 
ATOM     15  C   UNL     1       4.554   6.707  16.705  0.00  0.00    +0.000 C 
ATOM     16  H   UNL     1       4.454   2.377  17.762  0.00  0.00    +0.000 HD
ENDROOT
BRANCH   1  17
ATOM     17  C   UNL     1       2.634   8.215  18.181  0.00  0.00    +0.000 C 
BRANCH  17  18
ATOM     18  S   UNL     1       1.161   9.263  18.071  0.00  0.00    +0.000 S 
BRANCH  18  23
ATOM     19  N   UNL     1       1.313  11.813  19.147  0.00  0.00    +0.000 N 
ATOM     20  N   UNL     1       1.921  12.985  18.815  0.00  0.00    +0.000 NA
ATOM     21  N   UNL     1       2.852  12.683  17.925  0.00  0.00    +0.000 NA
ATOM     22  N   UNL     1       2.812  11.355  17.592  0.00  0.00    +0.000 NA
ATOM     23  C   UNL     1       1.845  10.832  18.322  0.00  0.00    +0.000 A 
BRANCH  19  28
ATOM     24  C   UNL     1      -2.585  11.876  23.325  0.00  0.00    +0.000 C 
ATOM     25  C   UNL     1      -1.620  11.775  22.184  0.00  0.00    +0.000 A 
ATOM     26  C   UNL     1      -0.464  10.993  22.298  0.00  0.00    +0.000 A 
ATOM     27  C   UNL     1       0.480  10.968  21.266  0.00  0.00    +0.000 A 
ATOM     28  C   UNL     1       0.291  11.761  20.124  0.00  0.00    +0.000 A 
ATOM     29  C   UNL     1      -0.890  12.497  19.990  0.00  0.00    +0.000 A 
ATOM     30  C   UNL     1      -1.832  12.514  21.018  0.00  0.00    +0.000 A 
ENDBRANCH  19  28
ENDBRANCH  18  23
ENDBRANCH  17  18
ENDBRANCH   1  17
TORSDOF 4
ENDMDL
