MODEL 1
REMARK VINA RESULT:      -7.1      0.000      0.000
REMARK  Name = 
REMARK  8 active torsions:
REMARK  status: ('A' for Active; 'I' for Inactive)
REMARK    1  A    between atoms: C_1  and  O_2
REMARK    2  A    between atoms: O_2  and  C_3
REMARK    3  A    between atoms: C_5  and  C_6
REMARK    4  A    between atoms: C_6  and  C_7
REMARK    5  A    between atoms: C_6  and  C_8
REMARK    6  A    between atoms: C_9  and  O_10
REMARK    7  A    between atoms: O_10  and  C_11
REMARK    8  A    between atoms: C_17  and  N_18
REMARK                            x       y       z     vdW  Elec       q    Type
REMARK                         _______ _______ _______ _____ _____    ______ ____
ROOT
ATOM      1  O   UNL     1       4.342   3.884  18.176  0.00  0.00    +0.000 OA
ENDROOT
BRANCH   1   2
ATOM      2  C   UNL     1       5.168   4.236  17.138  0.00  0.00    +0.000 A 
ATOM      3  C   UNL     1       4.789   4.270  15.813  0.00  0.00    +0.000 A 
ATOM      4  N   UNL     1       5.591   4.681  14.813  0.00  0.00    +0.000 NA
ATOM      5  C   UNL     1       6.837   5.005  15.154  0.00  0.00    +0.000 A 
ATOM      6  N   UNL     1       7.658   5.483  14.152  0.00  0.00    +0.000 N 
ATOM      7  N   UNL     1       7.331   4.958  16.396  0.00  0.00    +0.000 NA
ATOM      8  C   UNL     1       6.495   4.560  17.373  0.00  0.00    +0.000 A 
ATOM      9  H   UNL     1       7.091   5.856  13.399  0.00  0.00    +0.000 HD
ATOM     10  H   UNL     1       8.369   6.080  14.544  0.00  0.00    +0.000 HD
BRANCH   8  11
ATOM     11  N   UNL     1       7.069   4.434  18.641  0.00  0.00    +0.000 N 
ATOM     12  H   UNL     1       6.383   4.013  19.263  0.00  0.00    +0.000 HD
ATOM     13  H   UNL     1       7.951   3.938  18.620  0.00  0.00    +0.000 HD
ENDBRANCH   8  11
ENDBRANCH   1   2
BRANCH   1  17
ATOM     14  C   UNL     1       1.772   6.771  19.845  0.00  0.00    +0.000 A 
ATOM     15  C   UNL     1       1.884   5.477  20.387  0.00  0.00    +0.000 A 
ATOM     16  C   UNL     1       2.719   4.487  19.831  0.00  0.00    +0.000 A 
ATOM     17  C   UNL     1       3.485   4.835  18.705  0.00  0.00    +0.000 A 
ATOM     18  C   UNL     1       3.430   6.144  18.202  0.00  0.00    +0.000 A 
ATOM     19  C   UNL     1       2.563   7.104  18.745  0.00  0.00    +0.000 A 
ATOM     20 BR   UNL     1       2.654   8.815  17.927  0.00  0.00    +0.000 Br
BRANCH  16  21
ATOM     21  C   UNL     1       2.841   3.107  20.473  0.00  0.00    +0.000 C 
ATOM     22  C   UNL     1       2.208   3.115  21.866  0.00  0.00    +0.000 C 
ATOM     23  C   UNL     1       2.252   1.964  19.638  0.00  0.00    +0.000 C 
ENDBRANCH  16  21
BRANCH  14  25
ATOM     24  C   UNL     1       1.527   8.453  21.534  0.00  0.00    +0.000 C 
ATOM     25  O   UNL     1       0.944   7.579  20.578  0.00  0.00    +0.000 OA
ENDBRANCH  14  25
ENDBRANCH   1  17
TORSDOF 5
ENDMDL
MODEL 2
REMARK VINA RESULT:      -7.0      3.826      5.823
REMARK  Name = 
REMARK  8 active torsions:
REMARK  status: ('A' for Active; 'I' for Inactive)
REMARK    1  A    between atoms: C_1  and  O_2
REMARK    2  A    between atoms: O_2  and  C_3
REMARK    3  A    between atoms: C_5  and  C_6
REMARK    4  A    between atoms: C_6  and  C_7
REMARK    5  A    between atoms: C_6  and  C_8
REMARK    6  A    between atoms: C_9  and  O_10
REMARK    7  A    between atoms: O_10  and  C_11
REMARK    8  A    between atoms: C_17  and  N_18
REMARK                            x       y       z     vdW  Elec       q    Type
REMARK                         _______ _______ _______ _____ _____    ______ ____
ROOT
ATOM      1  O   UNL     1       2.861   6.232  19.467  0.00  0.00    +0.000 OA
ENDROOT
BRANCH   1   2
ATOM      2  C   UNL     1       2.304   7.443  19.141  0.00  0.00    +0.000 A 
ATOM      3  C   UNL     1       2.336   8.006  17.883  0.00  0.00    +0.000 A 
ATOM      4  N   UNL     1       1.727   9.164  17.564  0.00  0.00    +0.000 NA
ATOM      5  C   UNL     1       1.125   9.806  18.562  0.00  0.00    +0.000 A 
ATOM      6  N   UNL     1       0.447  10.966  18.244  0.00  0.00    +0.000 N 
ATOM      7  N   UNL     1       1.076   9.384  19.830  0.00  0.00    +0.000 NA
ATOM      8  C   UNL     1       1.679   8.213  20.109  0.00  0.00    +0.000 A 
ATOM      9  H   UNL     1       0.204  10.958  17.259  0.00  0.00    +0.000 HD
ATOM     10  H   UNL     1      -0.294  11.127  18.908  0.00  0.00    +0.000 HD
BRANCH   8  11
ATOM     11  N   UNL     1       1.690   7.850  21.458  0.00  0.00    +0.000 N 
ATOM     12  H   UNL     1       1.924   8.671  22.010  0.00  0.00    +0.000 HD
ATOM     13  H   UNL     1       0.827   7.404  21.747  0.00  0.00    +0.000 HD
ENDBRANCH   8  11
ENDBRANCH   1   2
BRANCH   1  17
ATOM     14  C   UNL     1       5.985   4.742  17.069  0.00  0.00    +0.000 A 
ATOM     15  C   UNL     1       4.801   4.012  17.281  0.00  0.00    +0.000 A 
ATOM     16  C   UNL     1       3.751   4.480  18.099  0.00  0.00    +0.000 A 
ATOM     17  C   UNL     1       3.903   5.742  18.697  0.00  0.00    +0.000 A 
ATOM     18  C   UNL     1       5.051   6.505  18.434  0.00  0.00    +0.000 A 
ATOM     19  C   UNL     1       6.101   6.006  17.649  0.00  0.00    +0.000 A 
ATOM     20 BR   UNL     1       7.555   7.202  17.406  0.00  0.00    +0.000 Br
BRANCH  16  21
ATOM     21  C   UNL     1       2.467   3.674  18.270  0.00  0.00    +0.000 C 
ATOM     22  C   UNL     1       1.341   4.290  17.436  0.00  0.00    +0.000 C 
ATOM     23  C   UNL     1       2.604   2.182  17.941  0.00  0.00    +0.000 C 
ENDBRANCH  16  21
BRANCH  14  25
ATOM     24  C   UNL     1       6.740   4.428  14.817  0.00  0.00    +0.000 C 
ATOM     25  O   UNL     1       6.839   4.119  16.200  0.00  0.00    +0.000 OA
ENDBRANCH  14  25
ENDBRANCH   1  17
TORSDOF 5
ENDMDL
MODEL 3
REMARK VINA RESULT:      -7.0      3.439      6.409
REMARK  Name = 
REMARK  8 active torsions:
REMARK  status: ('A' for Active; 'I' for Inactive)
REMARK    1  A    between atoms: C_1  and  O_2
REMARK    2  A    between atoms: O_2  and  C_3
REMARK    3  A    between atoms: C_5  and  C_6
REMARK    4  A    between atoms: C_6  and  C_7
REMARK    5  A    between atoms: C_6  and  C_8
REMARK    6  A    between atoms: C_9  and  O_10
REMARK    7  A    between atoms: O_10  and  C_11
REMARK    8  A    between atoms: C_17  and  N_18
REMARK                            x       y       z     vdW  Elec       q    Type
REMARK                         _______ _______ _______ _____ _____    ______ ____
ROOT
ATOM      1  O   UNL     1       4.439   5.574  17.744  0.00  0.00    +0.000 OA
ENDROOT
BRANCH   1   2
ATOM      2  C   UNL     1       3.530   4.582  18.013  0.00  0.00    +0.000 A 
ATOM      3  C   UNL     1       2.192   4.638  17.690  0.00  0.00    +0.000 A 
ATOM      4  N   UNL     1       1.326   3.628  17.901  0.00  0.00    +0.000 NA
ATOM      5  C   UNL     1       1.814   2.554  18.517  0.00  0.00    +0.000 A 
ATOM      6  N   UNL     1       0.957   1.486  18.691  0.00  0.00    +0.000 N 
ATOM      7  N   UNL     1       3.080   2.409  18.925  0.00  0.00    +0.000 NA
ATOM      8  C   UNL     1       3.922   3.432  18.681  0.00  0.00    +0.000 A 
ATOM      9  H   UNL     1       0.207   1.538  18.010  0.00  0.00    +0.000 HD
ATOM     10  H   UNL     1       1.481   0.627  18.746  0.00  0.00    +0.000 HD
BRANCH   8  11
ATOM     11  N   UNL     1       5.210   3.286  19.201  0.00  0.00    +0.000 N 
ATOM     12  H   UNL     1       5.550   2.358  18.960  0.00  0.00    +0.000 HD
ATOM     13  H   UNL     1       5.833   4.030  18.912  0.00  0.00    +0.000 HD
ENDBRANCH   8  11
ENDBRANCH   1   2
BRANCH   1  17
ATOM     14  C   UNL     1       7.129   5.064  14.546  0.00  0.00    +0.000 A 
ATOM     15  C   UNL     1       7.493   5.753  15.717  0.00  0.00    +0.000 A 
ATOM     16  C   UNL     1       6.602   5.957  16.791  0.00  0.00    +0.000 A 
ATOM     17  C   UNL     1       5.309   5.418  16.678  0.00  0.00    +0.000 A 
ATOM     18  C   UNL     1       4.962   4.671  15.543  0.00  0.00    +0.000 A 
ATOM     19  C   UNL     1       5.850   4.512  14.468  0.00  0.00    +0.000 A 
ATOM     20 BR   UNL     1       5.189   3.454  13.036  0.00  0.00    +0.000 Br
BRANCH  16  21
ATOM     21  C   UNL     1       7.050   6.676  18.061  0.00  0.00    +0.000 C 
ATOM     22  C   UNL     1       7.843   5.722  18.957  0.00  0.00    +0.000 C 
ATOM     23  C   UNL     1       7.861   7.955  17.814  0.00  0.00    +0.000 C 
ENDBRANCH  16  21
BRANCH  14  25
ATOM     24  C   UNL     1       8.207   5.817  12.543  0.00  0.00    +0.000 C 
ATOM     25  O   UNL     1       8.167   4.942  13.662  0.00  0.00    +0.000 OA
ENDBRANCH  14  25
ENDBRANCH   1  17
TORSDOF 5
ENDMDL
MODEL 4
REMARK VINA RESULT:      -6.8      3.511      5.904
REMARK  Name = 
REMARK  8 active torsions:
REMARK  status: ('A' for Active; 'I' for Inactive)
REMARK    1  A    between atoms: C_1  and  O_2
REMARK    2  A    between atoms: O_2  and  C_3
REMARK    3  A    between atoms: C_5  and  C_6
REMARK    4  A    between atoms: C_6  and  C_7
REMARK    5  A    between atoms: C_6  and  C_8
REMARK    6  A    between atoms: C_9  and  O_10
REMARK    7  A    between atoms: O_10  and  C_11
REMARK    8  A    between atoms: C_17  and  N_18
REMARK                            x       y       z     vdW  Elec       q    Type
REMARK                         _______ _______ _______ _____ _____    ______ ____
ROOT
ATOM      1  O   UNL     1       2.099   4.893  17.820  0.00  0.00    +0.000 OA
ENDROOT
BRANCH   1   2
ATOM      2  C   UNL     1       1.987   4.185  18.990  0.00  0.00    +0.000 A 
ATOM      3  C   UNL     1       1.958   4.749  20.247  0.00  0.00    +0.000 A 
ATOM      4  N   UNL     1       1.781   4.046  21.382  0.00  0.00    +0.000 NA
ATOM      5  C   UNL     1       1.698   2.724  21.247  0.00  0.00    +0.000 A 
ATOM      6  N   UNL     1       1.459   1.990  22.392  0.00  0.00    +0.000 N 
ATOM      7  N   UNL     1       1.768   2.063  20.086  0.00  0.00    +0.000 NA
ATOM      8  C   UNL     1       1.927   2.800  18.971  0.00  0.00    +0.000 A 
ATOM      9  H   UNL     1       1.025   2.584  23.091  0.00  0.00    +0.000 HD
ATOM     10  H   UNL     1       0.997   1.126  22.158  0.00  0.00    +0.000 HD
BRANCH   8  11
ATOM     11  N   UNL     1       2.090   2.072  17.789  0.00  0.00    +0.000 N 
ATOM     12  H   UNL     1       2.770   2.554  17.208  0.00  0.00    +0.000 HD
ATOM     13  H   UNL     1       2.322   1.102  17.959  0.00  0.00    +0.000 HD
ENDBRANCH   8  11
ENDBRANCH   1   2
BRANCH   1  17
ATOM     14  C   UNL     1       5.733   6.864  17.020  0.00  0.00    +0.000 A 
ATOM     15  C   UNL     1       4.591   7.562  17.455  0.00  0.00    +0.000 A 
ATOM     16  C   UNL     1       3.357   6.927  17.706  0.00  0.00    +0.000 A 
ATOM     17  C   UNL     1       3.293   5.534  17.534  0.00  0.00    +0.000 A 
ATOM     18  C   UNL     1       4.446   4.823  17.168  0.00  0.00    +0.000 A 
ATOM     19  C   UNL     1       5.654   5.477  16.885  0.00  0.00    +0.000 A 
ATOM     20 BR   UNL     1       7.094   4.330  16.421  0.00  0.00    +0.000 Br
BRANCH  16  21
ATOM     21  C   UNL     1       2.154   7.716  18.214  0.00  0.00    +0.000 C 
ATOM     22  C   UNL     1       2.184   7.800  19.742  0.00  0.00    +0.000 C 
ATOM     23  C   UNL     1       2.018   9.123  17.617  0.00  0.00    +0.000 C 
ENDBRANCH  16  21
BRANCH  14  25
ATOM     24  C   UNL     1       7.807   7.656  17.920  0.00  0.00    +0.000 C 
ATOM     25  O   UNL     1       6.828   7.674  16.890  0.00  0.00    +0.000 OA
ENDBRANCH  14  25
ENDBRANCH   1  17
TORSDOF 5
ENDMDL
MODEL 5
REMARK VINA RESULT:      -6.8      2.350      3.575
REMARK  Name = 
REMARK  8 active torsions:
REMARK  status: ('A' for Active; 'I' for Inactive)
REMARK    1  A    between atoms: C_1  and  O_2
REMARK    2  A    between atoms: O_2  and  C_3
REMARK    3  A    between atoms: C_5  and  C_6
REMARK    4  A    between atoms: C_6  and  C_7
REMARK    5  A    between atoms: C_6  and  C_8
REMARK    6  A    between atoms: C_9  and  O_10
REMARK    7  A    between atoms: O_10  and  C_11
REMARK    8  A    between atoms: C_17  and  N_18
REMARK                            x       y       z     vdW  Elec       q    Type
REMARK                         _______ _______ _______ _____ _____    ______ ____
ROOT
ATOM      1  O   UNL     1       5.306   5.948  18.352  0.00  0.00    +0.000 OA
ENDROOT
BRANCH   1   2
ATOM      2  C   UNL     1       5.822   5.704  17.104  0.00  0.00    +0.000 A 
ATOM      3  C   UNL     1       5.205   6.049  15.921  0.00  0.00    +0.000 A 
ATOM      4  N   UNL     1       5.756   5.863  14.706  0.00  0.00    +0.000 NA
ATOM      5  C   UNL     1       6.936   5.248  14.683  0.00  0.00    +0.000 A 
ATOM      6  N   UNL     1       7.543   5.099  13.451  0.00  0.00    +0.000 N 
ATOM      7  N   UNL     1       7.603   4.821  15.761  0.00  0.00    +0.000 NA
ATOM      8  C   UNL     1       7.031   5.041  16.960  0.00  0.00    +0.000 A 
ATOM      9  H   UNL     1       7.178   5.793  12.808  0.00  0.00    +0.000 HD
ATOM     10  H   UNL     1       8.543   5.044  13.563  0.00  0.00    +0.000 HD
BRANCH   8  11
ATOM     11  N   UNL     1       7.709   4.500  18.057  0.00  0.00    +0.000 N 
ATOM     12  H   UNL     1       7.367   4.953  18.900  0.00  0.00    +0.000 HD
ATOM     13  H   UNL     1       7.648   3.490  18.090  0.00  0.00    +0.000 HD
ENDBRANCH   8  11
ENDBRANCH   1   2
BRANCH   1  17
ATOM     14  C   UNL     1       2.366   3.341  19.865  0.00  0.00    +0.000 A 
ATOM     15  C   UNL     1       2.188   4.737  19.863  0.00  0.00    +0.000 A 
ATOM     16  C   UNL     1       3.168   5.631  19.384  0.00  0.00    +0.000 A 
ATOM     17  C   UNL     1       4.354   5.083  18.866  0.00  0.00    +0.000 A 
ATOM     18  C   UNL     1       4.509   3.689  18.802  0.00  0.00    +0.000 A 
ATOM     19  C   UNL     1       3.539   2.818  19.319  0.00  0.00    +0.000 A 
ATOM     20 BR   UNL     1       3.936   0.972  19.120  0.00  0.00    +0.000 Br
BRANCH  16  21
ATOM     21  C   UNL     1       2.919   7.136  19.363  0.00  0.00    +0.000 C 
ATOM     22  C   UNL     1       2.481   7.580  17.964  0.00  0.00    +0.000 C 
ATOM     23  C   UNL     1       1.908   7.627  20.406  0.00  0.00    +0.000 C 
ENDBRANCH  16  21
BRANCH  14  25
ATOM     24  C   UNL     1       1.129   2.483  21.729  0.00  0.00    +0.000 C 
ATOM     25  O   UNL     1       1.266   2.671  20.327  0.00  0.00    +0.000 OA
ENDBRANCH  14  25
ENDBRANCH   1  17
TORSDOF 5
ENDMDL
MODEL 6
REMARK VINA RESULT:      -6.6      4.268      6.406
REMARK  Name = 
REMARK  8 active torsions:
REMARK  status: ('A' for Active; 'I' for Inactive)
REMARK    1  A    between atoms: C_1  and  O_2
REMARK    2  A    between atoms: O_2  and  C_3
REMARK    3  A    between atoms: C_5  and  C_6
REMARK    4  A    between atoms: C_6  and  C_7
REMARK    5  A    between atoms: C_6  and  C_8
REMARK    6  A    between atoms: C_9  and  O_10
REMARK    7  A    between atoms: O_10  and  C_11
REMARK    8  A    between atoms: C_17  and  N_18
REMARK                            x       y       z     vdW  Elec       q    Type
REMARK                         _______ _______ _______ _____ _____    ______ ____
ROOT
ATOM      1  O   UNL     1       3.174   7.479  19.144  0.00  0.00    +0.000 OA
ENDROOT
BRANCH   1   2
ATOM      2  C   UNL     1       2.090   8.318  19.078  0.00  0.00    +0.000 A 
ATOM      3  C   UNL     1       1.647   8.935  17.928  0.00  0.00    +0.000 A 
ATOM      4  N   UNL     1       0.542   9.703  17.867  0.00  0.00    +0.000 NA
ATOM      5  C   UNL     1      -0.096   9.908  19.017  0.00  0.00    +0.000 A 
ATOM      6  N   UNL     1      -1.262  10.646  18.965  0.00  0.00    +0.000 N 
ATOM      7  N   UNL     1       0.273   9.407  20.201  0.00  0.00    +0.000 NA
ATOM      8  C   UNL     1       1.371   8.629  20.221  0.00  0.00    +0.000 A 
ATOM      9  H   UNL     1      -1.645  10.608  18.027  0.00  0.00    +0.000 HD
ATOM     10  H   UNL     1      -1.867  10.389  19.729  0.00  0.00    +0.000 HD
BRANCH   8  11
ATOM     11  N   UNL     1       1.780   8.199  21.487  0.00  0.00    +0.000 N 
ATOM     12  H   UNL     1       1.776   7.183  21.497  0.00  0.00    +0.000 HD
ATOM     13  H   UNL     1       2.667   8.601  21.765  0.00  0.00    +0.000 HD
ENDBRANCH   8  11
ENDBRANCH   1   2
BRANCH   1  17
ATOM     14  C   UNL     1       2.787   3.447  17.993  0.00  0.00    +0.000 A 
ATOM     15  C   UNL     1       3.740   4.298  17.402  0.00  0.00    +0.000 A 
ATOM     16  C   UNL     1       3.872   5.657  17.754  0.00  0.00    +0.000 A 
ATOM     17  C   UNL     1       3.025   6.157  18.758  0.00  0.00    +0.000 A 
ATOM     18  C   UNL     1       2.121   5.296  19.400  0.00  0.00    +0.000 A 
ATOM     19  C   UNL     1       1.978   3.957  19.008  0.00  0.00    +0.000 A 
ATOM     20 BR   UNL     1       0.710   2.962  20.013  0.00  0.00    +0.000 Br
BRANCH  16  21
ATOM     21  C   UNL     1       4.945   6.536  17.117  0.00  0.00    +0.000 C 
ATOM     22  C   UNL     1       6.285   6.334  17.829  0.00  0.00    +0.000 C 
ATOM     23  C   UNL     1       5.120   6.330  15.607  0.00  0.00    +0.000 C 
ENDBRANCH  16  21
BRANCH  14  25
ATOM     24  C   UNL     1       3.686   1.242  18.253  0.00  0.00    +0.000 C 
ATOM     25  O   UNL     1       2.875   2.160  17.534  0.00  0.00    +0.000 OA
ENDBRANCH  14  25
ENDBRANCH   1  17
TORSDOF 5
ENDMDL
MODEL 7
REMARK VINA RESULT:      -6.5      1.553      2.285
REMARK  Name = 
REMARK  8 active torsions:
REMARK  status: ('A' for Active; 'I' for Inactive)
REMARK    1  A    between atoms: C_1  and  O_2
REMARK    2  A    between atoms: O_2  and  C_3
REMARK    3  A    between atoms: C_5  and  C_6
REMARK    4  A    between atoms: C_6  and  C_7
REMARK    5  A    between atoms: C_6  and  C_8
REMARK    6  A    between atoms: C_9  and  O_10
REMARK    7  A    between atoms: O_10  and  C_11
REMARK    8  A    between atoms: C_17  and  N_18
REMARK                            x       y       z     vdW  Elec       q    Type
REMARK                         _______ _______ _______ _____ _____    ______ ____
ROOT
ATOM      1  O   UNL     1       3.185   5.496  17.461  0.00  0.00    +0.000 OA
ENDROOT
BRANCH   1   2
ATOM      2  C   UNL     1       4.522   5.225  17.608  0.00  0.00    +0.000 A 
ATOM      3  C   UNL     1       5.064   4.496  18.644  0.00  0.00    +0.000 A 
ATOM      4  N   UNL     1       6.371   4.183  18.739  0.00  0.00    +0.000 NA
ATOM      5  C   UNL     1       7.164   4.679  17.792  0.00  0.00    +0.000 A 
ATOM      6  N   UNL     1       8.497   4.321  17.840  0.00  0.00    +0.000 N 
ATOM      7  N   UNL     1       6.760   5.442  16.771  0.00  0.00    +0.000 NA
ATOM      8  C   UNL     1       5.444   5.720  16.698  0.00  0.00    +0.000 A 
ATOM      9  H   UNL     1       8.598   3.458  18.362  0.00  0.00    +0.000 HD
ATOM     10  H   UNL     1       8.898   4.360  16.916  0.00  0.00    +0.000 HD
BRANCH   8  11
ATOM     11  N   UNL     1       5.071   6.595  15.674  0.00  0.00    +0.000 N 
ATOM     12  H   UNL     1       4.388   6.126  15.085  0.00  0.00    +0.000 HD
ATOM     13  H   UNL     1       4.753   7.489  16.025  0.00  0.00    +0.000 HD
ENDBRANCH   8  11
ENDBRANCH   1   2
BRANCH   1  17
ATOM     14  C   UNL     1       1.429   8.299  20.066  0.00  0.00    +0.000 A 
ATOM     15  C   UNL     1       1.522   6.935  20.399  0.00  0.00    +0.000 A 
ATOM     16  C   UNL     1       2.084   5.974  19.533  0.00  0.00    +0.000 A 
ATOM     17  C   UNL     1       2.591   6.423  18.301  0.00  0.00    +0.000 A 
ATOM     18  C   UNL     1       2.563   7.792  17.993  0.00  0.00    +0.000 A 
ATOM     19  C   UNL     1       1.965   8.726  18.851  0.00  0.00    +0.000 A 
ATOM     20 BR   UNL     1       2.047  10.527  18.252  0.00  0.00    +0.000 Br
BRANCH  16  21
ATOM     21  C   UNL     1       2.202   4.511  19.949  0.00  0.00    +0.000 C 
ATOM     22  C   UNL     1       2.304   4.402  21.473  0.00  0.00    +0.000 C 
ATOM     23  C   UNL     1       1.071   3.611  19.436  0.00  0.00    +0.000 C 
ENDBRANCH  16  21
BRANCH  14  25
ATOM     24  C   UNL     1      -0.291   8.592  21.708  0.00  0.00    +0.000 C 
ATOM     25  O   UNL     1       0.896   9.052  21.077  0.00  0.00    +0.000 OA
ENDBRANCH  14  25
ENDBRANCH   1  17
TORSDOF 5
ENDMDL
MODEL 8
REMARK VINA RESULT:      -6.5      1.473      1.591
REMARK  Name = 
REMARK  8 active torsions:
REMARK  status: ('A' for Active; 'I' for Inactive)
REMARK    1  A    between atoms: C_1  and  O_2
REMARK    2  A    between atoms: O_2  and  C_3
REMARK    3  A    between atoms: C_5  and  C_6
REMARK    4  A    between atoms: C_6  and  C_7
REMARK    5  A    between atoms: C_6  and  C_8
REMARK    6  A    between atoms: C_9  and  O_10
REMARK    7  A    between atoms: O_10  and  C_11
REMARK    8  A    between atoms: C_17  and  N_18
REMARK                            x       y       z     vdW  Elec       q    Type
REMARK                         _______ _______ _______ _____ _____    ______ ____
ROOT
ATOM      1  O   UNL     1       2.831   4.914  17.542  0.00  0.00    +0.000 OA
ENDROOT
BRANCH   1   2
ATOM      2  C   UNL     1       4.056   5.058  16.940  0.00  0.00    +0.000 A 
ATOM      3  C   UNL     1       4.500   6.215  16.337  0.00  0.00    +0.000 A 
ATOM      4  N   UNL     1       5.730   6.361  15.808  0.00  0.00    +0.000 NA
ATOM      5  C   UNL     1       6.511   5.283  15.830  0.00  0.00    +0.000 A 
ATOM      6  N   UNL     1       7.795   5.428  15.344  0.00  0.00    +0.000 N 
ATOM      7  N   UNL     1       6.168   4.094  16.338  0.00  0.00    +0.000 NA
ATOM      8  C   UNL     1       4.937   3.990  16.875  0.00  0.00    +0.000 A 
ATOM      9  H   UNL     1       8.065   6.405  15.384  0.00  0.00    +0.000 HD
ATOM     10  H   UNL     1       8.407   4.756  15.779  0.00  0.00    +0.000 HD
BRANCH   8  11
ATOM     11  N   UNL     1       4.579   2.712  17.311  0.00  0.00    +0.000 N 
ATOM     12  H   UNL     1       5.332   2.071  17.076  0.00  0.00    +0.000 HD
ATOM     13  H   UNL     1       4.325   2.693  18.291  0.00  0.00    +0.000 HD
ENDBRANCH   8  11
ENDBRANCH   1   2
BRANCH   1  17
ATOM     14  C   UNL     1       1.611   7.815  20.339  0.00  0.00    +0.000 A 
ATOM     15  C   UNL     1       1.708   6.453  20.679  0.00  0.00    +0.000 A 
ATOM     16  C   UNL     1       2.091   5.460  19.753  0.00  0.00    +0.000 A 
ATOM     17  C   UNL     1       2.411   5.873  18.449  0.00  0.00    +0.000 A 
ATOM     18  C   UNL     1       2.383   7.238  18.122  0.00  0.00    +0.000 A 
ATOM     19  C   UNL     1       1.962   8.206  19.047  0.00  0.00    +0.000 A 
ATOM     20 BR   UNL     1       2.011   9.994  18.409  0.00  0.00    +0.000 Br
BRANCH  16  21
ATOM     21  C   UNL     1       2.222   3.999  20.173  0.00  0.00    +0.000 C 
ATOM     22  C   UNL     1       2.364   3.897  21.694  0.00  0.00    +0.000 C 
ATOM     23  C   UNL     1       1.078   3.096  19.695  0.00  0.00    +0.000 C 
ENDBRANCH  16  21
BRANCH  14  25
ATOM     24  C   UNL     1      -0.087   8.987  21.558  0.00  0.00    +0.000 C 
ATOM     25  O   UNL     1       1.272   8.601  21.407  0.00  0.00    +0.000 OA
ENDBRANCH  14  25
ENDBRANCH   1  17
TORSDOF 5
ENDMDL
MODEL 9
REMARK VINA RESULT:      -6.5      4.191      6.612
REMARK  Name = 
REMARK  8 active torsions:
REMARK  status: ('A' for Active; 'I' for Inactive)
REMARK    1  A    between atoms: C_1  and  O_2
REMARK    2  A    between atoms: O_2  and  C_3
REMARK    3  A    between atoms: C_5  and  C_6
REMARK    4  A    between atoms: C_6  and  C_7
REMARK    5  A    between atoms: C_6  and  C_8
REMARK    6  A    between atoms: C_9  and  O_10
REMARK    7  A    between atoms: O_10  and  C_11
REMARK    8  A    between atoms: C_17  and  N_18
REMARK                            x       y       z     vdW  Elec       q    Type
REMARK                         _______ _______ _______ _____ _____    ______ ____
ROOT
ATOM      1  O   UNL     1       2.987   7.497  18.320  0.00  0.00    +0.000 OA
ENDROOT
BRANCH   1   2
ATOM      2  C   UNL     1       2.124   8.084  19.212  0.00  0.00    +0.000 A 
ATOM      3  C   UNL     1       1.872   7.612  20.482  0.00  0.00    +0.000 A 
ATOM      4  N   UNL     1       1.073   8.237  21.369  0.00  0.00    +0.000 NA
ATOM      5  C   UNL     1       0.458   9.335  20.935  0.00  0.00    +0.000 A 
ATOM      6  N   UNL     1      -0.319  10.020  21.848  0.00  0.00    +0.000 N 
ATOM      7  N   UNL     1       0.584   9.854  19.709  0.00  0.00    +0.000 NA
ATOM      8  C   UNL     1       1.405   9.214  18.855  0.00  0.00    +0.000 A 
ATOM      9  H   UNL     1      -0.017   9.794  22.789  0.00  0.00    +0.000 HD
ATOM     10  H   UNL     1      -0.373  10.994  21.593  0.00  0.00    +0.000 HD
BRANCH   8  11
ATOM     11  N   UNL     1       1.440   9.729  17.556  0.00  0.00    +0.000 N 
ATOM     12  H   UNL     1       2.373   9.583  17.179  0.00  0.00    +0.000 HD
ATOM     13  H   UNL     1       0.706   9.353  16.970  0.00  0.00    +0.000 HD
ENDBRANCH   8  11
ENDBRANCH   1   2
BRANCH   1  17
ATOM     14  C   UNL     1       2.950   3.312  17.857  0.00  0.00    +0.000 A 
ATOM     15  C   UNL     1       3.899   4.122  17.205  0.00  0.00    +0.000 A 
ATOM     16  C   UNL     1       3.916   5.527  17.325  0.00  0.00    +0.000 A 
ATOM     17  C   UNL     1       2.953   6.122  18.159  0.00  0.00    +0.000 A 
ATOM     18  C   UNL     1       2.049   5.315  18.866  0.00  0.00    +0.000 A 
ATOM     19  C   UNL     1       2.023   3.922  18.702  0.00  0.00    +0.000 A 
ATOM     20 BR   UNL     1       0.732   3.017  19.761  0.00  0.00    +0.000 Br
BRANCH  16  21
ATOM     21  C   UNL     1       4.986   6.365  16.632  0.00  0.00    +0.000 C 
ATOM     22  C   UNL     1       6.211   6.512  17.538  0.00  0.00    +0.000 C 
ATOM     23  C   UNL     1       5.415   5.836  15.257  0.00  0.00    +0.000 C 
ENDBRANCH  16  21
BRANCH  14  25
ATOM     24  C   UNL     1       3.869   1.234  18.615  0.00  0.00    +0.000 C 
ATOM     25  O   UNL     1       3.157   1.977  17.636  0.00  0.00    +0.000 OA
ENDBRANCH  14  25
ENDBRANCH   1  17
TORSDOF 5
ENDMDL
