MODEL 1
REMARK VINA RESULT:      -7.1      0.000      0.000
REMARK  Name = 
REMARK  7 active torsions:
REMARK  status: ('A' for Active; 'I' for Inactive)
REMARK    1  A    between atoms: C_1  and  C_2
REMARK    2  A    between atoms: C_5  and  C_6
REMARK    3  A    between atoms: C_6  and  N_7
REMARK    4  A    between atoms: N_7  and  C_8
REMARK    5  A    between atoms: N_7  and  C_9
REMARK    6  A    between atoms: C_9  and  N_10
REMARK    7  A    between atoms: C_12  and  C_13
REMARK                            x       y       z     vdW  Elec       q    Type
REMARK                         _______ _______ _______ _____ _____    ______ ____
ROOT
ATOM      1  N   UNL     1       3.275   4.827  19.863  0.00  0.00    +0.000 N 
ATOM      2  N   UNL     1       3.262   6.063  19.252  0.00  0.00    +0.000 NA
ATOM      3  C   UNL     1       2.289   6.660  19.865  0.00  0.00    +0.000 A 
ATOM      4  O   UNL     1       1.639   5.932  20.802  0.00  0.00    +0.000 OA
ATOM      5  C   UNL     1       2.261   4.725  20.780  0.00  0.00    +0.000 A 
ATOM      6  O   UNL     1       1.941   3.763  21.457  0.00  0.00    +0.000 OA
ENDROOT
BRANCH   3   7
ATOM      7  C   UNL     1       1.772   8.025  19.675  0.00  0.00    +0.000 A 
ATOM      8  C   UNL     1       1.132   8.683  20.732  0.00  0.00    +0.000 A 
ATOM      9  C   UNL     1       0.652   9.985  20.552  0.00  0.00    +0.000 A 
ATOM     10  C   UNL     1       0.806  10.629  19.324  0.00  0.00    +0.000 A 
ATOM     11  C   UNL     1       1.438   9.975  18.268  0.00  0.00    +0.000 A 
ATOM     12  C   UNL     1       1.919   8.676  18.442  0.00  0.00    +0.000 A 
ENDBRANCH   3   7
BRANCH   1  13
ATOM     13  C   UNL     1       4.085   3.712  19.439  0.00  0.00    +0.000 C 
BRANCH  13  14
ATOM     14  N   UNL     1       3.836   3.340  18.039  0.00  0.00    +0.000 NA
ATOM     15  C   UNL     1       3.255   1.993  18.008  0.00  0.00    +0.000 C 
BRANCH  14  16
ATOM     16  C   UNL     1       5.080   3.396  17.246  0.00  0.00    +0.000 C 
BRANCH  16  21
ATOM     17  C   UNL     1       7.845   7.927  17.610  0.00  0.00    +0.000 C 
ATOM     18  C   UNL     1       6.860   6.863  17.280  0.00  0.00    +0.000 A 
ATOM     19  N   UNL     1       5.902   6.993  16.389  0.00  0.00    +0.000 NA
ATOM     20  C   UNL     1       5.189   5.813  16.302  0.00  0.00    +0.000 A 
ATOM     21  C   UNL     1       5.610   4.793  17.132  0.00  0.00    +0.000 A 
ATOM     22  S   UNL     1       6.928   5.344  18.082  0.00  0.00    +0.000 S 
ENDBRANCH  16  21
ENDBRANCH  14  16
ENDBRANCH  13  14
ENDBRANCH   1  13
TORSDOF 5
ENDMDL
MODEL 2
REMARK VINA RESULT:      -7.0      3.819      6.210
REMARK  Name = 
REMARK  7 active torsions:
REMARK  status: ('A' for Active; 'I' for Inactive)
REMARK    1  A    between atoms: C_1  and  C_2
REMARK    2  A    between atoms: C_5  and  C_6
REMARK    3  A    between atoms: C_6  and  N_7
REMARK    4  A    between atoms: N_7  and  C_8
REMARK    5  A    between atoms: N_7  and  C_9
REMARK    6  A    between atoms: C_9  and  N_10
REMARK    7  A    between atoms: C_12  and  C_13
REMARK                            x       y       z     vdW  Elec       q    Type
REMARK                         _______ _______ _______ _____ _____    ______ ____
ROOT
ATOM      1  N   UNL     1       6.861   6.921  17.347  0.00  0.00    +0.000 N 
ATOM      2  N   UNL     1       7.018   8.281  17.190  0.00  0.00    +0.000 NA
ATOM      3  C   UNL     1       7.967   8.546  18.031  0.00  0.00    +0.000 A 
ATOM      4  O   UNL     1       8.436   7.499  18.750  0.00  0.00    +0.000 OA
ATOM      5  C   UNL     1       7.693   6.443  18.327  0.00  0.00    +0.000 A 
ATOM      6  O   UNL     1       7.779   5.310  18.767  0.00  0.00    +0.000 OA
ENDROOT
BRANCH   3   7
ATOM      7  C   UNL     1       8.605   9.837  18.334  0.00  0.00    +0.000 A 
ATOM      8  C   UNL     1       9.482   9.946  19.420  0.00  0.00    +0.000 A 
ATOM      9  C   UNL     1      10.096  11.172  19.698  0.00  0.00    +0.000 A 
ATOM     10  C   UNL     1       9.837  12.286  18.899  0.00  0.00    +0.000 A 
ATOM     11  C   UNL     1       8.962  12.183  17.820  0.00  0.00    +0.000 A 
ATOM     12  C   UNL     1       8.346  10.962  17.538  0.00  0.00    +0.000 A 
ENDBRANCH   3   7
BRANCH   1  13
ATOM     13  C   UNL     1       5.810   6.141  16.741  0.00  0.00    +0.000 C 
BRANCH  13  14
ATOM     14  N   UNL     1       6.215   4.749  16.500  0.00  0.00    +0.000 NA
ATOM     15  C   UNL     1       6.996   4.698  15.258  0.00  0.00    +0.000 C 
BRANCH  14  16
ATOM     16  C   UNL     1       5.038   3.861  16.419  0.00  0.00    +0.000 C 
BRANCH  16  21
ATOM     17  C   UNL     1       1.270   4.008  20.173  0.00  0.00    +0.000 C 
ATOM     18  C   UNL     1       2.547   3.916  19.417  0.00  0.00    +0.000 A 
ATOM     19  N   UNL     1       3.708   3.614  19.957  0.00  0.00    +0.000 NA
ATOM     20  C   UNL     1       4.679   3.580  18.976  0.00  0.00    +0.000 A 
ATOM     21  C   UNL     1       4.250   3.858  17.694  0.00  0.00    +0.000 A 
ATOM     22  S   UNL     1       2.571   4.209  17.722  0.00  0.00    +0.000 S 
ENDBRANCH  16  21
ENDBRANCH  14  16
ENDBRANCH  13  14
ENDBRANCH   1  13
TORSDOF 5
ENDMDL
MODEL 3
REMARK VINA RESULT:      -7.0      3.710      6.240
REMARK  Name = 
REMARK  7 active torsions:
REMARK  status: ('A' for Active; 'I' for Inactive)
REMARK    1  A    between atoms: C_1  and  C_2
REMARK    2  A    between atoms: C_5  and  C_6
REMARK    3  A    between atoms: C_6  and  N_7
REMARK    4  A    between atoms: N_7  and  C_8
REMARK    5  A    between atoms: N_7  and  C_9
REMARK    6  A    between atoms: C_9  and  N_10
REMARK    7  A    between atoms: C_12  and  C_13
REMARK                            x       y       z     vdW  Elec       q    Type
REMARK                         _______ _______ _______ _____ _____    ______ ____
ROOT
ATOM      1  N   UNL     1       6.898   6.880  17.382  0.00  0.00    +0.000 N 
ATOM      2  N   UNL     1       7.076   8.235  17.195  0.00  0.00    +0.000 NA
ATOM      3  C   UNL     1       7.999   8.512  18.060  0.00  0.00    +0.000 A 
ATOM      4  O   UNL     1       8.431   7.480  18.822  0.00  0.00    +0.000 OA
ATOM      5  C   UNL     1       7.691   6.421  18.402  0.00  0.00    +0.000 A 
ATOM      6  O   UNL     1       7.750   5.298  18.874  0.00  0.00    +0.000 OA
ENDROOT
BRANCH   3   7
ATOM      7  C   UNL     1       8.641   9.804  18.351  0.00  0.00    +0.000 A 
ATOM      8  C   UNL     1       8.382  10.912  17.536  0.00  0.00    +0.000 A 
ATOM      9  C   UNL     1       8.984  12.142  17.822  0.00  0.00    +0.000 A 
ATOM     10  C   UNL     1       9.844  12.268  18.914  0.00  0.00    +0.000 A 
ATOM     11  C   UNL     1      10.109  11.166  19.724  0.00  0.00    +0.000 A 
ATOM     12  C   UNL     1       9.510   9.936  19.444  0.00  0.00    +0.000 A 
ENDBRANCH   3   7
BRANCH   1  13
ATOM     13  C   UNL     1       5.860   6.096  16.762  0.00  0.00    +0.000 C 
BRANCH  13  14
ATOM     14  N   UNL     1       6.283   4.713  16.501  0.00  0.00    +0.000 NA
ATOM     15  C   UNL     1       7.020   4.681  15.232  0.00  0.00    +0.000 C 
BRANCH  14  16
ATOM     16  C   UNL     1       5.123   3.801  16.460  0.00  0.00    +0.000 C 
BRANCH  16  21
ATOM     17  C   UNL     1       1.369   4.297  20.198  0.00  0.00    +0.000 C 
ATOM     18  C   UNL     1       2.630   4.063  19.444  0.00  0.00    +0.000 A 
ATOM     19  N   UNL     1       3.731   3.580  19.975  0.00  0.00    +0.000 NA
ATOM     20  C   UNL     1       4.699   3.455  18.999  0.00  0.00    +0.000 A 
ATOM     21  C   UNL     1       4.328   3.849  17.729  0.00  0.00    +0.000 A 
ATOM     22  S   UNL     1       2.713   4.429  17.766  0.00  0.00    +0.000 S 
ENDBRANCH  16  21
ENDBRANCH  14  16
ENDBRANCH  13  14
ENDBRANCH   1  13
TORSDOF 5
ENDMDL
MODEL 4
REMARK VINA RESULT:      -7.0      3.644      6.367
REMARK  Name = 
REMARK  7 active torsions:
REMARK  status: ('A' for Active; 'I' for Inactive)
REMARK    1  A    between atoms: C_1  and  C_2
REMARK    2  A    between atoms: C_5  and  C_6
REMARK    3  A    between atoms: C_6  and  N_7
REMARK    4  A    between atoms: N_7  and  C_8
REMARK    5  A    between atoms: N_7  and  C_9
REMARK    6  A    between atoms: C_9  and  N_10
REMARK    7  A    between atoms: C_12  and  C_13
REMARK                            x       y       z     vdW  Elec       q    Type
REMARK                         _______ _______ _______ _____ _____    ______ ____
ROOT
ATOM      1  N   UNL     1       7.162   7.051  17.295  0.00  0.00    +0.000 N 
ATOM      2  N   UNL     1       7.323   8.411  17.139  0.00  0.00    +0.000 NA
ATOM      3  C   UNL     1       8.144   8.701  18.098  0.00  0.00    +0.000 A 
ATOM      4  O   UNL     1       8.522   7.671  18.891  0.00  0.00    +0.000 OA
ATOM      5  C   UNL     1       7.857   6.599  18.387  0.00  0.00    +0.000 A 
ATOM      6  O   UNL     1       7.896   5.473  18.853  0.00  0.00    +0.000 OA
ENDROOT
BRANCH   3   7
ATOM      7  C   UNL     1       8.719  10.006  18.465  0.00  0.00    +0.000 A 
ATOM      8  C   UNL     1       9.452  10.138  19.650  0.00  0.00    +0.000 A 
ATOM      9  C   UNL     1      10.007  11.376  19.989  0.00  0.00    +0.000 A 
ATOM     10  C   UNL     1       9.831  12.480  19.154  0.00  0.00    +0.000 A 
ATOM     11  C   UNL     1       9.098  12.353  17.976  0.00  0.00    +0.000 A 
ATOM     12  C   UNL     1       8.542  11.120  17.632  0.00  0.00    +0.000 A 
ENDBRANCH   3   7
BRANCH   1  13
ATOM     13  C   UNL     1       6.214   6.248  16.563  0.00  0.00    +0.000 C 
BRANCH  13  14
ATOM     14  N   UNL     1       5.358   5.448  17.449  0.00  0.00    +0.000 NA
ATOM     15  C   UNL     1       5.261   4.088  16.904  0.00  0.00    +0.000 C 
BRANCH  14  16
ATOM     16  C   UNL     1       4.019   6.056  17.586  0.00  0.00    +0.000 C 
BRANCH  16  21
ATOM     17  C   UNL     1       1.289   3.099  21.067  0.00  0.00    +0.000 C 
ATOM     18  C   UNL     1       1.798   3.796  19.855  0.00  0.00    +0.000 A 
ATOM     19  N   UNL     1       1.193   3.789  18.688  0.00  0.00    +0.000 NA
ATOM     20  C   UNL     1       1.908   4.557  17.791  0.00  0.00    +0.000 A 
ATOM     21  C   UNL     1       3.058   5.143  18.283  0.00  0.00    +0.000 A 
ATOM     22  S   UNL     1       3.267   4.686  19.924  0.00  0.00    +0.000 S 
ENDBRANCH  16  21
ENDBRANCH  14  16
ENDBRANCH  13  14
ENDBRANCH   1  13
TORSDOF 5
ENDMDL
MODEL 5
REMARK VINA RESULT:      -6.9      3.555      6.769
REMARK  Name = 
REMARK  7 active torsions:
REMARK  status: ('A' for Active; 'I' for Inactive)
REMARK    1  A    between atoms: C_1  and  C_2
REMARK    2  A    between atoms: C_5  and  C_6
REMARK    3  A    between atoms: C_6  and  N_7
REMARK    4  A    between atoms: N_7  and  C_8
REMARK    5  A    between atoms: N_7  and  C_9
REMARK    6  A    between atoms: C_9  and  N_10
REMARK    7  A    between atoms: C_12  and  C_13
REMARK                            x       y       z     vdW  Elec       q    Type
REMARK                         _______ _______ _______ _____ _____    ______ ____
ROOT
ATOM      1  N   UNL     1       6.107   4.880  17.978  0.00  0.00    +0.000 N 
ATOM      2  N   UNL     1       5.583   4.864  16.702  0.00  0.00    +0.000 NA
ATOM      3  C   UNL     1       6.632   4.631  15.979  0.00  0.00    +0.000 A 
ATOM      4  O   UNL     1       7.804   4.518  16.647  0.00  0.00    +0.000 OA
ATOM      5  C   UNL     1       7.467   4.712  17.948  0.00  0.00    +0.000 A 
ATOM      6  O   UNL     1       8.257   4.730  18.877  0.00  0.00    +0.000 OA
ENDROOT
BRANCH   3   7
ATOM      7  C   UNL     1       6.738   4.487  14.518  0.00  0.00    +0.000 A 
ATOM      8  C   UNL     1       7.660   5.261  13.804  0.00  0.00    +0.000 A 
ATOM      9  C   UNL     1       7.767   5.113  12.417  0.00  0.00    +0.000 A 
ATOM     10  C   UNL     1       6.957   4.199  11.742  0.00  0.00    +0.000 A 
ATOM     11  C   UNL     1       6.035   3.430  12.449  0.00  0.00    +0.000 A 
ATOM     12  C   UNL     1       5.924   3.574  13.833  0.00  0.00    +0.000 A 
ENDBRANCH   3   7
BRANCH   1  13
ATOM     13  C   UNL     1       5.373   5.254  19.161  0.00  0.00    +0.000 C 
BRANCH  13  14
ATOM     14  N   UNL     1       4.220   4.377  19.405  0.00  0.00    +0.000 NA
ATOM     15  C   UNL     1       4.612   2.994  19.104  0.00  0.00    +0.000 C 
BRANCH  14  16
ATOM     16  C   UNL     1       3.060   4.785  18.589  0.00  0.00    +0.000 C 
BRANCH  16  21
ATOM     17  C   UNL     1       1.051   8.992  21.155  0.00  0.00    +0.000 C 
ATOM     18  C   UNL     1       1.624   8.055  20.152  0.00  0.00    +0.000 A 
ATOM     19  N   UNL     1       1.995   8.403  18.940  0.00  0.00    +0.000 NA
ATOM     20  C   UNL     1       2.513   7.305  18.282  0.00  0.00    +0.000 A 
ATOM     21  C   UNL     1       2.531   6.126  18.999  0.00  0.00    +0.000 A 
ATOM     22  S   UNL     1       1.840   6.395  20.547  0.00  0.00    +0.000 S 
ENDBRANCH  16  21
ENDBRANCH  14  16
ENDBRANCH  13  14
ENDBRANCH   1  13
TORSDOF 5
ENDMDL
MODEL 6
REMARK VINA RESULT:      -6.8      3.517      6.717
REMARK  Name = 
REMARK  7 active torsions:
REMARK  status: ('A' for Active; 'I' for Inactive)
REMARK    1  A    between atoms: C_1  and  C_2
REMARK    2  A    between atoms: C_5  and  C_6
REMARK    3  A    between atoms: C_6  and  N_7
REMARK    4  A    between atoms: N_7  and  C_8
REMARK    5  A    between atoms: N_7  and  C_9
REMARK    6  A    between atoms: C_9  and  N_10
REMARK    7  A    between atoms: C_12  and  C_13
REMARK                            x       y       z     vdW  Elec       q    Type
REMARK                         _______ _______ _______ _____ _____    ______ ____
ROOT
ATOM      1  N   UNL     1       5.994   4.835  18.018  0.00  0.00    +0.000 N 
ATOM      2  N   UNL     1       5.500   4.779  16.732  0.00  0.00    +0.000 NA
ATOM      3  C   UNL     1       6.580   4.633  16.031  0.00  0.00    +0.000 A 
ATOM      4  O   UNL     1       7.742   4.613  16.723  0.00  0.00    +0.000 OA
ATOM      5  C   UNL     1       7.364   4.776  18.018  0.00  0.00    +0.000 A 
ATOM      6  O   UNL     1       8.130   4.856  18.963  0.00  0.00    +0.000 OA
ENDROOT
BRANCH   3   7
ATOM      7  C   UNL     1       6.728   4.501  14.572  0.00  0.00    +0.000 A 
ATOM      8  C   UNL     1       5.919   3.603  13.866  0.00  0.00    +0.000 A 
ATOM      9  C   UNL     1       6.054   3.489  12.479  0.00  0.00    +0.000 A 
ATOM     10  C   UNL     1       6.993   4.263  11.796  0.00  0.00    +0.000 A 
ATOM     11  C   UNL     1       7.803   5.155  12.496  0.00  0.00    +0.000 A 
ATOM     12  C   UNL     1       7.673   5.273  13.881  0.00  0.00    +0.000 A 
ENDBRANCH   3   7
BRANCH   1  13
ATOM     13  C   UNL     1       5.208   5.147  19.186  0.00  0.00    +0.000 C 
BRANCH  13  14
ATOM     14  N   UNL     1       4.131   4.173  19.412  0.00  0.00    +0.000 NA
ATOM     15  C   UNL     1       4.579   2.859  18.934  0.00  0.00    +0.000 C 
BRANCH  14  16
ATOM     16  C   UNL     1       2.889   4.587  18.728  0.00  0.00    +0.000 C 
BRANCH  16  21
ATOM     17  C   UNL     1       1.139   8.861  21.370  0.00  0.00    +0.000 C 
ATOM     18  C   UNL     1       1.650   7.908  20.349  0.00  0.00    +0.000 A 
ATOM     19  N   UNL     1       2.026   8.252  19.137  0.00  0.00    +0.000 NA
ATOM     20  C   UNL     1       2.478   7.137  18.459  0.00  0.00    +0.000 A 
ATOM     21  C   UNL     1       2.438   5.949  19.161  0.00  0.00    +0.000 A 
ATOM     22  S   UNL     1       1.779   6.233  20.719  0.00  0.00    +0.000 S 
ENDBRANCH  16  21
ENDBRANCH  14  16
ENDBRANCH  13  14
ENDBRANCH   1  13
TORSDOF 5
ENDMDL
MODEL 7
REMARK VINA RESULT:      -6.8      3.165      7.074
REMARK  Name = 
REMARK  7 active torsions:
REMARK  status: ('A' for Active; 'I' for Inactive)
REMARK    1  A    between atoms: C_1  and  C_2
REMARK    2  A    between atoms: C_5  and  C_6
REMARK    3  A    between atoms: C_6  and  N_7
REMARK    4  A    between atoms: N_7  and  C_8
REMARK    5  A    between atoms: N_7  and  C_9
REMARK    6  A    between atoms: C_9  and  N_10
REMARK    7  A    between atoms: C_12  and  C_13
REMARK                            x       y       z     vdW  Elec       q    Type
REMARK                         _______ _______ _______ _____ _____    ______ ____
ROOT
ATOM      1  N   UNL     1       4.884   6.359  17.187  0.00  0.00    +0.000 N 
ATOM      2  N   UNL     1       5.023   6.398  15.815  0.00  0.00    +0.000 NA
ATOM      3  C   UNL     1       5.679   5.307  15.575  0.00  0.00    +0.000 A 
ATOM      4  O   UNL     1       6.011   4.562  16.656  0.00  0.00    +0.000 OA
ATOM      5  C   UNL     1       5.520   5.263  17.710  0.00  0.00    +0.000 A 
ATOM      6  O   UNL     1       5.650   4.944  18.880  0.00  0.00    +0.000 OA
ENDROOT
BRANCH   3   7
ATOM      7  C   UNL     1       6.135   4.762  14.286  0.00  0.00    +0.000 A 
ATOM      8  C   UNL     1       5.368   3.796  13.626  0.00  0.00    +0.000 A 
ATOM      9  C   UNL     1       5.798   3.289  12.395  0.00  0.00    +0.000 A 
ATOM     10  C   UNL     1       6.988   3.741  11.824  0.00  0.00    +0.000 A 
ATOM     11  C   UNL     1       7.757   4.700  12.481  0.00  0.00    +0.000 A 
ATOM     12  C   UNL     1       7.333   5.209  13.709  0.00  0.00    +0.000 A 
ENDBRANCH   3   7
BRANCH   1  13
ATOM     13  C   UNL     1       4.352   7.432  17.988  0.00  0.00    +0.000 C 
BRANCH  13  14
ATOM     14  N   UNL     1       2.896   7.332  18.161  0.00  0.00    +0.000 NA
ATOM     15  C   UNL     1       2.288   8.609  17.767  0.00  0.00    +0.000 C 
BRANCH  14  16
ATOM     16  C   UNL     1       2.549   6.992  19.555  0.00  0.00    +0.000 C 
BRANCH  16  21
ATOM     17  C   UNL     1       0.977   1.968  18.776  0.00  0.00    +0.000 C 
ATOM     18  C   UNL     1       1.302   3.305  19.341  0.00  0.00    +0.000 A 
ATOM     19  N   UNL     1       1.202   3.614  20.615  0.00  0.00    +0.000 NA
ATOM     20  C   UNL     1       1.610   4.919  20.808  0.00  0.00    +0.000 A 
ATOM     21  C   UNL     1       2.017   5.596  19.675  0.00  0.00    +0.000 A 
ATOM     22  S   UNL     1       1.849   4.568  18.311  0.00  0.00    +0.000 S 
ENDBRANCH  16  21
ENDBRANCH  14  16
ENDBRANCH  13  14
ENDBRANCH   1  13
TORSDOF 5
ENDMDL
MODEL 8
REMARK VINA RESULT:      -6.8      3.537      6.526
REMARK  Name = 
REMARK  7 active torsions:
REMARK  status: ('A' for Active; 'I' for Inactive)
REMARK    1  A    between atoms: C_1  and  C_2
REMARK    2  A    between atoms: C_5  and  C_6
REMARK    3  A    between atoms: C_6  and  N_7
REMARK    4  A    between atoms: N_7  and  C_8
REMARK    5  A    between atoms: N_7  and  C_9
REMARK    6  A    between atoms: C_9  and  N_10
REMARK    7  A    between atoms: C_12  and  C_13
REMARK                            x       y       z     vdW  Elec       q    Type
REMARK                         _______ _______ _______ _____ _____    ______ ____
ROOT
ATOM      1  N   UNL     1       7.358   7.173  17.312  0.00  0.00    +0.000 N 
ATOM      2  N   UNL     1       7.520   8.533  17.159  0.00  0.00    +0.000 NA
ATOM      3  C   UNL     1       8.290   8.831  18.157  0.00  0.00    +0.000 A 
ATOM      4  O   UNL     1       8.633   7.806  18.971  0.00  0.00    +0.000 OA
ATOM      5  C   UNL     1       7.999   6.729  18.439  0.00  0.00    +0.000 A 
ATOM      6  O   UNL     1       8.020   5.604  18.911  0.00  0.00    +0.000 OA
ENDROOT
BRANCH   3   7
ATOM      7  C   UNL     1       8.840  10.139  18.547  0.00  0.00    +0.000 A 
ATOM      8  C   UNL     1       8.676  11.245  17.705  0.00  0.00    +0.000 A 
ATOM      9  C   UNL     1       9.189  12.490  18.085  0.00  0.00    +0.000 A 
ATOM     10  C   UNL     1       9.865  12.633  19.297  0.00  0.00    +0.000 A 
ATOM     11  C   UNL     1      10.034  11.534  20.136  0.00  0.00    +0.000 A 
ATOM     12  C   UNL     1       9.524  10.289  19.762  0.00  0.00    +0.000 A 
ENDBRANCH   3   7
BRANCH   1  13
ATOM     13  C   UNL     1       6.452   6.363  16.537  0.00  0.00    +0.000 C 
BRANCH  13  14
ATOM     14  N   UNL     1       5.558   5.558  17.382  0.00  0.00    +0.000 NA
ATOM     15  C   UNL     1       5.520   4.189  16.852  0.00  0.00    +0.000 C 
BRANCH  14  16
ATOM     16  C   UNL     1       4.204   6.142  17.430  0.00  0.00    +0.000 C 
BRANCH  16  21
ATOM     17  C   UNL     1       0.696   3.191  20.133  0.00  0.00    +0.000 C 
ATOM     18  C   UNL     1       1.760   4.144  19.717  0.00  0.00    +0.000 A 
ATOM     19  N   UNL     1       2.514   4.822  20.553  0.00  0.00    +0.000 NA
ATOM     20  C   UNL     1       3.420   5.586  19.843  0.00  0.00    +0.000 A 
ATOM     21  C   UNL     1       3.346   5.484  18.468  0.00  0.00    +0.000 A 
ATOM     22  S   UNL     1       2.071   4.416  18.048  0.00  0.00    +0.000 S 
ENDBRANCH  16  21
ENDBRANCH  14  16
ENDBRANCH  13  14
ENDBRANCH   1  13
TORSDOF 5
ENDMDL
MODEL 9
REMARK VINA RESULT:      -6.8      1.321      1.986
REMARK  Name = 
REMARK  7 active torsions:
REMARK  status: ('A' for Active; 'I' for Inactive)
REMARK    1  A    between atoms: C_1  and  C_2
REMARK    2  A    between atoms: C_5  and  C_6
REMARK    3  A    between atoms: C_6  and  N_7
REMARK    4  A    between atoms: N_7  and  C_8
REMARK    5  A    between atoms: N_7  and  C_9
REMARK    6  A    between atoms: C_9  and  N_10
REMARK    7  A    between atoms: C_12  and  C_13
REMARK                            x       y       z     vdW  Elec       q    Type
REMARK                         _______ _______ _______ _____ _____    ______ ____
ROOT
ATOM      1  N   UNL     1       2.645   4.824  19.212  0.00  0.00    +0.000 N 
ATOM      2  N   UNL     1       2.559   5.988  18.479  0.00  0.00    +0.000 NA
ATOM      3  C   UNL     1       2.112   6.831  19.356  0.00  0.00    +0.000 A 
ATOM      4  O   UNL     1       1.867   6.333  20.590  0.00  0.00    +0.000 OA
ATOM      5  C   UNL     1       2.184   5.016  20.489  0.00  0.00    +0.000 A 
ATOM      6  O   UNL     1       2.061   4.199  21.386  0.00  0.00    +0.000 OA
ENDROOT
BRANCH   3   7
ATOM      7  C   UNL     1       1.812   8.263  19.197  0.00  0.00    +0.000 A 
ATOM      8  C   UNL     1       2.199   8.933  18.031  0.00  0.00    +0.000 A 
ATOM      9  C   UNL     1       1.902  10.292  17.879  0.00  0.00    +0.000 A 
ATOM     10  C   UNL     1       1.224  10.982  18.884  0.00  0.00    +0.000 A 
ATOM     11  C   UNL     1       0.842  10.319  20.049  0.00  0.00    +0.000 A 
ATOM     12  C   UNL     1       1.135   8.963  20.207  0.00  0.00    +0.000 A 
ENDBRANCH   3   7
BRANCH   1  13
ATOM     13  C   UNL     1       2.950   3.527  18.660  0.00  0.00    +0.000 C 
BRANCH  13  14
ATOM     14  N   UNL     1       4.367   3.172  18.818  0.00  0.00    +0.000 NA
ATOM     15  C   UNL     1       4.500   2.282  19.978  0.00  0.00    +0.000 C 
BRANCH  14  16
ATOM     16  C   UNL     1       5.203   4.378  18.980  0.00  0.00    +0.000 C 
BRANCH  16  21
ATOM     17  C   UNL     1       6.971   4.832  13.982  0.00  0.00    +0.000 C 
ATOM     18  C   UNL     1       6.744   4.955  15.447  0.00  0.00    +0.000 A 
ATOM     19  N   UNL     1       7.358   5.822  16.221  0.00  0.00    +0.000 NA
ATOM     20  C   UNL     1       6.894   5.697  17.515  0.00  0.00    +0.000 A 
ATOM     21  C   UNL     1       5.929   4.730  17.718  0.00  0.00    +0.000 A 
ATOM     22  S   UNL     1       5.615   3.925  16.235  0.00  0.00    +0.000 S 
ENDBRANCH  16  21
ENDBRANCH  14  16
ENDBRANCH  13  14
ENDBRANCH   1  13
TORSDOF 5
ENDMDL
