MODEL 1
REMARK VINA RESULT:      -6.0      0.000      0.000
REMARK  Name = 
REMARK  3 active torsions:
REMARK  status: ('A' for Active; 'I' for Inactive)
REMARK    1  A    between atoms: C_1  and  C_2
REMARK    2  A    between atoms: C_12  and  O_13
REMARK    3  A    between atoms: C_15  and  O_16
REMARK                            x       y       z     vdW  Elec       q    Type
REMARK                         _______ _______ _______ _____ _____    ______ ____
ROOT
ATOM      1  C   UNL     1       9.979  15.143  21.876  0.00  0.00    +0.000 C 
ATOM      2  C   UNL     1       9.185  14.028  21.198  0.00  0.00    +0.000 C 
ATOM      3  C   UNL     1       9.498  12.533  21.426  0.00  0.00    +0.000 C 
ATOM      4  C   UNL     1      10.606  11.667  20.754  0.00  0.00    +0.000 C 
ATOM      5  C   UNL     1      11.132  11.636  19.304  0.00  0.00    +0.000 C 
ATOM      6  O   UNL     1      12.333  11.433  19.098  0.00  0.00    +0.000 OA
ATOM      7  C   UNL     1      10.289  11.883  18.112  0.00  0.00    +0.000 C 
ATOM      8  C   UNL     1       8.990  12.095  18.292  0.00  0.00    +0.000 C 
ATOM      9  C   UNL     1       8.332  13.271  17.673  0.00  0.00    +0.000 C 
ATOM     10  O   UNL     1       7.235  13.117  17.144  0.00  0.00    +0.000 OA
ATOM     11  C   UNL     1       8.810  14.669  18.027  0.00  0.00    +0.000 A 
ATOM     12  C   UNL     1      10.141  15.126  18.016  0.00  0.00    +0.000 A 
ATOM     13  C   UNL     1      10.487  16.449  18.309  0.00  0.00    +0.000 A 
ATOM     14  C   UNL     1       9.515  17.335  18.694  0.00  0.00    +0.000 A 
ATOM     15  C   UNL     1       8.216  16.899  18.896  0.00  0.00    +0.000 A 
ATOM     16  C   UNL     1       7.891  15.531  18.677  0.00  0.00    +0.000 A 
ATOM     17  C   UNL     1       6.736  14.982  19.513  0.00  0.00    +0.000 C 
ATOM     18  C   UNL     1       6.958  15.138  21.020  0.00  0.00    +0.000 C 
ATOM     19  O   UNL     1       6.333  15.943  21.701  0.00  0.00    +0.000 OA
ATOM     20  O   UNL     1       7.791  14.222  21.608  0.00  0.00    +0.000 OA
ENDROOT
BRANCH  12  21
ATOM     21  O   UNL     1      11.225  14.303  17.975  0.00  0.00    +0.000 OA
ATOM     22  H   UNL     1      10.956  13.457  18.394  0.00  0.00    +0.000 HD
ENDBRANCH  12  21
BRANCH  14  23
ATOM     23  O   UNL     1       9.825  18.609  19.047  0.00  0.00    +0.000 OA
ATOM     24  H   UNL     1      10.751  18.636  19.345  0.00  0.00    +0.000 HD
ENDBRANCH  14  23
TORSDOF 2
ENDMDL
MODEL 2
REMARK VINA RESULT:      -6.0      1.761      3.567
REMARK  Name = 
REMARK  3 active torsions:
REMARK  status: ('A' for Active; 'I' for Inactive)
REMARK    1  A    between atoms: C_1  and  C_2
REMARK    2  A    between atoms: C_12  and  O_13
REMARK    3  A    between atoms: C_15  and  O_16
REMARK                            x       y       z     vdW  Elec       q    Type
REMARK                         _______ _______ _______ _____ _____    ______ ____
ROOT
ATOM      1  C   UNL     1       6.973  14.888  19.710  0.00  0.00    +0.000 C 
ATOM      2  C   UNL     1       7.874  14.701  18.490  0.00  0.00    +0.000 C 
ATOM      3  C   UNL     1       7.610  13.612  17.426  0.00  0.00    +0.000 C 
ATOM      4  C   UNL     1       7.976  12.099  17.486  0.00  0.00    +0.000 C 
ATOM      5  C   UNL     1       9.227  11.376  18.028  0.00  0.00    +0.000 C 
ATOM      6  O   UNL     1       9.101  10.280  18.586  0.00  0.00    +0.000 OA
ATOM      7  C   UNL     1      10.597  11.934  17.968  0.00  0.00    +0.000 C 
ATOM      8  C   UNL     1      10.774  13.106  17.367  0.00  0.00    +0.000 C 
ATOM      9  C   UNL     1      11.517  14.191  18.051  0.00  0.00    +0.000 C 
ATOM     10  O   UNL     1      12.330  14.842  17.402  0.00  0.00    +0.000 OA
ATOM     11  C   UNL     1      11.007  14.727  19.378  0.00  0.00    +0.000 A 
ATOM     12  C   UNL     1      10.641  13.965  20.502  0.00  0.00    +0.000 A 
ATOM     13  C   UNL     1      10.227  14.545  21.705  0.00  0.00    +0.000 A 
ATOM     14  C   UNL     1      10.099  15.906  21.793  0.00  0.00    +0.000 A 
ATOM     15  C   UNL     1      10.273  16.696  20.669  0.00  0.00    +0.000 A 
ATOM     16  C   UNL     1      10.611  16.088  19.427  0.00  0.00    +0.000 A 
ATOM     17  C   UNL     1      10.138  16.827  18.176  0.00  0.00    +0.000 C 
ATOM     18  C   UNL     1       8.625  17.055  18.149  0.00  0.00    +0.000 C 
ATOM     19  O   UNL     1       8.119  18.159  18.313  0.00  0.00    +0.000 OA
ATOM     20  O   UNL     1       7.856  15.982  17.778  0.00  0.00    +0.000 OA
ENDROOT
BRANCH  12  21
ATOM     21  O   UNL     1      10.405  12.623  20.465  0.00  0.00    +0.000 OA
ATOM     22  H   UNL     1      10.105  12.412  19.555  0.00  0.00    +0.000 HD
ENDBRANCH  12  21
BRANCH  14  23
ATOM     23  O   UNL     1       9.639  16.499  22.925  0.00  0.00    +0.000 OA
ATOM     24  H   UNL     1      10.399  16.820  23.442  0.00  0.00    +0.000 HD
ENDBRANCH  14  23
TORSDOF 2
ENDMDL
MODEL 3
REMARK VINA RESULT:      -5.8      9.642     12.022
REMARK  Name = 
REMARK  3 active torsions:
REMARK  status: ('A' for Active; 'I' for Inactive)
REMARK    1  A    between atoms: C_1  and  C_2
REMARK    2  A    between atoms: C_12  and  O_13
REMARK    3  A    between atoms: C_15  and  O_16
REMARK                            x       y       z     vdW  Elec       q    Type
REMARK                         _______ _______ _______ _____ _____    ______ ____
ROOT
ATOM      1  C   UNL     1       1.342   6.083  17.350  0.00  0.00    +0.000 C 
ATOM      2  C   UNL     1       2.677   6.354  18.042  0.00  0.00    +0.000 C 
ATOM      3  C   UNL     1       3.713   7.352  17.479  0.00  0.00    +0.000 C 
ATOM      4  C   UNL     1       4.754   7.120  16.343  0.00  0.00    +0.000 C 
ATOM      5  C   UNL     1       5.630   5.897  15.999  0.00  0.00    +0.000 C 
ATOM      6  O   UNL     1       5.858   5.627  14.816  0.00  0.00    +0.000 OA
ATOM      7  C   UNL     1       6.195   4.974  17.010  0.00  0.00    +0.000 C 
ATOM      8  C   UNL     1       5.980   5.237  18.294  0.00  0.00    +0.000 C 
ATOM      9  C   UNL     1       5.451   4.184  19.194  0.00  0.00    +0.000 C 
ATOM     10  O   UNL     1       5.946   4.066  20.311  0.00  0.00    +0.000 OA
ATOM     11  C   UNL     1       4.102   3.552  18.895  0.00  0.00    +0.000 A 
ATOM     12  C   UNL     1       3.681   3.023  17.661  0.00  0.00    +0.000 A 
ATOM     13  C   UNL     1       2.435   2.412  17.487  0.00  0.00    +0.000 A 
ATOM     14  C   UNL     1       1.545   2.380  18.528  0.00  0.00    +0.000 A 
ATOM     15  C   UNL     1       1.831   3.040  19.711  0.00  0.00    +0.000 A 
ATOM     16  C   UNL     1       3.068   3.732  19.849  0.00  0.00    +0.000 A 
ATOM     17  C   UNL     1       3.054   4.931  20.795  0.00  0.00    +0.000 C 
ATOM     18  C   UNL     1       2.009   5.983  20.417  0.00  0.00    +0.000 C 
ATOM     19  O   UNL     1       0.988   6.166  21.069  0.00  0.00    +0.000 OA
ATOM     20  O   UNL     1       2.342   6.827  19.389  0.00  0.00    +0.000 OA
ENDROOT
BRANCH  12  21
ATOM     21  O   UNL     1       4.308   3.269  16.477  0.00  0.00    +0.000 OA
ATOM     22  H   UNL     1       4.746   2.433  16.208  0.00  0.00    +0.000 HD
ENDBRANCH  12  21
BRANCH  14  23
ATOM     23  O   UNL     1       0.303   1.851  18.375  0.00  0.00    +0.000 OA
ATOM     24  H   UNL     1       0.155   1.191  19.075  0.00  0.00    +0.000 HD
ENDBRANCH  14  23
TORSDOF 2
ENDMDL
MODEL 4
REMARK VINA RESULT:      -5.7      1.975      5.010
REMARK  Name = 
REMARK  3 active torsions:
REMARK  status: ('A' for Active; 'I' for Inactive)
REMARK    1  A    between atoms: C_1  and  C_2
REMARK    2  A    between atoms: C_12  and  O_13
REMARK    3  A    between atoms: C_15  and  O_16
REMARK                            x       y       z     vdW  Elec       q    Type
REMARK                         _______ _______ _______ _____ _____    ______ ____
ROOT
ATOM      1  C   UNL     1       8.229  13.138  17.482  0.00  0.00    +0.000 C 
ATOM      2  C   UNL     1       8.411  13.704  18.890  0.00  0.00    +0.000 C 
ATOM      3  C   UNL     1       7.311  14.521  19.602  0.00  0.00    +0.000 C 
ATOM      4  C   UNL     1       6.966  16.030  19.425  0.00  0.00    +0.000 C 
ATOM      5  C   UNL     1       7.871  17.265  19.238  0.00  0.00    +0.000 C 
ATOM      6  O   UNL     1       7.500  18.184  18.500  0.00  0.00    +0.000 OA
ATOM      7  C   UNL     1       9.207  17.415  19.860  0.00  0.00    +0.000 C 
ATOM      8  C   UNL     1       9.636  16.452  20.669  0.00  0.00    +0.000 C 
ATOM      9  C   UNL     1      10.979  15.856  20.472  0.00  0.00    +0.000 C 
ATOM     10  O   UNL     1      11.678  15.650  21.460  0.00  0.00    +0.000 OA
ATOM     11  C   UNL     1      11.308  15.168  19.158  0.00  0.00    +0.000 A 
ATOM     12  C   UNL     1      11.105  15.690  17.867  0.00  0.00    +0.000 A 
ATOM     13  C   UNL     1      11.485  15.006  16.708  0.00  0.00    +0.000 A 
ATOM     14  C   UNL     1      12.013  13.746  16.807  0.00  0.00    +0.000 A 
ATOM     15  C   UNL     1      12.072  13.109  18.035  0.00  0.00    +0.000 A 
ATOM     16  C   UNL     1      11.604  13.781  19.199  0.00  0.00    +0.000 A 
ATOM     17  C   UNL     1      11.067  12.884  20.312  0.00  0.00    +0.000 C 
ATOM     18  C   UNL     1       9.927  11.971  19.852  0.00  0.00    +0.000 C 
ATOM     19  O   UNL     1      10.065  10.763  19.707  0.00  0.00    +0.000 OA
ATOM     20  O   UNL     1       8.689  12.551  19.752  0.00  0.00    +0.000 OA
ENDROOT
BRANCH  12  21
ATOM     21  O   UNL     1      10.309  16.762  17.599  0.00  0.00    +0.000 OA
ATOM     22  H   UNL     1       9.539  16.426  17.092  0.00  0.00    +0.000 HD
ENDBRANCH  12  21
BRANCH  14  23
ATOM     23  O   UNL     1      12.333  13.028  15.699  0.00  0.00    +0.000 OA
ATOM     24  H   UNL     1      11.519  12.838  15.201  0.00  0.00    +0.000 HD
ENDBRANCH  14  23
TORSDOF 2
ENDMDL
MODEL 5
REMARK VINA RESULT:      -5.6      8.429     10.217
REMARK  Name = 
REMARK  3 active torsions:
REMARK  status: ('A' for Active; 'I' for Inactive)
REMARK    1  A    between atoms: C_1  and  C_2
REMARK    2  A    between atoms: C_12  and  O_13
REMARK    3  A    between atoms: C_15  and  O_16
REMARK                            x       y       z     vdW  Elec       q    Type
REMARK                         _______ _______ _______ _____ _____    ______ ____
ROOT
ATOM      1  C   UNL     1      -1.161  13.458  23.271  0.00  0.00    +0.000 C 
ATOM      2  C   UNL     1      -1.554  12.193  22.509  0.00  0.00    +0.000 C 
ATOM      3  C   UNL     1      -1.508  10.791  23.155  0.00  0.00    +0.000 C 
ATOM      4  C   UNL     1      -0.273   9.862  23.351  0.00  0.00    +0.000 C 
ATOM      5  C   UNL     1       0.932   9.564  22.434  0.00  0.00    +0.000 C 
ATOM      6  O   UNL     1       2.046   9.381  22.936  0.00  0.00    +0.000 OA
ATOM      7  C   UNL     1       0.857   9.526  20.955  0.00  0.00    +0.000 C 
ATOM      8  C   UNL     1      -0.326   9.709  20.379  0.00  0.00    +0.000 C 
ATOM      9  C   UNL     1      -0.480  10.704  19.291  0.00  0.00    +0.000 C 
ATOM     10  O   UNL     1      -1.144  10.396  18.306  0.00  0.00    +0.000 OA
ATOM     11  C   UNL     1      -0.166  12.166  19.563  0.00  0.00    +0.000 A 
ATOM     12  C   UNL     1       1.000  12.673  20.165  0.00  0.00    +0.000 A 
ATOM     13  C   UNL     1       1.228  14.043  20.331  0.00  0.00    +0.000 A 
ATOM     14  C   UNL     1       0.261  14.941  19.966  0.00  0.00    +0.000 A 
ATOM     15  C   UNL     1      -0.977  14.495  19.534  0.00  0.00    +0.000 A 
ATOM     16  C   UNL     1      -1.230  13.097  19.448  0.00  0.00    +0.000 A 
ATOM     17  C   UNL     1      -2.685  12.674  19.639  0.00  0.00    +0.000 C 
ATOM     18  C   UNL     1      -3.276  13.140  20.972  0.00  0.00    +0.000 C 
ATOM     19  O   UNL     1      -4.110  14.035  21.049  0.00  0.00    +0.000 OA
ATOM     20  O   UNL     1      -2.939  12.400  22.077  0.00  0.00    +0.000 OA
ENDROOT
BRANCH  12  21
ATOM     21  O   UNL     1       1.886  11.910  20.863  0.00  0.00    +0.000 OA
ATOM     22  H   UNL     1       2.193  12.453  21.621  0.00  0.00    +0.000 HD
ENDBRANCH  12  21
BRANCH  14  23
ATOM     23  O   UNL     1       0.424  16.274  20.172  0.00  0.00    +0.000 OA
ATOM     24  H   UNL     1      -0.342  16.745  19.801  0.00  0.00    +0.000 HD
ENDBRANCH  14  23
TORSDOF 2
ENDMDL
MODEL 6
REMARK VINA RESULT:      -5.5      1.863      5.007
REMARK  Name = 
REMARK  3 active torsions:
REMARK  status: ('A' for Active; 'I' for Inactive)
REMARK    1  A    between atoms: C_1  and  C_2
REMARK    2  A    between atoms: C_12  and  O_13
REMARK    3  A    between atoms: C_15  and  O_16
REMARK                            x       y       z     vdW  Elec       q    Type
REMARK                         _______ _______ _______ _____ _____    ______ ____
ROOT
ATOM      1  C   UNL     1       8.144  13.454  18.017  0.00  0.00    +0.000 C 
ATOM      2  C   UNL     1       8.219  14.308  19.283  0.00  0.00    +0.000 C 
ATOM      3  C   UNL     1       7.257  15.488  19.542  0.00  0.00    +0.000 C 
ATOM      4  C   UNL     1       7.341  16.940  18.985  0.00  0.00    +0.000 C 
ATOM      5  C   UNL     1       8.548  17.874  18.758  0.00  0.00    +0.000 C 
ATOM      6  O   UNL     1       8.555  18.631  17.782  0.00  0.00    +0.000 OA
ATOM      7  C   UNL     1       9.751  17.897  19.623  0.00  0.00    +0.000 C 
ATOM      8  C   UNL     1       9.776  17.104  20.688  0.00  0.00    +0.000 C 
ATOM      9  C   UNL     1      10.937  16.214  20.929  0.00  0.00    +0.000 C 
ATOM     10  O   UNL     1      11.380  16.126  22.070  0.00  0.00    +0.000 OA
ATOM     11  C   UNL     1      11.301  15.163  19.894  0.00  0.00    +0.000 A 
ATOM     12  C   UNL     1      11.463  15.370  18.512  0.00  0.00    +0.000 A 
ATOM     13  C   UNL     1      11.851  14.352  17.636  0.00  0.00    +0.000 A 
ATOM     14  C   UNL     1      12.016  13.077  18.109  0.00  0.00    +0.000 A 
ATOM     15  C   UNL     1      11.699  12.775  19.422  0.00  0.00    +0.000 A 
ATOM     16  C   UNL     1      11.224  13.802  20.286  0.00  0.00    +0.000 A 
ATOM     17  C   UNL     1      10.294  13.346  21.408  0.00  0.00    +0.000 C 
ATOM     18  C   UNL     1       9.057  12.602  20.899  0.00  0.00    +0.000 C 
ATOM     19  O   UNL     1       8.906  11.394  21.041  0.00  0.00    +0.000 OA
ATOM     20  O   UNL     1       8.042  13.380  20.404  0.00  0.00    +0.000 OA
ENDROOT
BRANCH  12  21
ATOM     21  O   UNL     1      11.024  16.480  17.855  0.00  0.00    +0.000 OA
ATOM     22  H   UNL     1      11.225  16.347  16.904  0.00  0.00    +0.000 HD
ENDBRANCH  12  21
BRANCH  14  23
ATOM     23  O   UNL     1      12.330  12.052  17.275  0.00  0.00    +0.000 OA
ATOM     24  H   UNL     1      11.551  11.840  16.731  0.00  0.00    +0.000 HD
ENDBRANCH  14  23
TORSDOF 2
ENDMDL
MODEL 7
REMARK VINA RESULT:      -5.4      1.783      4.089
REMARK  Name = 
REMARK  3 active torsions:
REMARK  status: ('A' for Active; 'I' for Inactive)
REMARK    1  A    between atoms: C_1  and  C_2
REMARK    2  A    between atoms: C_12  and  O_13
REMARK    3  A    between atoms: C_15  and  O_16
REMARK                            x       y       z     vdW  Elec       q    Type
REMARK                         _______ _______ _______ _____ _____    ______ ____
ROOT
ATOM      1  C   UNL     1       6.529  14.694  20.138  0.00  0.00    +0.000 C 
ATOM      2  C   UNL     1       7.782  14.738  19.264  0.00  0.00    +0.000 C 
ATOM      3  C   UNL     1       7.814  14.149  17.837  0.00  0.00    +0.000 C 
ATOM      4  C   UNL     1       8.003  12.661  17.413  0.00  0.00    +0.000 C 
ATOM      5  C   UNL     1       8.915  11.551  17.977  0.00  0.00    +0.000 C 
ATOM      6  O   UNL     1       8.507  10.386  18.005  0.00  0.00    +0.000 OA
ATOM      7  C   UNL     1      10.263  11.794  18.541  0.00  0.00    +0.000 C 
ATOM      8  C   UNL     1      10.741  13.034  18.519  0.00  0.00    +0.000 C 
ATOM      9  C   UNL     1      11.287  13.645  19.755  0.00  0.00    +0.000 C 
ATOM     10  O   UNL     1      12.330  14.288  19.678  0.00  0.00    +0.000 OA
ATOM     11  C   UNL     1      10.391  13.802  20.972  0.00  0.00    +0.000 A 
ATOM     12  C   UNL     1       9.588  12.804  21.554  0.00  0.00    +0.000 A 
ATOM     13  C   UNL     1       8.830  13.024  22.708  0.00  0.00    +0.000 A 
ATOM     14  C   UNL     1       8.798  14.272  23.272  0.00  0.00    +0.000 A 
ATOM     15  C   UNL     1       9.425  15.336  22.644  0.00  0.00    +0.000 A 
ATOM     16  C   UNL     1      10.124  15.120  21.423  0.00  0.00    +0.000 A 
ATOM     17  C   UNL     1      10.187  16.316  20.475  0.00  0.00    +0.000 C 
ATOM     18  C   UNL     1       8.807  16.856  20.094  0.00  0.00    +0.000 C 
ATOM     19  O   UNL     1       8.374  17.922  20.515  0.00  0.00    +0.000 OA
ATOM     20  O   UNL     1       8.127  16.156  19.130  0.00  0.00    +0.000 OA
ENDROOT
BRANCH  12  21
ATOM     21  O   UNL     1       9.265  11.635  20.935  0.00  0.00    +0.000 OA
ATOM     22  H   UNL     1      10.110  11.195  20.698  0.00  0.00    +0.000 HD
ENDBRANCH  12  21
BRANCH  14  23
ATOM     23  O   UNL     1       8.023  14.536  24.355  0.00  0.00    +0.000 OA
ATOM     24  H   UNL     1       7.666  15.437  24.274  0.00  0.00    +0.000 HD
ENDBRANCH  14  23
TORSDOF 2
ENDMDL
MODEL 8
REMARK VINA RESULT:      -5.4      1.964      3.212
REMARK  Name = 
REMARK  3 active torsions:
REMARK  status: ('A' for Active; 'I' for Inactive)
REMARK    1  A    between atoms: C_1  and  C_2
REMARK    2  A    between atoms: C_12  and  O_13
REMARK    3  A    between atoms: C_15  and  O_16
REMARK                            x       y       z     vdW  Elec       q    Type
REMARK                         _______ _______ _______ _____ _____    ______ ____
ROOT
ATOM      1  C   UNL     1       7.522  14.515  20.369  0.00  0.00    +0.000 C 
ATOM      2  C   UNL     1       8.069  14.680  18.952  0.00  0.00    +0.000 C 
ATOM      3  C   UNL     1       8.048  13.531  17.919  0.00  0.00    +0.000 C 
ATOM      4  C   UNL     1       9.043  12.340  17.783  0.00  0.00    +0.000 C 
ATOM      5  C   UNL     1      10.576  12.272  17.944  0.00  0.00    +0.000 C 
ATOM      6  O   UNL     1      11.090  11.264  18.440  0.00  0.00    +0.000 OA
ATOM      7  C   UNL     1      11.496  13.373  17.577  0.00  0.00    +0.000 C 
ATOM      8  C   UNL     1      10.981  14.469  17.031  0.00  0.00    +0.000 C 
ATOM      9  C   UNL     1      11.320  15.805  17.578  0.00  0.00    +0.000 C 
ATOM     10  O   UNL     1      11.570  16.713  16.790  0.00  0.00    +0.000 OA
ATOM     11  C   UNL     1      10.984  16.130  19.023  0.00  0.00    +0.000 A 
ATOM     12  C   UNL     1      11.289  15.345  20.150  0.00  0.00    +0.000 A 
ATOM     13  C   UNL     1      10.985  15.746  21.454  0.00  0.00    +0.000 A 
ATOM     14  C   UNL     1      10.300  16.914  21.662  0.00  0.00    +0.000 A 
ATOM     15  C   UNL     1       9.816  17.639  20.586  0.00  0.00    +0.000 A 
ATOM     16  C   UNL     1      10.058  17.178  19.262  0.00  0.00    +0.000 A 
ATOM     17  C   UNL     1       9.008  17.566  18.222  0.00  0.00    +0.000 C 
ATOM     18  C   UNL     1       7.597  17.103  18.592  0.00  0.00    +0.000 C 
ATOM     19  O   UNL     1       6.719  17.878  18.951  0.00  0.00    +0.000 OA
ATOM     20  O   UNL     1       7.310  15.782  18.355  0.00  0.00    +0.000 OA
ENDROOT
BRANCH  12  21
ATOM     21  O   UNL     1      11.665  14.037  20.084  0.00  0.00    +0.000 OA
ATOM     22  H   UNL     1      12.115  13.913  19.220  0.00  0.00    +0.000 HD
ENDBRANCH  12  21
BRANCH  14  23
ATOM     23  O   UNL     1       9.933  17.302  22.911  0.00  0.00    +0.000 OA
ATOM     24  H   UNL     1      10.126  16.579  23.534  0.00  0.00    +0.000 HD
ENDBRANCH  14  23
TORSDOF 2
ENDMDL
MODEL 9
REMARK VINA RESULT:      -5.4      1.761      4.330
REMARK  Name = 
REMARK  3 active torsions:
REMARK  status: ('A' for Active; 'I' for Inactive)
REMARK    1  A    between atoms: C_1  and  C_2
REMARK    2  A    between atoms: C_12  and  O_13
REMARK    3  A    between atoms: C_15  and  O_16
REMARK                            x       y       z     vdW  Elec       q    Type
REMARK                         _______ _______ _______ _____ _____    ______ ____
ROOT
ATOM      1  C   UNL     1       7.950  14.018  21.374  0.00  0.00    +0.000 C 
ATOM      2  C   UNL     1       9.428  14.075  20.987  0.00  0.00    +0.000 C 
ATOM      3  C   UNL     1      10.479  14.811  21.847  0.00  0.00    +0.000 C 
ATOM      4  C   UNL     1      10.795  16.336  21.885  0.00  0.00    +0.000 C 
ATOM      5  C   UNL     1      10.866  17.389  20.759  0.00  0.00    +0.000 C 
ATOM      6  O   UNL     1      10.481  18.542  20.980  0.00  0.00    +0.000 OA
ATOM      7  C   UNL     1      11.333  17.099  19.383  0.00  0.00    +0.000 C 
ATOM      8  C   UNL     1      11.765  15.873  19.110  0.00  0.00    +0.000 C 
ATOM      9  C   UNL     1      11.236  15.140  17.934  0.00  0.00    +0.000 C 
ATOM     10  O   UNL     1      12.025  14.518  17.230  0.00  0.00    +0.000 OA
ATOM     11  C   UNL     1       9.748  14.849  17.840  0.00  0.00    +0.000 A 
ATOM     12  C   UNL     1       8.702  15.774  18.014  0.00  0.00    +0.000 A 
ATOM     13  C   UNL     1       7.356  15.429  17.860  0.00  0.00    +0.000 A 
ATOM     14  C   UNL     1       7.015  14.128  17.598  0.00  0.00    +0.000 A 
ATOM     15  C   UNL     1       7.986  13.141  17.591  0.00  0.00    +0.000 A 
ATOM     16  C   UNL     1       9.345  13.489  17.834  0.00  0.00    +0.000 A 
ATOM     17  C   UNL     1      10.205  12.399  18.471  0.00  0.00    +0.000 C 
ATOM     18  C   UNL     1       9.644  11.891  19.801  0.00  0.00    +0.000 C 
ATOM     19  O   UNL     1       9.136  10.783  19.925  0.00  0.00    +0.000 OA
ATOM     20  O   UNL     1       9.873  12.682  20.898  0.00  0.00    +0.000 OA
ENDROOT
BRANCH  12  21
ATOM     21  O   UNL     1       8.861  16.999  18.588  0.00  0.00    +0.000 OA
ATOM     22  H   UNL     1       8.504  16.935  19.501  0.00  0.00    +0.000 HD
ENDBRANCH  12  21
BRANCH  14  23
ATOM     23  O   UNL     1       5.715  13.747  17.504  0.00  0.00    +0.000 OA
ATOM     24  H   UNL     1       5.259  13.979  18.332  0.00  0.00    +0.000 HD
ENDBRANCH  14  23
TORSDOF 2
ENDMDL
