MODEL 1
REMARK VINA RESULT:      -7.3      0.000      0.000
REMARK  Name = 
REMARK  5 active torsions:
REMARK  status: ('A' for Active; 'I' for Inactive)
REMARK    1  A    between atoms: C_1  and  O_2
REMARK    2  A    between atoms: O_2  and  C_3
REMARK    3  A    between atoms: N_9  and  N_10
REMARK    4  A    between atoms: C_11  and  C_12
REMARK    5  A    between atoms: C_21  and  C_22
REMARK                            x       y       z     vdW  Elec       q    Type
REMARK                         _______ _______ _______ _____ _____    ______ ____
ROOT
ATOM      1  N   UNL     1      -0.090  11.171  21.300  0.00  0.00    +0.000 N 
ATOM      2  C   UNL     1       0.436   9.885  21.444  0.00  0.00    +0.000 A 
ATOM      3  N   UNL     1       0.283   9.517  22.705  0.00  0.00    +0.000 NA
ATOM      4  N   UNL     1      -0.464  10.461  23.348  0.00  0.00    +0.000 NA
ATOM      5  C   UNL     1      -0.775  11.412  22.488  0.00  0.00    +0.000 A 
ENDROOT
BRANCH   1  12
ATOM      6  C   UNL     1       4.012  16.433  19.099  0.00  0.00    +0.000 A 
ATOM      7  C   UNL     1       3.829  15.853  17.847  0.00  0.00    +0.000 A 
ATOM      8  C   UNL     1       2.917  14.801  17.679  0.00  0.00    +0.000 A 
ATOM      9  C   UNL     1       2.182  14.328  18.786  0.00  0.00    +0.000 A 
ATOM     10  N   UNL     1       1.233  13.326  18.764  0.00  0.00    +0.000 NA
ATOM     11  C   UNL     1       0.825  13.054  19.991  0.00  0.00    +0.000 A 
ATOM     12  N   UNL     1      -0.032  12.039  20.207  0.00  0.00    +0.000 N 
ATOM     13  S   UNL     1       1.425  14.113  21.198  0.00  0.00    +0.000 S 
ATOM     14  C   UNL     1       2.409  14.902  20.038  0.00  0.00    +0.000 A 
ATOM     15  C   UNL     1       3.322  15.946  20.216  0.00  0.00    +0.000 A 
ATOM     16  H   UNL     1      -0.682  11.853  19.466  0.00  0.00    +0.000 HD
BRANCH   6  18
ATOM     17  C   UNL     1       4.908  17.902  20.718  0.00  0.00    +0.000 C 
ATOM     18  O   UNL     1       4.875  17.463  19.363  0.00  0.00    +0.000 OA
ENDBRANCH   6  18
ENDBRANCH   1  12
BRANCH   2  19
ATOM     19  C   UNL     1       1.114   9.064  20.431  0.00  0.00    +0.000 A 
ATOM     20  C   UNL     1       1.610   7.800  20.790  0.00  0.00    +0.000 A 
ATOM     21  C   UNL     1       2.312   7.016  19.871  0.00  0.00    +0.000 A 
ATOM     22  C   UNL     1       2.525   7.490  18.579  0.00  0.00    +0.000 A 
ATOM     23 CL   UNL     1       3.419   6.547  17.453  0.00  0.00    +0.000 Cl
ATOM     24  C   UNL     1       2.013   8.727  18.194  0.00  0.00    +0.000 A 
ATOM     25  C   UNL     1       1.289   9.497  19.109  0.00  0.00    +0.000 A 
ENDBRANCH   2  19
BRANCH   5  26
ATOM     26  C   UNL     1      -1.663  12.536  22.795  0.00  0.00    +0.000 A 
ATOM     27  C   UNL     1      -1.288  13.650  23.557  0.00  0.00    +0.000 A 
ATOM     28  C   UNL     1      -2.207  14.669  23.811  0.00  0.00    +0.000 A 
ATOM     29  C   UNL     1      -3.469  14.568  23.257  0.00  0.00    +0.000 A 
ATOM     30  N   UNL     1      -3.858  13.546  22.475  0.00  0.00    +0.000 NA
ATOM     31  C   UNL     1      -2.947  12.562  22.255  0.00  0.00    +0.000 A 
ENDBRANCH   5  26
TORSDOF 4
ENDMDL
MODEL 2
REMARK VINA RESULT:      -7.0      0.576      1.276
REMARK  Name = 
REMARK  5 active torsions:
REMARK  status: ('A' for Active; 'I' for Inactive)
REMARK    1  A    between atoms: C_1  and  O_2
REMARK    2  A    between atoms: O_2  and  C_3
REMARK    3  A    between atoms: N_9  and  N_10
REMARK    4  A    between atoms: C_11  and  C_12
REMARK    5  A    between atoms: C_21  and  C_22
REMARK                            x       y       z     vdW  Elec       q    Type
REMARK                         _______ _______ _______ _____ _____    ______ ____
ROOT
ATOM      1  N   UNL     1      -0.245  11.212  21.318  0.00  0.00    +0.000 N 
ATOM      2  C   UNL     1       0.296   9.943  21.539  0.00  0.00    +0.000 A 
ATOM      3  N   UNL     1       0.080   9.617  22.801  0.00  0.00    +0.000 NA
ATOM      4  N   UNL     1      -0.719  10.567  23.367  0.00  0.00    +0.000 NA
ATOM      5  C   UNL     1      -1.000  11.480  22.457  0.00  0.00    +0.000 A 
ENDROOT
BRANCH   1  12
ATOM      6  C   UNL     1       3.921  16.424  19.121  0.00  0.00    +0.000 A 
ATOM      7  C   UNL     1       3.799  15.799  17.883  0.00  0.00    +0.000 A 
ATOM      8  C   UNL     1       2.901  14.736  17.712  0.00  0.00    +0.000 A 
ATOM      9  C   UNL     1       2.120  14.296  18.800  0.00  0.00    +0.000 A 
ATOM     10  N   UNL     1       1.179  13.286  18.771  0.00  0.00    +0.000 NA
ATOM     11  C   UNL     1       0.717  13.054  19.986  0.00  0.00    +0.000 A 
ATOM     12  N   UNL     1      -0.143  12.041  20.200  0.00  0.00    +0.000 N 
ATOM     13  S   UNL     1       1.255  14.160  21.182  0.00  0.00    +0.000 S 
ATOM     14  C   UNL     1       2.286  14.915  20.040  0.00  0.00    +0.000 A 
ATOM     15  C   UNL     1       3.184  15.972  20.222  0.00  0.00    +0.000 A 
ATOM     16  H   UNL     1      -0.757  11.825  19.437  0.00  0.00    +0.000 HD
BRANCH   6  18
ATOM     17  C   UNL     1       5.883  17.158  20.212  0.00  0.00    +0.000 C 
ATOM     18  O   UNL     1       4.765  17.470  19.387  0.00  0.00    +0.000 OA
ENDBRANCH   6  18
ENDBRANCH   1  12
BRANCH   2  19
ATOM     19  C   UNL     1       1.045   9.100  20.595  0.00  0.00    +0.000 A 
ATOM     20  C   UNL     1       1.227   9.543  19.275  0.00  0.00    +0.000 A 
ATOM     21  C   UNL     1       1.882   8.744  18.334  0.00  0.00    +0.000 A 
ATOM     22  C   UNL     1       2.362   7.491  18.705  0.00  0.00    +0.000 A 
ATOM     23 CL   UNL     1       3.136   6.488  17.543  0.00  0.00    +0.000 Cl
ATOM     24  C   UNL     1       2.219   7.047  20.018  0.00  0.00    +0.000 A 
ATOM     25  C   UNL     1       1.586   7.861  20.963  0.00  0.00    +0.000 A 
ENDBRANCH   2  19
BRANCH   5  26
ATOM     26  C   UNL     1      -1.924  12.596  22.674  0.00  0.00    +0.000 A 
ATOM     27  C   UNL     1      -3.193  12.693  22.088  0.00  0.00    +0.000 A 
ATOM     28  C   UNL     1      -4.001  13.802  22.340  0.00  0.00    +0.000 A 
ATOM     29  C   UNL     1      -3.536  14.769  23.210  0.00  0.00    +0.000 A 
ATOM     30  N   UNL     1      -2.349  14.694  23.839  0.00  0.00    +0.000 NA
ATOM     31  C   UNL     1      -1.578  13.610  23.564  0.00  0.00    +0.000 A 
ENDBRANCH   5  26
TORSDOF 4
ENDMDL
MODEL 3
REMARK VINA RESULT:      -6.9      2.230      3.066
REMARK  Name = 
REMARK  5 active torsions:
REMARK  status: ('A' for Active; 'I' for Inactive)
REMARK    1  A    between atoms: C_1  and  O_2
REMARK    2  A    between atoms: O_2  and  C_3
REMARK    3  A    between atoms: N_9  and  N_10
REMARK    4  A    between atoms: C_11  and  C_12
REMARK    5  A    between atoms: C_21  and  C_22
REMARK                            x       y       z     vdW  Elec       q    Type
REMARK                         _______ _______ _______ _____ _____    ______ ____
ROOT
ATOM      1  N   UNL     1       0.323  12.132  19.867  0.00  0.00    +0.000 N 
ATOM      2  C   UNL     1      -0.011  10.914  19.268  0.00  0.00    +0.000 A 
ATOM      3  N   UNL     1      -1.247  11.008  18.807  0.00  0.00    +0.000 NA
ATOM      4  N   UNL     1      -1.670  12.298  18.949  0.00  0.00    +0.000 NA
ATOM      5  C   UNL     1      -0.698  13.003  19.496  0.00  0.00    +0.000 A 
ENDROOT
BRANCH   1  12
ATOM      6  C   UNL     1       5.582  16.772  19.462  0.00  0.00    +0.000 A 
ATOM      7  C   UNL     1       5.388  16.885  20.836  0.00  0.00    +0.000 A 
ATOM      8  C   UNL     1       4.513  16.016  21.502  0.00  0.00    +0.000 A 
ATOM      9  C   UNL     1       3.824  15.023  20.776  0.00  0.00    +0.000 A 
ATOM     10  N   UNL     1       2.959  14.083  21.301  0.00  0.00    +0.000 NA
ATOM     11  C   UNL     1       2.400  13.383  20.332  0.00  0.00    +0.000 A 
ATOM     12  N   UNL     1       1.448  12.474  20.618  0.00  0.00    +0.000 N 
ATOM     13  S   UNL     1       3.025  13.696  18.766  0.00  0.00    +0.000 S 
ATOM     14  C   UNL     1       4.008  14.952  19.394  0.00  0.00    +0.000 A 
ATOM     15  C   UNL     1       4.873  15.820  18.720  0.00  0.00    +0.000 A 
ATOM     16  H   UNL     1       1.536  12.020  21.508  0.00  0.00    +0.000 HD
BRANCH   6  18
ATOM     17  C   UNL     1       7.768  17.136  18.645  0.00  0.00    +0.000 C 
ATOM     18  O   UNL     1       6.414  17.570  18.722  0.00  0.00    +0.000 OA
ENDBRANCH   6  18
ENDBRANCH   1  12
BRANCH   2  19
ATOM     19  C   UNL     1       0.796   9.688  19.196  0.00  0.00    +0.000 A 
ATOM     20  C   UNL     1       0.960   8.904  20.349  0.00  0.00    +0.000 A 
ATOM     21  C   UNL     1       1.769   7.765  20.334  0.00  0.00    +0.000 A 
ATOM     22  C   UNL     1       2.422   7.397  19.161  0.00  0.00    +0.000 A 
ATOM     23 CL   UNL     1       3.447   6.016  19.144  0.00  0.00    +0.000 Cl
ATOM     24  C   UNL     1       2.247   8.143  17.998  0.00  0.00    +0.000 A 
ATOM     25  C   UNL     1       1.417   9.268  18.011  0.00  0.00    +0.000 A 
ENDBRANCH   2  19
BRANCH   5  26
ATOM     26  C   UNL     1      -0.752  14.453  19.699  0.00  0.00    +0.000 A 
ATOM     27  C   UNL     1      -0.319  15.397  18.759  0.00  0.00    +0.000 A 
ATOM     28  C   UNL     1      -0.395  16.760  19.045  0.00  0.00    +0.000 A 
ATOM     29  C   UNL     1      -0.946  17.148  20.252  0.00  0.00    +0.000 A 
ATOM     30  N   UNL     1      -1.425  16.282  21.162  0.00  0.00    +0.000 NA
ATOM     31  C   UNL     1      -1.326  14.961  20.863  0.00  0.00    +0.000 A 
ENDBRANCH   5  26
TORSDOF 4
ENDMDL
MODEL 4
REMARK VINA RESULT:      -6.9      4.080      6.212
REMARK  Name = 
REMARK  5 active torsions:
REMARK  status: ('A' for Active; 'I' for Inactive)
REMARK    1  A    between atoms: C_1  and  O_2
REMARK    2  A    between atoms: O_2  and  C_3
REMARK    3  A    between atoms: N_9  and  N_10
REMARK    4  A    between atoms: C_11  and  C_12
REMARK    5  A    between atoms: C_21  and  C_22
REMARK                            x       y       z     vdW  Elec       q    Type
REMARK                         _______ _______ _______ _____ _____    ______ ____
ROOT
ATOM      1  N   UNL     1      -2.172  12.408  19.609  0.00  0.00    +0.000 N 
ATOM      2  C   UNL     1      -3.328  12.013  18.930  0.00  0.00    +0.000 A 
ATOM      3  N   UNL     1      -4.365  12.245  19.714  0.00  0.00    +0.000 NA
ATOM      4  N   UNL     1      -3.936  12.922  20.819  0.00  0.00    +0.000 NA
ATOM      5  C   UNL     1      -2.634  13.111  20.719  0.00  0.00    +0.000 A 
ENDROOT
BRANCH   1  12
ATOM      6  C   UNL     1       2.470   7.137  19.502  0.00  0.00    +0.000 A 
ATOM      7  C   UNL     1       2.875   7.717  18.303  0.00  0.00    +0.000 A 
ATOM      8  C   UNL     1       2.355   8.955  17.903  0.00  0.00    +0.000 A 
ATOM      9  C   UNL     1       1.414   9.617  18.720  0.00  0.00    +0.000 A 
ATOM     10  N   UNL     1       0.842  10.848  18.470  0.00  0.00    +0.000 NA
ATOM     11  C   UNL     1      -0.081  11.118  19.375  0.00  0.00    +0.000 A 
ATOM     12  N   UNL     1      -0.832  12.229  19.263  0.00  0.00    +0.000 N 
ATOM     13  S   UNL     1      -0.172   9.992  20.665  0.00  0.00    +0.000 S 
ATOM     14  C   UNL     1       0.997   8.999  19.900  0.00  0.00    +0.000 A 
ATOM     15  C   UNL     1       1.505   7.760  20.302  0.00  0.00    +0.000 A 
ATOM     16  H   UNL     1      -0.381  13.016  18.832  0.00  0.00    +0.000 HD
BRANCH   6  18
ATOM     17  C   UNL     1       1.928   4.925  20.129  0.00  0.00    +0.000 C 
ATOM     18  O   UNL     1       2.921   5.935  19.979  0.00  0.00    +0.000 OA
ENDBRANCH   6  18
ENDBRANCH   1  12
BRANCH   2  19
ATOM     19  C   UNL     1      -3.429  11.379  17.607  0.00  0.00    +0.000 A 
ATOM     20  C   UNL     1      -2.519  10.369  17.258  0.00  0.00    +0.000 A 
ATOM     21  C   UNL     1      -2.547   9.785  15.988  0.00  0.00    +0.000 A 
ATOM     22  C   UNL     1      -3.489  10.207  15.054  0.00  0.00    +0.000 A 
ATOM     23 CL   UNL     1      -3.506   9.518  13.479  0.00  0.00    +0.000 Cl
ATOM     24  C   UNL     1      -4.422  11.184  15.393  0.00  0.00    +0.000 A 
ATOM     25  C   UNL     1      -4.407  11.748  16.673  0.00  0.00    +0.000 A 
ENDBRANCH   2  19
BRANCH   5  26
ATOM     26  C   UNL     1      -1.845  13.899  21.669  0.00  0.00    +0.000 A 
ATOM     27  C   UNL     1      -1.293  15.154  21.384  0.00  0.00    +0.000 A 
ATOM     28  C   UNL     1      -0.542  15.827  22.348  0.00  0.00    +0.000 A 
ATOM     29  C   UNL     1      -0.397  15.244  23.592  0.00  0.00    +0.000 A 
ATOM     30  N   UNL     1      -0.953  14.067  23.931  0.00  0.00    +0.000 NA
ATOM     31  C   UNL     1      -1.668  13.428  22.968  0.00  0.00    +0.000 A 
ENDBRANCH   5  26
TORSDOF 4
ENDMDL
MODEL 5
REMARK VINA RESULT:      -6.8      1.061      1.282
REMARK  Name = 
REMARK  5 active torsions:
REMARK  status: ('A' for Active; 'I' for Inactive)
REMARK    1  A    between atoms: C_1  and  O_2
REMARK    2  A    between atoms: O_2  and  C_3
REMARK    3  A    between atoms: N_9  and  N_10
REMARK    4  A    between atoms: C_11  and  C_12
REMARK    5  A    between atoms: C_21  and  C_22
REMARK                            x       y       z     vdW  Elec       q    Type
REMARK                         _______ _______ _______ _____ _____    ______ ____
ROOT
ATOM      1  N   UNL     1       0.161  10.870  20.759  0.00  0.00    +0.000 N 
ATOM      2  C   UNL     1       0.566   9.543  20.922  0.00  0.00    +0.000 A 
ATOM      3  N   UNL     1       0.195   9.144  22.126  0.00  0.00    +0.000 NA
ATOM      4  N   UNL     1      -0.574  10.119  22.692  0.00  0.00    +0.000 NA
ATOM      5  C   UNL     1      -0.682  11.120  21.840  0.00  0.00    +0.000 A 
ENDROOT
BRANCH   1  12
ATOM      6  C   UNL     1       4.972  15.808  19.409  0.00  0.00    +0.000 A 
ATOM      7  C   UNL     1       4.919  15.294  18.117  0.00  0.00    +0.000 A 
ATOM      8  C   UNL     1       3.952  14.339  17.773  0.00  0.00    +0.000 A 
ATOM      9  C   UNL     1       3.030  13.894  18.743  0.00  0.00    +0.000 A 
ATOM     10  N   UNL     1       2.011  12.986  18.541  0.00  0.00    +0.000 NA
ATOM     11  C   UNL     1       1.411  12.708  19.684  0.00  0.00    +0.000 A 
ATOM     12  N   UNL     1       0.447  11.768  19.730  0.00  0.00    +0.000 N 
ATOM     13  S   UNL     1       1.923  13.661  21.014  0.00  0.00    +0.000 S 
ATOM     14  C   UNL     1       3.126  14.398  20.042  0.00  0.00    +0.000 A 
ATOM     15  C   UNL     1       4.091  15.346  20.395  0.00  0.00    +0.000 A 
ATOM     16  H   UNL     1      -0.105  11.672  18.898  0.00  0.00    +0.000 HD
BRANCH   6  18
ATOM     17  C   UNL     1       6.878  17.106  18.898  0.00  0.00    +0.000 C 
ATOM     18  O   UNL     1       5.875  16.743  19.841  0.00  0.00    +0.000 OA
ENDBRANCH   6  18
ENDBRANCH   1  12
BRANCH   2  19
ATOM     19  C   UNL     1       1.333   8.709  19.986  0.00  0.00    +0.000 A 
ATOM     20  C   UNL     1       1.818   7.463  20.415  0.00  0.00    +0.000 A 
ATOM     21  C   UNL     1       2.601   6.668  19.573  0.00  0.00    +0.000 A 
ATOM     22  C   UNL     1       2.907   7.114  18.290  0.00  0.00    +0.000 A 
ATOM     23 CL   UNL     1       3.900   6.158  17.262  0.00  0.00    +0.000 Cl
ATOM     24  C   UNL     1       2.409   8.332  17.835  0.00  0.00    +0.000 A 
ATOM     25  C   UNL     1       1.605   9.113  18.671  0.00  0.00    +0.000 A 
ENDBRANCH   2  19
BRANCH   5  26
ATOM     26  C   UNL     1      -1.525  12.298  22.061  0.00  0.00    +0.000 A 
ATOM     27  C   UNL     1      -2.629  12.636  21.267  0.00  0.00    +0.000 A 
ATOM     28  C   UNL     1      -3.367  13.787  21.544  0.00  0.00    +0.000 A 
ATOM     29  C   UNL     1      -3.007  14.551  22.639  0.00  0.00    +0.000 A 
ATOM     30  N   UNL     1      -1.991  14.237  23.461  0.00  0.00    +0.000 NA
ATOM     31  C   UNL     1      -1.281  13.118  23.160  0.00  0.00    +0.000 A 
ENDBRANCH   5  26
TORSDOF 4
ENDMDL
MODEL 6
REMARK VINA RESULT:      -6.8      4.144      6.042
REMARK  Name = 
REMARK  5 active torsions:
REMARK  status: ('A' for Active; 'I' for Inactive)
REMARK    1  A    between atoms: C_1  and  O_2
REMARK    2  A    between atoms: O_2  and  C_3
REMARK    3  A    between atoms: N_9  and  N_10
REMARK    4  A    between atoms: C_11  and  C_12
REMARK    5  A    between atoms: C_21  and  C_22
REMARK                            x       y       z     vdW  Elec       q    Type
REMARK                         _______ _______ _______ _____ _____    ______ ____
ROOT
ATOM      1  N   UNL     1      -2.470  12.584  20.003  0.00  0.00    +0.000 N 
ATOM      2  C   UNL     1      -3.594  12.113  19.320  0.00  0.00    +0.000 A 
ATOM      3  N   UNL     1      -4.646  12.260  20.107  0.00  0.00    +0.000 NA
ATOM      4  N   UNL     1      -4.266  12.954  21.219  0.00  0.00    +0.000 NA
ATOM      5  C   UNL     1      -2.981  13.238  21.121  0.00  0.00    +0.000 A 
ENDROOT
BRANCH   1  12
ATOM      6  C   UNL     1       2.388   7.564  19.261  0.00  0.00    +0.000 A 
ATOM      7  C   UNL     1       2.779   8.314  18.156  0.00  0.00    +0.000 A 
ATOM      8  C   UNL     1       2.211   9.574  17.917  0.00  0.00    +0.000 A 
ATOM      9  C   UNL     1       1.236  10.082  18.801  0.00  0.00    +0.000 A 
ATOM     10  N   UNL     1       0.616  11.312  18.709  0.00  0.00    +0.000 NA
ATOM     11  C   UNL     1      -0.325  11.421  19.629  0.00  0.00    +0.000 A 
ATOM     12  N   UNL     1      -1.121  12.506  19.656  0.00  0.00    +0.000 N 
ATOM     13  S   UNL     1      -0.380  10.130  20.756  0.00  0.00    +0.000 S 
ATOM     14  C   UNL     1       0.835   9.295  19.882  0.00  0.00    +0.000 A 
ATOM     15  C   UNL     1       1.391   8.035  20.123  0.00  0.00    +0.000 A 
ATOM     16  H   UNL     1      -0.700  13.361  19.340  0.00  0.00    +0.000 HD
BRANCH   6  18
ATOM     17  C   UNL     1       3.217   5.498  18.472  0.00  0.00    +0.000 C 
ATOM     18  O   UNL     1       2.884   6.328  19.580  0.00  0.00    +0.000 OA
ENDBRANCH   6  18
ENDBRANCH   1  12
BRANCH   2  19
ATOM     19  C   UNL     1      -3.651  11.489  17.990  0.00  0.00    +0.000 A 
ATOM     20  C   UNL     1      -2.755  10.455  17.678  0.00  0.00    +0.000 A 
ATOM     21  C   UNL     1      -2.738   9.878  16.405  0.00  0.00    +0.000 A 
ATOM     22  C   UNL     1      -3.622  10.331  15.430  0.00  0.00    +0.000 A 
ATOM     23 CL   UNL     1      -3.584   9.650  13.851  0.00  0.00    +0.000 Cl
ATOM     24  C   UNL     1      -4.542  11.334  15.730  0.00  0.00    +0.000 A 
ATOM     25  C   UNL     1      -4.571  11.891  17.012  0.00  0.00    +0.000 A 
ENDBRANCH   2  19
BRANCH   5  26
ATOM     26  C   UNL     1      -2.250  14.070  22.081  0.00  0.00    +0.000 A 
ATOM     27  C   UNL     1      -1.860  13.643  23.356  0.00  0.00    +0.000 A 
ATOM     28  C   UNL     1      -1.179  14.511  24.210  0.00  0.00    +0.000 A 
ATOM     29  C   UNL     1      -0.864  15.775  23.747  0.00  0.00    +0.000 A 
ATOM     30  N   UNL     1      -1.169  16.211  22.512  0.00  0.00    +0.000 NA
ATOM     31  C   UNL     1      -1.845  15.349  21.708  0.00  0.00    +0.000 A 
ENDBRANCH   5  26
TORSDOF 4
ENDMDL
MODEL 7
REMARK VINA RESULT:      -6.7      2.233      3.132
REMARK  Name = 
REMARK  5 active torsions:
REMARK  status: ('A' for Active; 'I' for Inactive)
REMARK    1  A    between atoms: C_1  and  O_2
REMARK    2  A    between atoms: O_2  and  C_3
REMARK    3  A    between atoms: N_9  and  N_10
REMARK    4  A    between atoms: C_11  and  C_12
REMARK    5  A    between atoms: C_21  and  C_22
REMARK                            x       y       z     vdW  Elec       q    Type
REMARK                         _______ _______ _______ _____ _____    ______ ____
ROOT
ATOM      1  N   UNL     1       0.287  12.081  19.844  0.00  0.00    +0.000 N 
ATOM      2  C   UNL     1       0.046  10.866  19.198  0.00  0.00    +0.000 A 
ATOM      3  N   UNL     1      -1.169  10.909  18.679  0.00  0.00    +0.000 NA
ATOM      4  N   UNL     1      -1.665  12.171  18.833  0.00  0.00    +0.000 NA
ATOM      5  C   UNL     1      -0.760  12.909  19.446  0.00  0.00    +0.000 A 
ENDROOT
BRANCH   1  12
ATOM      6  C   UNL     1       5.353  16.947  19.785  0.00  0.00    +0.000 A 
ATOM      7  C   UNL     1       5.083  17.030  21.148  0.00  0.00    +0.000 A 
ATOM      8  C   UNL     1       4.212  16.114  21.755  0.00  0.00    +0.000 A 
ATOM      9  C   UNL     1       3.606  15.104  20.979  0.00  0.00    +0.000 A 
ATOM     10  N   UNL     1       2.757  14.120  21.444  0.00  0.00    +0.000 NA
ATOM     11  C   UNL     1       2.280  13.412  20.437  0.00  0.00    +0.000 A 
ATOM     12  N   UNL     1       1.355  12.459  20.659  0.00  0.00    +0.000 N 
ATOM     13  S   UNL     1       2.972  13.777  18.911  0.00  0.00    +0.000 S 
ATOM     14  C   UNL     1       3.865  15.063  19.608  0.00  0.00    +0.000 A 
ATOM     15  C   UNL     1       4.726  15.978  18.993  0.00  0.00    +0.000 A 
ATOM     16  H   UNL     1       1.415  11.995  21.546  0.00  0.00    +0.000 HD
BRANCH   6  18
ATOM     17  C   UNL     1       7.452  17.244  18.743  0.00  0.00    +0.000 C 
ATOM     18  O   UNL     1       6.188  17.792  19.102  0.00  0.00    +0.000 OA
ENDBRANCH   6  18
ENDBRANCH   1  12
BRANCH   2  19
ATOM     19  C   UNL     1       0.920   9.685  19.134  0.00  0.00    +0.000 A 
ATOM     20  C   UNL     1       1.569   9.376  17.928  0.00  0.00    +0.000 A 
ATOM     21  C   UNL     1       2.359   8.229  17.812  0.00  0.00    +0.000 A 
ATOM     22  C   UNL     1       2.509   7.379  18.904  0.00  0.00    +0.000 A 
ATOM     23 CL   UNL     1       3.450   5.948  18.757  0.00  0.00    +0.000 Cl
ATOM     24  C   UNL     1       1.899   7.686  20.118  0.00  0.00    +0.000 A 
ATOM     25  C   UNL     1       1.129   8.847  20.238  0.00  0.00    +0.000 A 
ENDBRANCH   2  19
BRANCH   5  26
ATOM     26  C   UNL     1      -0.899  14.348  19.684  0.00  0.00    +0.000 A 
ATOM     27  C   UNL     1      -1.449  14.905  20.845  0.00  0.00    +0.000 A 
ATOM     28  C   UNL     1      -1.556  16.290  20.979  0.00  0.00    +0.000 A 
ATOM     29  C   UNL     1      -1.068  17.087  19.961  0.00  0.00    +0.000 A 
ATOM     30  N   UNL     1      -0.482  16.601  18.853  0.00  0.00    +0.000 NA
ATOM     31  C   UNL     1      -0.404  15.249  18.744  0.00  0.00    +0.000 A 
ENDBRANCH   5  26
TORSDOF 4
ENDMDL
MODEL 8
REMARK VINA RESULT:      -6.7      4.576      7.462
REMARK  Name = 
REMARK  5 active torsions:
REMARK  status: ('A' for Active; 'I' for Inactive)
REMARK    1  A    between atoms: C_1  and  O_2
REMARK    2  A    between atoms: O_2  and  C_3
REMARK    3  A    between atoms: N_9  and  N_10
REMARK    4  A    between atoms: C_11  and  C_12
REMARK    5  A    between atoms: C_21  and  C_22
REMARK                            x       y       z     vdW  Elec       q    Type
REMARK                         _______ _______ _______ _____ _____    ______ ____
ROOT
ATOM      1  N   UNL     1      -2.685  12.498  19.594  0.00  0.00    +0.000 N 
ATOM      2  C   UNL     1      -3.343  13.003  20.719  0.00  0.00    +0.000 A 
ATOM      3  N   UNL     1      -4.642  12.986  20.477  0.00  0.00    +0.000 NA
ATOM      4  N   UNL     1      -4.858  12.342  19.293  0.00  0.00    +0.000 NA
ATOM      5  C   UNL     1      -3.696  11.959  18.802  0.00  0.00    +0.000 A 
ENDROOT
BRANCH   1  12
ATOM      6  C   UNL     1       2.365   7.624  19.296  0.00  0.00    +0.000 A 
ATOM      7  C   UNL     1       2.780   8.336  18.174  0.00  0.00    +0.000 A 
ATOM      8  C   UNL     1       2.181   9.563  17.853  0.00  0.00    +0.000 A 
ATOM      9  C   UNL     1       1.152  10.076  18.669  0.00  0.00    +0.000 A 
ATOM     10  N   UNL     1       0.496  11.277  18.494  0.00  0.00    +0.000 NA
ATOM     11  C   UNL     1      -0.488  11.395  19.367  0.00  0.00    +0.000 A 
ATOM     12  N   UNL     1      -1.319  12.452  19.308  0.00  0.00    +0.000 N 
ATOM     13  S   UNL     1      -0.549  10.156  20.550  0.00  0.00    +0.000 S 
ATOM     14  C   UNL     1       0.730   9.326  19.769  0.00  0.00    +0.000 A 
ATOM     15  C   UNL     1       1.317   8.098  20.092  0.00  0.00    +0.000 A 
ATOM     16  H   UNL     1      -0.914  13.306  18.971  0.00  0.00    +0.000 HD
BRANCH   6  18
ATOM     17  C   UNL     1       3.164   5.498  18.646  0.00  0.00    +0.000 C 
ATOM     18  O   UNL     1       2.888   6.421  19.694  0.00  0.00    +0.000 OA
ENDBRANCH   6  18
ENDBRANCH   1  12
BRANCH   2  19
ATOM     19  C   UNL     1      -2.749  13.538  21.952  0.00  0.00    +0.000 A 
ATOM     20  C   UNL     1      -3.438  13.391  23.166  0.00  0.00    +0.000 A 
ATOM     21  C   UNL     1      -2.934  13.939  24.349  0.00  0.00    +0.000 A 
ATOM     22  C   UNL     1      -1.732  14.641  24.328  0.00  0.00    +0.000 A 
ATOM     23 CL   UNL     1      -1.124  15.348  25.772  0.00  0.00    +0.000 Cl
ATOM     24  C   UNL     1      -1.017  14.770  23.139  0.00  0.00    +0.000 A 
ATOM     25  C   UNL     1      -1.513  14.199  21.963  0.00  0.00    +0.000 A 
ENDBRANCH   2  19
BRANCH   5  26
ATOM     26  C   UNL     1      -3.544  11.142  17.595  0.00  0.00    +0.000 A 
ATOM     27  C   UNL     1      -2.796   9.960  17.533  0.00  0.00    +0.000 A 
ATOM     28  C   UNL     1      -2.696   9.253  16.335  0.00  0.00    +0.000 A 
ATOM     29  C   UNL     1      -3.385   9.726  15.234  0.00  0.00    +0.000 A 
ATOM     30  N   UNL     1      -4.160  10.825  15.258  0.00  0.00    +0.000 NA
ATOM     31  C   UNL     1      -4.228  11.500  16.435  0.00  0.00    +0.000 A 
ENDBRANCH   5  26
TORSDOF 4
ENDMDL
MODEL 9
REMARK VINA RESULT:      -6.7      4.132      7.185
REMARK  Name = 
REMARK  5 active torsions:
REMARK  status: ('A' for Active; 'I' for Inactive)
REMARK    1  A    between atoms: C_1  and  O_2
REMARK    2  A    between atoms: O_2  and  C_3
REMARK    3  A    between atoms: N_9  and  N_10
REMARK    4  A    between atoms: C_11  and  C_12
REMARK    5  A    between atoms: C_21  and  C_22
REMARK                            x       y       z     vdW  Elec       q    Type
REMARK                         _______ _______ _______ _____ _____    ______ ____
ROOT
ATOM      1  N   UNL     1       4.800  15.448  18.430  0.00  0.00    +0.000 N 
ATOM      2  C   UNL     1       6.177  15.584  18.621  0.00  0.00    +0.000 A 
ATOM      3  N   UNL     1       6.449  16.871  18.753  0.00  0.00    +0.000 NA
ATOM      4  N   UNL     1       5.274  17.562  18.809  0.00  0.00    +0.000 NA
ATOM      5  C   UNL     1       4.275  16.706  18.713  0.00  0.00    +0.000 A 
ENDROOT
BRANCH   1  12
ATOM      6  C   UNL     1      -0.800  12.034  20.947  0.00  0.00    +0.000 A 
ATOM      7  C   UNL     1      -1.130  11.891  19.602  0.00  0.00    +0.000 A 
ATOM      8  C   UNL     1      -0.224  12.277  18.605  0.00  0.00    +0.000 A 
ATOM      9  C   UNL     1       1.029  12.815  18.966  0.00  0.00    +0.000 A 
ATOM     10  N   UNL     1       2.028  13.207  18.098  0.00  0.00    +0.000 NA
ATOM     11  C   UNL     1       3.019  13.772  18.763  0.00  0.00    +0.000 A 
ATOM     12  N   UNL     1       4.056  14.315  18.098  0.00  0.00    +0.000 N 
ATOM     13  S   UNL     1       2.876  13.689  20.470  0.00  0.00    +0.000 S 
ATOM     14  C   UNL     1       1.323  12.981  20.321  0.00  0.00    +0.000 A 
ATOM     15  C   UNL     1       0.422  12.606  21.322  0.00  0.00    +0.000 A 
ATOM     16  H   UNL     1       4.292  13.874  17.228  0.00  0.00    +0.000 HD
BRANCH   6  18
ATOM     17  C   UNL     1      -1.029  10.823  22.962  0.00  0.00    +0.000 C 
ATOM     18  O   UNL     1      -1.614  11.686  21.992  0.00  0.00    +0.000 OA
ENDBRANCH   6  18
ENDBRANCH   1  12
BRANCH   2  19
ATOM     19  C   UNL     1       7.202  14.530  18.616  0.00  0.00    +0.000 A 
ATOM     20  C   UNL     1       7.350  13.722  17.477  0.00  0.00    +0.000 A 
ATOM     21  C   UNL     1       8.272  12.672  17.456  0.00  0.00    +0.000 A 
ATOM     22  C   UNL     1       9.056  12.419  18.578  0.00  0.00    +0.000 A 
ATOM     23 CL   UNL     1      10.167  11.107  18.572  0.00  0.00    +0.000 Cl
ATOM     24  C   UNL     1       8.947  13.229  19.706  0.00  0.00    +0.000 A 
ATOM     25  C   UNL     1       8.042  14.295  19.713  0.00  0.00    +0.000 A 
ENDBRANCH   2  19
BRANCH   5  26
ATOM     26  C   UNL     1       2.863  17.076  18.845  0.00  0.00    +0.000 A 
ATOM     27  C   UNL     1       1.971  17.172  17.770  0.00  0.00    +0.000 A 
ATOM     28  C   UNL     1       0.644  17.545  17.988  0.00  0.00    +0.000 A 
ATOM     29  C   UNL     1       0.232  17.772  19.288  0.00  0.00    +0.000 A 
ATOM     30  N   UNL     1       1.037  17.640  20.357  0.00  0.00    +0.000 NA
ATOM     31  C   UNL     1       2.326  17.288  20.112  0.00  0.00    +0.000 A 
ENDBRANCH   5  26
TORSDOF 4
ENDMDL
