MODEL 1
REMARK VINA RESULT:      -5.9      0.000      0.000
REMARK  Name = 
REMARK  3 active torsions:
REMARK  status: ('A' for Active; 'I' for Inactive)
REMARK    1  A    between atoms: C_1  and  C_2
REMARK    2  A    between atoms: C_8  and  C_9
REMARK    3  A    between atoms: C_19  and  C_20
REMARK                            x       y       z     vdW  Elec       q    Type
REMARK                         _______ _______ _______ _____ _____    ______ ____
ROOT
ATOM      1  C   UNL     1       9.337  10.113  19.335  0.00  0.00    +0.000 C 
ATOM      2  C   UNL     1       9.948  11.477  19.512  0.00  0.00    +0.000 C 
ATOM      3  O   UNL     1      10.795  11.897  18.720  0.00  0.00    +0.000 OA
ATOM      4  N   UNL     1       9.445  12.244  20.550  0.00  0.00    +0.000 N 
ATOM      5  N   UNL     1       8.739  11.728  21.625  0.00  0.00    +0.000 NA
ATOM      6  C   UNL     1       8.499  12.722  22.427  0.00  0.00    +0.000 C 
ATOM      7  C   UNL     1       7.730  12.704  23.715  0.00  0.00    +0.000 C 
ATOM      8  C   UNL     1       7.400  11.538  24.302  0.00  0.00    +0.000 C 
ATOM      9  C   UNL     1       7.388  14.075  24.230  0.00  0.00    +0.000 C 
ATOM     10  S   UNL     1       8.929  14.981  24.575  0.00  0.00    +0.000 S 
ATOM     11  C   UNL     1       9.671  14.969  22.906  0.00  0.00    +0.000 C 
ATOM     12  C   UNL     1       8.954  14.070  21.919  0.00  0.00    +0.000 C 
ATOM     13  C   UNL     1       9.781  13.656  20.703  0.00  0.00    +0.000 C 
ENDROOT
BRANCH   8  14
ATOM     14  C   UNL     1       6.635  11.462  25.555  0.00  0.00    +0.000 A 
ATOM     15  C   UNL     1       5.351  10.916  25.594  0.00  0.00    +0.000 A 
ATOM     16  C   UNL     1       4.673  10.821  26.811  0.00  0.00    +0.000 A 
ATOM     17  C   UNL     1       5.306  11.271  27.959  0.00  0.00    +0.000 A 
ATOM     18  N   UNL     1       6.553  11.793  27.963  0.00  0.00    +0.000 NA
ATOM     19  C   UNL     1       7.185  11.876  26.767  0.00  0.00    +0.000 A 
ENDBRANCH   8  14
BRANCH  13  20
ATOM     20  C   UNL     1       9.356  14.496  19.522  0.00  0.00    +0.000 A 
ATOM     21  C   UNL     1       8.019  14.530  19.092  0.00  0.00    +0.000 A 
ATOM     22  C   UNL     1       7.625  15.421  18.109  0.00  0.00    +0.000 A 
ATOM     23  C   UNL     1       8.592  16.248  17.566  0.00  0.00    +0.000 A 
ATOM     24  N   UNL     1       9.895  16.221  17.919  0.00  0.00    +0.000 NA
ATOM     25  C   UNL     1      10.253  15.339  18.877  0.00  0.00    +0.000 A 
ENDBRANCH  13  20
TORSDOF 2
ENDMDL
MODEL 2
REMARK VINA RESULT:      -5.7      1.327      1.728
REMARK  Name = 
REMARK  3 active torsions:
REMARK  status: ('A' for Active; 'I' for Inactive)
REMARK    1  A    between atoms: C_1  and  C_2
REMARK    2  A    between atoms: C_8  and  C_9
REMARK    3  A    between atoms: C_19  and  C_20
REMARK                            x       y       z     vdW  Elec       q    Type
REMARK                         _______ _______ _______ _____ _____    ______ ____
ROOT
ATOM      1  C   UNL     1      10.491  11.429  18.528  0.00  0.00    +0.000 C 
ATOM      2  C   UNL     1      11.037  12.765  18.956  0.00  0.00    +0.000 C 
ATOM      3  O   UNL     1      11.931  13.318  18.312  0.00  0.00    +0.000 OA
ATOM      4  N   UNL     1      10.423  13.357  20.048  0.00  0.00    +0.000 N 
ATOM      5  N   UNL     1       9.649  12.669  20.970  0.00  0.00    +0.000 NA
ATOM      6  C   UNL     1       9.309  13.527  21.885  0.00  0.00    +0.000 C 
ATOM      7  C   UNL     1       8.437  13.299  23.085  0.00  0.00    +0.000 C 
ATOM      8  C   UNL     1       8.100  12.051  23.463  0.00  0.00    +0.000 C 
ATOM      9  C   UNL     1       8.006  14.570  23.765  0.00  0.00    +0.000 C 
ATOM     10  S   UNL     1       9.480  15.447  24.372  0.00  0.00    +0.000 S 
ATOM     11  C   UNL     1      10.358  15.703  22.791  0.00  0.00    +0.000 C 
ATOM     12  C   UNL     1       9.758  14.945  21.624  0.00  0.00    +0.000 C 
ATOM     13  C   UNL     1      10.696  14.737  20.436  0.00  0.00    +0.000 C 
ENDROOT
BRANCH   8  14
ATOM     14  C   UNL     1       7.238  11.771  24.620  0.00  0.00    +0.000 A 
ATOM     15  C   UNL     1       7.667  12.018  25.925  0.00  0.00    +0.000 A 
ATOM     16  C   UNL     1       6.803  11.780  26.997  0.00  0.00    +0.000 A 
ATOM     17  C   UNL     1       5.529  11.307  26.728  0.00  0.00    +0.000 A 
ATOM     18  N   UNL     1       5.073  11.069  25.478  0.00  0.00    +0.000 NA
ATOM     19  C   UNL     1       5.935  11.305  24.458  0.00  0.00    +0.000 A 
ENDBRANCH   8  14
BRANCH  13  20
ATOM     20  C   UNL     1      10.341  15.735  19.359  0.00  0.00    +0.000 A 
ATOM     21  C   UNL     1       9.013  15.919  18.943  0.00  0.00    +0.000 A 
ATOM     22  C   UNL     1       8.691  16.942  18.068  0.00  0.00    +0.000 A 
ATOM     23  C   UNL     1       9.721  17.749  17.617  0.00  0.00    +0.000 A 
ATOM     24  N   UNL     1      11.017  17.583  17.958  0.00  0.00    +0.000 NA
ATOM     25  C   UNL     1      11.302  16.574  18.810  0.00  0.00    +0.000 A 
ENDBRANCH  13  20
TORSDOF 2
ENDMDL
MODEL 3
REMARK VINA RESULT:      -5.7      1.100      1.619
REMARK  Name = 
REMARK  3 active torsions:
REMARK  status: ('A' for Active; 'I' for Inactive)
REMARK    1  A    between atoms: C_1  and  C_2
REMARK    2  A    between atoms: C_8  and  C_9
REMARK    3  A    between atoms: C_19  and  C_20
REMARK                            x       y       z     vdW  Elec       q    Type
REMARK                         _______ _______ _______ _____ _____    ______ ____
ROOT
ATOM      1  C   UNL     1      10.290  11.053  19.120  0.00  0.00    +0.000 C 
ATOM      2  C   UNL     1      10.787  12.422  19.500  0.00  0.00    +0.000 C 
ATOM      3  O   UNL     1      11.675  12.975  18.847  0.00  0.00    +0.000 OA
ATOM      4  N   UNL     1      10.136  13.039  20.556  0.00  0.00    +0.000 N 
ATOM      5  N   UNL     1       9.368  12.366  21.493  0.00  0.00    +0.000 NA
ATOM      6  C   UNL     1       8.985  13.250  22.365  0.00  0.00    +0.000 C 
ATOM      7  C   UNL     1       8.100  13.045  23.559  0.00  0.00    +0.000 C 
ATOM      8  C   UNL     1       7.795  11.804  23.984  0.00  0.00    +0.000 C 
ATOM      9  C   UNL     1       7.617  14.328  24.178  0.00  0.00    +0.000 C 
ATOM     10  S   UNL     1       9.052  15.277  24.772  0.00  0.00    +0.000 S 
ATOM     11  C   UNL     1       9.949  15.494  23.195  0.00  0.00    +0.000 C 
ATOM     12  C   UNL     1       9.394  14.670  22.052  0.00  0.00    +0.000 C 
ATOM     13  C   UNL     1      10.359  14.442  20.889  0.00  0.00    +0.000 C 
ENDROOT
BRANCH   8  14
ATOM     14  C   UNL     1       6.921  11.545  25.137  0.00  0.00    +0.000 A 
ATOM     15  C   UNL     1       7.348  11.789  26.444  0.00  0.00    +0.000 A 
ATOM     16  C   UNL     1       6.474  11.572  27.512  0.00  0.00    +0.000 A 
ATOM     17  C   UNL     1       5.193  11.122  27.239  0.00  0.00    +0.000 A 
ATOM     18  N   UNL     1       4.739  10.887  25.987  0.00  0.00    +0.000 NA
ATOM     19  C   UNL     1       5.610  11.103  24.970  0.00  0.00    +0.000 A 
ENDBRANCH   8  14
BRANCH  13  20
ATOM     20  C   UNL     1       9.993  15.382  19.766  0.00  0.00    +0.000 A 
ATOM     21  C   UNL     1      10.911  16.323  19.271  0.00  0.00    +0.000 A 
ATOM     22  C   UNL     1      10.609  17.067  18.144  0.00  0.00    +0.000 A 
ATOM     23  C   UNL     1       9.378  16.859  17.548  0.00  0.00    +0.000 A 
ATOM     24  N   UNL     1       8.448  15.995  18.012  0.00  0.00    +0.000 NA
ATOM     25  C   UNL     1       8.769  15.286  19.116  0.00  0.00    +0.000 A 
ENDBRANCH  13  20
TORSDOF 2
ENDMDL
MODEL 4
REMARK VINA RESULT:      -5.7      8.270     10.619
REMARK  Name = 
REMARK  3 active torsions:
REMARK  status: ('A' for Active; 'I' for Inactive)
REMARK    1  A    between atoms: C_1  and  C_2
REMARK    2  A    between atoms: C_8  and  C_9
REMARK    3  A    between atoms: C_19  and  C_20
REMARK                            x       y       z     vdW  Elec       q    Type
REMARK                         _______ _______ _______ _____ _____    ______ ____
ROOT
ATOM      1  C   UNL     1       2.684  13.084  17.461  0.00  0.00    +0.000 C 
ATOM      2  C   UNL     1       1.852  12.515  18.579  0.00  0.00    +0.000 C 
ATOM      3  O   UNL     1       1.211  13.255  19.329  0.00  0.00    +0.000 OA
ATOM      4  N   UNL     1       1.788  11.133  18.653  0.00  0.00    +0.000 N 
ATOM      5  N   UNL     1       2.701  10.281  18.052  0.00  0.00    +0.000 NA
ATOM      6  C   UNL     1       2.369   9.074  18.399  0.00  0.00    +0.000 C 
ATOM      7  C   UNL     1       3.013   7.784  17.982  0.00  0.00    +0.000 C 
ATOM      8  C   UNL     1       4.206   7.781  17.358  0.00  0.00    +0.000 C 
ATOM      9  C   UNL     1       2.197   6.567  18.323  0.00  0.00    +0.000 C 
ATOM     10  S   UNL     1       2.000   6.471  20.129  0.00  0.00    +0.000 S 
ATOM     11  C   UNL     1       1.144   8.057  20.428  0.00  0.00    +0.000 C 
ATOM     12  C   UNL     1       1.107   8.974  19.223  0.00  0.00    +0.000 C 
ATOM     13  C   UNL     1       0.852  10.447  19.538  0.00  0.00    +0.000 C 
ENDROOT
BRANCH   8  14
ATOM     14  C   UNL     1       4.875   6.549  16.916  0.00  0.00    +0.000 A 
ATOM     15  C   UNL     1       5.063   6.269  15.561  0.00  0.00    +0.000 A 
ATOM     16  C   UNL     1       5.742   5.109  15.180  0.00  0.00    +0.000 A 
ATOM     17  C   UNL     1       6.219   4.265  16.170  0.00  0.00    +0.000 A 
ATOM     18  N   UNL     1       6.067   4.509  17.491  0.00  0.00    +0.000 NA
ATOM     19  C   UNL     1       5.402   5.641  17.831  0.00  0.00    +0.000 A 
ENDBRANCH   8  14
BRANCH  13  20
ATOM     20  C   UNL     1      -0.593  10.764  19.230  0.00  0.00    +0.000 A 
ATOM     21  C   UNL     1      -1.353  11.594  20.070  0.00  0.00    +0.000 A 
ATOM     22  C   UNL     1      -2.623  11.994  19.690  0.00  0.00    +0.000 A 
ATOM     23  C   UNL     1      -3.106  11.534  18.479  0.00  0.00    +0.000 A 
ATOM     24  N   UNL     1      -2.427  10.702  17.659  0.00  0.00    +0.000 NA
ATOM     25  C   UNL     1      -1.192  10.324  18.057  0.00  0.00    +0.000 A 
ENDBRANCH  13  20
TORSDOF 2
ENDMDL
MODEL 5
REMARK VINA RESULT:      -5.7      8.487     11.607
REMARK  Name = 
REMARK  3 active torsions:
REMARK  status: ('A' for Active; 'I' for Inactive)
REMARK    1  A    between atoms: C_1  and  C_2
REMARK    2  A    between atoms: C_8  and  C_9
REMARK    3  A    between atoms: C_19  and  C_20
REMARK                            x       y       z     vdW  Elec       q    Type
REMARK                         _______ _______ _______ _____ _____    ______ ____
ROOT
ATOM      1  C   UNL     1      -1.204  16.855  25.221  0.00  0.00    +0.000 C 
ATOM      2  C   UNL     1      -1.597  15.404  25.144  0.00  0.00    +0.000 C 
ATOM      3  O   UNL     1      -2.282  14.888  26.030  0.00  0.00    +0.000 OA
ATOM      4  N   UNL     1      -1.218  14.726  23.997  0.00  0.00    +0.000 N 
ATOM      5  N   UNL     1      -0.216  15.151  23.139  0.00  0.00    +0.000 NA
ATOM      6  C   UNL     1      -0.090  14.234  22.228  0.00  0.00    +0.000 C 
ATOM      7  C   UNL     1       0.829  14.231  21.042  0.00  0.00    +0.000 C 
ATOM      8  C   UNL     1       1.828  15.129  20.944  0.00  0.00    +0.000 C 
ATOM      9  C   UNL     1       0.506  13.164  20.032  0.00  0.00    +0.000 C 
ATOM     10  S   UNL     1       0.688  11.532  20.815  0.00  0.00    +0.000 S 
ATOM     11  C   UNL     1      -0.543  11.695  22.155  0.00  0.00    +0.000 C 
ATOM     12  C   UNL     1      -1.084  13.101  22.327  0.00  0.00    +0.000 C 
ATOM     13  C   UNL     1      -1.716  13.389  23.687  0.00  0.00    +0.000 C 
ENDROOT
BRANCH   8  14
ATOM     14  C   UNL     1       2.748  15.181  19.799  0.00  0.00    +0.000 A 
ATOM     15  C   UNL     1       2.385  15.797  18.599  0.00  0.00    +0.000 A 
ATOM     16  C   UNL     1       3.302  15.864  17.549  0.00  0.00    +0.000 A 
ATOM     17  C   UNL     1       4.562  15.318  17.732  0.00  0.00    +0.000 A 
ATOM     18  N   UNL     1       4.954  14.726  18.883  0.00  0.00    +0.000 NA
ATOM     19  C   UNL     1       4.042  14.672  19.885  0.00  0.00    +0.000 A 
ENDBRANCH   8  14
BRANCH  13  20
ATOM     20  C   UNL     1      -3.219  13.337  23.543  0.00  0.00    +0.000 A 
ATOM     21  C   UNL     1      -3.879  14.039  22.521  0.00  0.00    +0.000 A 
ATOM     22  C   UNL     1      -5.235  13.856  22.312  0.00  0.00    +0.000 A 
ATOM     23  C   UNL     1      -5.902  12.981  23.152  0.00  0.00    +0.000 A 
ATOM     24  N   UNL     1      -5.316  12.317  24.172  0.00  0.00    +0.000 NA
ATOM     25  C   UNL     1      -3.993  12.518  24.354  0.00  0.00    +0.000 A 
ENDBRANCH  13  20
TORSDOF 2
ENDMDL
MODEL 6
REMARK VINA RESULT:      -5.7      8.157      9.611
REMARK  Name = 
REMARK  3 active torsions:
REMARK  status: ('A' for Active; 'I' for Inactive)
REMARK    1  A    between atoms: C_1  and  C_2
REMARK    2  A    between atoms: C_8  and  C_9
REMARK    3  A    between atoms: C_19  and  C_20
REMARK                            x       y       z     vdW  Elec       q    Type
REMARK                         _______ _______ _______ _____ _____    ______ ____
ROOT
ATOM      1  C   UNL     1      -0.621  10.408  23.038  0.00  0.00    +0.000 C 
ATOM      2  C   UNL     1      -0.273  10.187  21.591  0.00  0.00    +0.000 C 
ATOM      3  O   UNL     1      -0.516   9.112  21.040  0.00  0.00    +0.000 OA
ATOM      4  N   UNL     1       0.250  11.277  20.913  0.00  0.00    +0.000 N 
ATOM      5  N   UNL     1       0.815  12.379  21.535  0.00  0.00    +0.000 NA
ATOM      6  C   UNL     1       1.261  13.153  20.590  0.00  0.00    +0.000 C 
ATOM      7  C   UNL     1       1.922  14.492  20.729  0.00  0.00    +0.000 C 
ATOM      8  C   UNL     1       2.345  14.928  21.932  0.00  0.00    +0.000 C 
ATOM      9  C   UNL     1       2.037  15.244  19.432  0.00  0.00    +0.000 C 
ATOM     10  S   UNL     1       3.073  14.287  18.282  0.00  0.00    +0.000 S 
ATOM     11  C   UNL     1       2.081  12.757  18.177  0.00  0.00    +0.000 C 
ATOM     12  C   UNL     1       0.955  12.683  19.188  0.00  0.00    +0.000 C 
ATOM     13  C   UNL     1       0.425  11.276  19.464  0.00  0.00    +0.000 C 
ENDROOT
BRANCH   8  14
ATOM     14  C   UNL     1       2.986  16.236  22.128  0.00  0.00    +0.000 A 
ATOM     15  C   UNL     1       2.243  17.368  22.470  0.00  0.00    +0.000 A 
ATOM     16  C   UNL     1       2.893  18.584  22.690  0.00  0.00    +0.000 A 
ATOM     17  C   UNL     1       4.272  18.631  22.568  0.00  0.00    +0.000 A 
ATOM     18  N   UNL     1       5.026  17.554  22.252  0.00  0.00    +0.000 NA
ATOM     19  C   UNL     1       4.368  16.388  22.040  0.00  0.00    +0.000 A 
ENDBRANCH   8  14
BRANCH  13  20
ATOM     20  C   UNL     1      -0.872  11.092  18.712  0.00  0.00    +0.000 A 
ATOM     21  C   UNL     1      -1.019  10.085  17.745  0.00  0.00    +0.000 A 
ATOM     22  C   UNL     1      -2.257   9.835  17.180  0.00  0.00    +0.000 A 
ATOM     23  C   UNL     1      -3.320  10.620  17.590  0.00  0.00    +0.000 A 
ATOM     24  N   UNL     1      -3.217  11.626  18.486  0.00  0.00    +0.000 NA
ATOM     25  C   UNL     1      -1.995  11.850  19.017  0.00  0.00    +0.000 A 
ENDBRANCH  13  20
TORSDOF 2
ENDMDL
MODEL 7
REMARK VINA RESULT:      -5.7      1.528      1.831
REMARK  Name = 
REMARK  3 active torsions:
REMARK  status: ('A' for Active; 'I' for Inactive)
REMARK    1  A    between atoms: C_1  and  C_2
REMARK    2  A    between atoms: C_8  and  C_9
REMARK    3  A    between atoms: C_19  and  C_20
REMARK                            x       y       z     vdW  Elec       q    Type
REMARK                         _______ _______ _______ _____ _____    ______ ____
ROOT
ATOM      1  C   UNL     1      10.092  10.765  19.317  0.00  0.00    +0.000 C 
ATOM      2  C   UNL     1      10.852  12.059  19.427  0.00  0.00    +0.000 C 
ATOM      3  O   UNL     1      11.794  12.305  18.670  0.00  0.00    +0.000 OA
ATOM      4  N   UNL     1      10.379  12.970  20.358  0.00  0.00    +0.000 N 
ATOM      5  N   UNL     1       9.547  12.638  21.415  0.00  0.00    +0.000 NA
ATOM      6  C   UNL     1       9.379  13.722  22.112  0.00  0.00    +0.000 C 
ATOM      7  C   UNL     1       8.530  13.910  23.335  0.00  0.00    +0.000 C 
ATOM      8  C   UNL     1       8.022  12.848  23.989  0.00  0.00    +0.000 C 
ATOM      9  C   UNL     1       8.324  15.353  23.709  0.00  0.00    +0.000 C 
ATOM     10  S   UNL     1       9.938  16.101  24.095  0.00  0.00    +0.000 S 
ATOM     11  C   UNL     1      10.781  15.853  22.493  0.00  0.00    +0.000 C 
ATOM     12  C   UNL     1      10.027  14.957  21.532  0.00  0.00    +0.000 C 
ATOM     13  C   UNL     1      10.875  14.342  20.419  0.00  0.00    +0.000 C 
ENDROOT
BRANCH   8  14
ATOM     14  C   UNL     1       7.174  12.975  25.183  0.00  0.00    +0.000 A 
ATOM     15  C   UNL     1       7.720  12.987  26.468  0.00  0.00    +0.000 A 
ATOM     16  C   UNL     1       6.886  13.152  27.575  0.00  0.00    +0.000 A 
ATOM     17  C   UNL     1       5.526  13.308  27.363  0.00  0.00    +0.000 A 
ATOM     18  N   UNL     1       4.962  13.315  26.134  0.00  0.00    +0.000 NA
ATOM     19  C   UNL     1       5.795  13.149  25.078  0.00  0.00    +0.000 A 
ENDBRANCH   8  14
BRANCH  13  20
ATOM     20  C   UNL     1      10.634  15.115  19.145  0.00  0.00    +0.000 A 
ATOM     21  C   UNL     1       9.335  15.330  18.655  0.00  0.00    +0.000 A 
ATOM     22  C   UNL     1       9.128  16.168  17.574  0.00  0.00    +0.000 A 
ATOM     23  C   UNL     1      10.237  16.759  16.996  0.00  0.00    +0.000 A 
ATOM     24  N   UNL     1      11.507  16.549  17.407  0.00  0.00    +0.000 NA
ATOM     25  C   UNL     1      11.680  15.723  18.462  0.00  0.00    +0.000 A 
ENDBRANCH  13  20
TORSDOF 2
ENDMDL
MODEL 8
REMARK VINA RESULT:      -5.7      8.225      9.712
REMARK  Name = 
REMARK  3 active torsions:
REMARK  status: ('A' for Active; 'I' for Inactive)
REMARK    1  A    between atoms: C_1  and  C_2
REMARK    2  A    between atoms: C_8  and  C_9
REMARK    3  A    between atoms: C_19  and  C_20
REMARK                            x       y       z     vdW  Elec       q    Type
REMARK                         _______ _______ _______ _____ _____    ______ ____
ROOT
ATOM      1  C   UNL     1      -1.067  10.480  23.186  0.00  0.00    +0.000 C 
ATOM      2  C   UNL     1      -0.872  11.000  21.787  0.00  0.00    +0.000 C 
ATOM      3  O   UNL     1      -1.430  12.035  21.415  0.00  0.00    +0.000 OA
ATOM      4  N   UNL     1       0.022  10.302  20.992  0.00  0.00    +0.000 N 
ATOM      5  N   UNL     1       0.429   9.000  21.241  0.00  0.00    +0.000 NA
ATOM      6  C   UNL     1       1.200   8.655  20.254  0.00  0.00    +0.000 C 
ATOM      7  C   UNL     1       1.933   7.360  20.065  0.00  0.00    +0.000 C 
ATOM      8  C   UNL     1       1.651   6.292  20.835  0.00  0.00    +0.000 C 
ATOM      9  C   UNL     1       2.967   7.407  18.973  0.00  0.00    +0.000 C 
ATOM     10  S   UNL     1       2.142   7.756  17.389  0.00  0.00    +0.000 S 
ATOM     11  C   UNL     1       1.393   9.374  17.784  0.00  0.00    +0.000 C 
ATOM     12  C   UNL     1       1.474   9.750  19.250  0.00  0.00    +0.000 C 
ATOM     13  C   UNL     1       0.475  10.813  19.702  0.00  0.00    +0.000 C 
ENDROOT
BRANCH   8  14
ATOM     14  C   UNL     1       2.347   5.004  20.703  0.00  0.00    +0.000 A 
ATOM     15  C   UNL     1       1.977   3.893  21.464  0.00  0.00    +0.000 A 
ATOM     16  C   UNL     1       2.633   2.675  21.279  0.00  0.00    +0.000 A 
ATOM     17  C   UNL     1       3.640   2.601  20.330  0.00  0.00    +0.000 A 
ATOM     18  N   UNL     1       4.017   3.650  19.565  0.00  0.00    +0.000 NA
ATOM     19  C   UNL     1       3.365   4.822  19.769  0.00  0.00    +0.000 A 
ENDBRANCH   8  14
BRANCH  13  20
ATOM     20  C   UNL     1       1.193  12.137  19.810  0.00  0.00    +0.000 A 
ATOM     21  C   UNL     1       0.974  13.166  18.879  0.00  0.00    +0.000 A 
ATOM     22  C   UNL     1       1.523  14.419  19.083  0.00  0.00    +0.000 A 
ATOM     23  C   UNL     1       2.298  14.606  20.214  0.00  0.00    +0.000 A 
ATOM     24  N   UNL     1       2.569  13.635  21.114  0.00  0.00    +0.000 NA
ATOM     25  C   UNL     1       2.023  12.420  20.887  0.00  0.00    +0.000 A 
ENDBRANCH  13  20
TORSDOF 2
ENDMDL
MODEL 9
REMARK VINA RESULT:      -5.6      9.238     11.267
REMARK  Name = 
REMARK  3 active torsions:
REMARK  status: ('A' for Active; 'I' for Inactive)
REMARK    1  A    between atoms: C_1  and  C_2
REMARK    2  A    between atoms: C_8  and  C_9
REMARK    3  A    between atoms: C_19  and  C_20
REMARK                            x       y       z     vdW  Elec       q    Type
REMARK                         _______ _______ _______ _____ _____    ______ ____
ROOT
ATOM      1  C   UNL     1      -0.359  15.405  18.793  0.00  0.00    +0.000 C 
ATOM      2  C   UNL     1      -0.913  15.118  20.163  0.00  0.00    +0.000 C 
ATOM      3  O   UNL     1      -1.374  16.024  20.860  0.00  0.00    +0.000 OA
ATOM      4  N   UNL     1      -0.946  13.786  20.544  0.00  0.00    +0.000 N 
ATOM      5  N   UNL     1      -0.183  12.791  19.952  0.00  0.00    +0.000 NA
ATOM      6  C   UNL     1      -0.418  11.698  20.615  0.00  0.00    +0.000 C 
ATOM      7  C   UNL     1       0.127  10.325  20.353  0.00  0.00    +0.000 C 
ATOM      8  C   UNL     1       1.149  10.143  19.495  0.00  0.00    +0.000 C 
ATOM      9  C   UNL     1      -0.580   9.240  21.119  0.00  0.00    +0.000 C 
ATOM     10  S   UNL     1      -0.364   9.536  22.901  0.00  0.00    +0.000 S 
ATOM     11  C   UNL     1      -1.146  11.182  23.035  0.00  0.00    +0.000 C 
ATOM     12  C   UNL     1      -1.461  11.825  21.700  0.00  0.00    +0.000 C 
ATOM     13  C   UNL     1      -1.652  13.340  21.741  0.00  0.00    +0.000 C 
ENDROOT
BRANCH   8  14
ATOM     14  C   UNL     1       1.712   8.820  19.190  0.00  0.00    +0.000 A 
ATOM     15  C   UNL     1       2.199   8.511  17.918  0.00  0.00    +0.000 A 
ATOM     16  C   UNL     1       2.766   7.257  17.679  0.00  0.00    +0.000 A 
ATOM     17  C   UNL     1       2.835   6.350  18.723  0.00  0.00    +0.000 A 
ATOM     18  N   UNL     1       2.386   6.617  19.970  0.00  0.00    +0.000 NA
ATOM     19  C   UNL     1       1.837   7.841  20.173  0.00  0.00    +0.000 A 
ENDBRANCH   8  14
BRANCH  13  20
ATOM     20  C   UNL     1      -3.131  13.642  21.700  0.00  0.00    +0.000 A 
ATOM     21  C   UNL     1      -3.954  13.129  20.684  0.00  0.00    +0.000 A 
ATOM     22  C   UNL     1      -5.327  13.289  20.751  0.00  0.00    +0.000 A 
ATOM     23  C   UNL     1      -5.842  13.981  21.834  0.00  0.00    +0.000 A 
ATOM     24  N   UNL     1      -5.086  14.526  22.811  0.00  0.00    +0.000 NA
ATOM     25  C   UNL     1      -3.749  14.358  22.718  0.00  0.00    +0.000 A 
ENDBRANCH  13  20
TORSDOF 2
ENDMDL
