MODEL 1
REMARK VINA RESULT:      -7.2      0.000      0.000
REMARK  Name = 
REMARK  10 active torsions:
REMARK  status: ('A' for Active; 'I' for Inactive)
REMARK    1  A    between atoms: C_1  and  C_2
REMARK    2  A    between atoms: C_2  and  C_3
REMARK    3  A    between atoms: C_2  and  N_4
REMARK    4  A    between atoms: N_4  and  C_5
REMARK    5  A    between atoms: C_5  and  C_6
REMARK    6  A    between atoms: C_6  and  O_7
REMARK    7  A    between atoms: C_6  and  C_8
REMARK    8  A    between atoms: C_8  and  O_9
REMARK    9  A    between atoms: O_9  and  C_10
REMARK   10  A    between atoms: C_17  and  O_18
REMARK                            x       y       z     vdW  Elec       q    Type
REMARK                         _______ _______ _______ _____ _____    ______ ____
ROOT
ATOM      1  C   UNL     1       4.179   5.256  17.047  0.00  0.00    +0.000 A 
ATOM      2  C   UNL     1       4.309   6.647  17.075  0.00  0.00    +0.000 A 
ATOM      3  C   UNL     1       3.529   7.411  17.941  0.00  0.00    +0.000 A 
ATOM      4  C   UNL     1       2.602   6.793  18.775  0.00  0.00    +0.000 A 
ATOM      5  C   UNL     1       2.443   5.402  18.755  0.00  0.00    +0.000 A 
ATOM      6  C   UNL     1       3.256   4.619  17.905  0.00  0.00    +0.000 A 
ATOM      7  C   UNL     1       3.120   3.113  17.887  0.00  0.00    +0.000 C 
ATOM      8  C   UNL     1       2.380   2.553  19.106  0.00  0.00    +0.000 C 
ATOM      9  C   UNL     1       1.096   3.337  19.348  0.00  0.00    +0.000 C 
ATOM     10  C   UNL     1       1.434   4.781  19.692  0.00  0.00    +0.000 C 
ENDROOT
BRANCH   8  11
ATOM     11  O   UNL     1       2.072   1.174  18.906  0.00  0.00    +0.000 OA
ATOM     12  H   UNL     1       2.481   0.892  18.073  0.00  0.00    +0.000 HD
ENDBRANCH   8  11
BRANCH   1  13
ATOM     13  O   UNL     1       4.864   4.444  16.181  0.00  0.00    +0.000 OA
BRANCH  13  14
ATOM     14  C   UNL     1       6.226   4.144  16.518  0.00  0.00    +0.000 C 
BRANCH  14  15
ATOM     15  C   UNL     1       7.138   4.689  15.410  0.00  0.00    +0.000 C 
BRANCH  15  16
ATOM     16  O   UNL     1       7.557   6.022  15.753  0.00  0.00    +0.000 OA
ATOM     17  H   UNL     1       8.504   6.073  15.529  0.00  0.00    +0.000 HD
ENDBRANCH  15  16
BRANCH  15  18
ATOM     18  C   UNL     1       6.416   4.710  14.051  0.00  0.00    +0.000 C 
BRANCH  18  19
ATOM     19  N   UNL     1       6.283   3.347  13.516  0.00  0.00    +0.000 NA
ATOM     20  H   UNL     1       7.132   2.828  13.758  0.00  0.00    +0.000 HD
BRANCH  19  22
ATOM     21  C   UNL     1       6.774   2.092  11.490  0.00  0.00    +0.000 C 
ATOM     22  C   UNL     1       6.065   3.319  12.066  0.00  0.00    +0.000 C 
ATOM     23  C   UNL     1       4.576   3.259  11.717  0.00  0.00    +0.000 C 
ENDBRANCH  19  22
ENDBRANCH  18  19
ENDBRANCH  15  18
ENDBRANCH  14  15
ENDBRANCH  13  14
ENDBRANCH   1  13
TORSDOF 8
ENDMDL
MODEL 2
REMARK VINA RESULT:      -7.0      3.412      5.712
REMARK  Name = 
REMARK  10 active torsions:
REMARK  status: ('A' for Active; 'I' for Inactive)
REMARK    1  A    between atoms: C_1  and  C_2
REMARK    2  A    between atoms: C_2  and  C_3
REMARK    3  A    between atoms: C_2  and  N_4
REMARK    4  A    between atoms: N_4  and  C_5
REMARK    5  A    between atoms: C_5  and  C_6
REMARK    6  A    between atoms: C_6  and  O_7
REMARK    7  A    between atoms: C_6  and  C_8
REMARK    8  A    between atoms: C_8  and  O_9
REMARK    9  A    between atoms: O_9  and  C_10
REMARK   10  A    between atoms: C_17  and  O_18
REMARK                            x       y       z     vdW  Elec       q    Type
REMARK                         _______ _______ _______ _____ _____    ______ ____
ROOT
ATOM      1  C   UNL     1       3.360   5.651  19.379  0.00  0.00    +0.000 A 
ATOM      2  C   UNL     1       2.326   6.567  19.169  0.00  0.00    +0.000 A 
ATOM      3  C   UNL     1       2.453   7.567  18.207  0.00  0.00    +0.000 A 
ATOM      4  C   UNL     1       3.622   7.670  17.458  0.00  0.00    +0.000 A 
ATOM      5  C   UNL     1       4.678   6.773  17.660  0.00  0.00    +0.000 A 
ATOM      6  C   UNL     1       4.540   5.735  18.609  0.00  0.00    +0.000 A 
ATOM      7  C   UNL     1       5.657   4.739  18.824  0.00  0.00    +0.000 C 
ATOM      8  C   UNL     1       6.684   4.719  17.687  0.00  0.00    +0.000 C 
ATOM      9  C   UNL     1       7.112   6.139  17.339  0.00  0.00    +0.000 C 
ATOM     10  C   UNL     1       5.917   6.920  16.809  0.00  0.00    +0.000 C 
ENDROOT
BRANCH   8  11
ATOM     11  O   UNL     1       7.825   3.951  18.065  0.00  0.00    +0.000 OA
ATOM     12  H   UNL     1       7.775   3.095  17.611  0.00  0.00    +0.000 HD
ENDBRANCH   8  11
BRANCH   1  13
ATOM     13  O   UNL     1       3.334   4.681  20.347  0.00  0.00    +0.000 OA
BRANCH  13  14
ATOM     14  C   UNL     1       2.111   4.536  21.083  0.00  0.00    +0.000 C 
BRANCH  14  15
ATOM     15  C   UNL     1       1.931   3.056  21.450  0.00  0.00    +0.000 C 
BRANCH  15  16
ATOM     16  O   UNL     1       3.193   2.514  21.876  0.00  0.00    +0.000 OA
ATOM     17  H   UNL     1       3.721   2.392  21.066  0.00  0.00    +0.000 HD
ENDBRANCH  15  16
BRANCH  15  18
ATOM     18  C   UNL     1       1.399   2.244  20.255  0.00  0.00    +0.000 C 
BRANCH  18  19
ATOM     19  N   UNL     1       1.486   3.032  19.016  0.00  0.00    +0.000 NA
ATOM     20  H   UNL     1       0.532   3.256  18.717  0.00  0.00    +0.000 HD
BRANCH  19  22
ATOM     21  C   UNL     1       2.615   3.363  16.886  0.00  0.00    +0.000 C 
ATOM     22  C   UNL     1       2.205   2.336  17.944  0.00  0.00    +0.000 C 
ATOM     23  C   UNL     1       3.450   1.619  18.469  0.00  0.00    +0.000 C 
ENDBRANCH  19  22
ENDBRANCH  18  19
ENDBRANCH  15  18
ENDBRANCH  14  15
ENDBRANCH  13  14
ENDBRANCH   1  13
TORSDOF 8
ENDMDL
MODEL 3
REMARK VINA RESULT:      -7.0      2.616      4.574
REMARK  Name = 
REMARK  10 active torsions:
REMARK  status: ('A' for Active; 'I' for Inactive)
REMARK    1  A    between atoms: C_1  and  C_2
REMARK    2  A    between atoms: C_2  and  C_3
REMARK    3  A    between atoms: C_2  and  N_4
REMARK    4  A    between atoms: N_4  and  C_5
REMARK    5  A    between atoms: C_5  and  C_6
REMARK    6  A    between atoms: C_6  and  O_7
REMARK    7  A    between atoms: C_6  and  C_8
REMARK    8  A    between atoms: C_8  and  O_9
REMARK    9  A    between atoms: O_9  and  C_10
REMARK   10  A    between atoms: C_17  and  O_18
REMARK                            x       y       z     vdW  Elec       q    Type
REMARK                         _______ _______ _______ _____ _____    ______ ____
ROOT
ATOM      1  C   UNL     1       4.225   3.989  19.008  0.00  0.00    +0.000 A 
ATOM      2  C   UNL     1       4.061   2.825  19.762  0.00  0.00    +0.000 A 
ATOM      3  C   UNL     1       3.092   2.761  20.761  0.00  0.00    +0.000 A 
ATOM      4  C   UNL     1       2.290   3.868  21.027  0.00  0.00    +0.000 A 
ATOM      5  C   UNL     1       2.445   5.051  20.294  0.00  0.00    +0.000 A 
ATOM      6  C   UNL     1       3.401   5.108  19.256  0.00  0.00    +0.000 A 
ATOM      7  C   UNL     1       3.566   6.367  18.434  0.00  0.00    +0.000 C 
ATOM      8  C   UNL     1       2.383   7.333  18.553  0.00  0.00    +0.000 C 
ATOM      9  C   UNL     1       2.013   7.534  20.017  0.00  0.00    +0.000 C 
ATOM     10  C   UNL     1       1.537   6.216  20.612  0.00  0.00    +0.000 C 
ENDROOT
BRANCH   8  11
ATOM     11  O   UNL     1       2.709   8.590  17.962  0.00  0.00    +0.000 OA
ATOM     12  H   UNL     1       3.080   8.421  17.081  0.00  0.00    +0.000 HD
ENDBRANCH   8  11
BRANCH   1  13
ATOM     13  O   UNL     1       5.195   4.148  18.052  0.00  0.00    +0.000 OA
BRANCH  13  14
ATOM     14  C   UNL     1       4.836   3.811  16.705  0.00  0.00    +0.000 C 
BRANCH  14  15
ATOM     15  C   UNL     1       5.914   4.356  15.758  0.00  0.00    +0.000 C 
BRANCH  15  16
ATOM     16  O   UNL     1       6.253   3.345  14.792  0.00  0.00    +0.000 OA
ATOM     17  H   UNL     1       7.161   3.062  15.005  0.00  0.00    +0.000 HD
ENDBRANCH  15  16
BRANCH  15  18
ATOM     18  C   UNL     1       7.178   4.774  16.531  0.00  0.00    +0.000 C 
BRANCH  18  19
ATOM     19  N   UNL     1       7.394   6.224  16.422  0.00  0.00    +0.000 NA
ATOM     20  H   UNL     1       8.337   6.376  16.052  0.00  0.00    +0.000 HD
BRANCH  19  22
ATOM     21  C   UNL     1       7.847   6.072  18.808  0.00  0.00    +0.000 C 
ATOM     22  C   UNL     1       7.229   6.926  17.699  0.00  0.00    +0.000 C 
ATOM     23  C   UNL     1       7.899   8.302  17.681  0.00  0.00    +0.000 C 
ENDBRANCH  19  22
ENDBRANCH  18  19
ENDBRANCH  15  18
ENDBRANCH  14  15
ENDBRANCH  13  14
ENDBRANCH   1  13
TORSDOF 8
ENDMDL
MODEL 4
REMARK VINA RESULT:      -6.9      1.142      1.437
REMARK  Name = 
REMARK  10 active torsions:
REMARK  status: ('A' for Active; 'I' for Inactive)
REMARK    1  A    between atoms: C_1  and  C_2
REMARK    2  A    between atoms: C_2  and  C_3
REMARK    3  A    between atoms: C_2  and  N_4
REMARK    4  A    between atoms: N_4  and  C_5
REMARK    5  A    between atoms: C_5  and  C_6
REMARK    6  A    between atoms: C_6  and  O_7
REMARK    7  A    between atoms: C_6  and  C_8
REMARK    8  A    between atoms: C_8  and  O_9
REMARK    9  A    between atoms: O_9  and  C_10
REMARK   10  A    between atoms: C_17  and  O_18
REMARK                            x       y       z     vdW  Elec       q    Type
REMARK                         _______ _______ _______ _____ _____    ______ ____
ROOT
ATOM      1  C   UNL     1       4.772   5.528  17.646  0.00  0.00    +0.000 A 
ATOM      2  C   UNL     1       4.303   6.844  17.650  0.00  0.00    +0.000 A 
ATOM      3  C   UNL     1       2.968   7.116  17.938  0.00  0.00    +0.000 A 
ATOM      4  C   UNL     1       2.085   6.074  18.207  0.00  0.00    +0.000 A 
ATOM      5  C   UNL     1       2.527   4.745  18.194  0.00  0.00    +0.000 A 
ATOM      6  C   UNL     1       3.888   4.466  17.939  0.00  0.00    +0.000 A 
ATOM      7  C   UNL     1       4.393   3.041  17.947  0.00  0.00    +0.000 C 
ATOM      8  C   UNL     1       3.441   2.060  18.638  0.00  0.00    +0.000 C 
ATOM      9  C   UNL     1       2.018   2.262  18.131  0.00  0.00    +0.000 C 
ATOM     10  C   UNL     1       1.531   3.655  18.510  0.00  0.00    +0.000 C 
ENDROOT
BRANCH   8  11
ATOM     11  O   UNL     1       3.852   0.716  18.394  0.00  0.00    +0.000 OA
ATOM     12  H   UNL     1       3.307   0.130  18.943  0.00  0.00    +0.000 HD
ENDBRANCH   8  11
BRANCH   1  13
ATOM     13  O   UNL     1       6.054   5.176  17.312  0.00  0.00    +0.000 OA
BRANCH  13  14
ATOM     14  C   UNL     1       6.637   5.851  16.189  0.00  0.00    +0.000 C 
BRANCH  14  15
ATOM     15  C   UNL     1       7.162   4.799  15.201  0.00  0.00    +0.000 C 
BRANCH  15  16
ATOM     16  O   UNL     1       7.866   5.458  14.134  0.00  0.00    +0.000 OA
ATOM     17  H   UNL     1       7.241   6.102  13.756  0.00  0.00    +0.000 HD
ENDBRANCH  15  16
BRANCH  15  18
ATOM     18  C   UNL     1       6.013   3.958  14.618  0.00  0.00    +0.000 C 
BRANCH  18  19
ATOM     19  N   UNL     1       5.847   4.234  13.183  0.00  0.00    +0.000 NA
ATOM     20  H   UNL     1       5.056   4.875  13.074  0.00  0.00    +0.000 HD
BRANCH  19  22
ATOM     21  C   UNL     1       4.415   3.237  11.486  0.00  0.00    +0.000 C 
ATOM     22  C   UNL     1       5.633   3.021  12.387  0.00  0.00    +0.000 C 
ATOM     23  C   UNL     1       6.853   2.686  11.525  0.00  0.00    +0.000 C 
ENDBRANCH  19  22
ENDBRANCH  18  19
ENDBRANCH  15  18
ENDBRANCH  14  15
ENDBRANCH  13  14
ENDBRANCH   1  13
TORSDOF 8
ENDMDL
MODEL 5
REMARK VINA RESULT:      -6.9      1.012      1.207
REMARK  Name = 
REMARK  10 active torsions:
REMARK  status: ('A' for Active; 'I' for Inactive)
REMARK    1  A    between atoms: C_1  and  C_2
REMARK    2  A    between atoms: C_2  and  C_3
REMARK    3  A    between atoms: C_2  and  N_4
REMARK    4  A    between atoms: N_4  and  C_5
REMARK    5  A    between atoms: C_5  and  C_6
REMARK    6  A    between atoms: C_6  and  O_7
REMARK    7  A    between atoms: C_6  and  C_8
REMARK    8  A    between atoms: C_8  and  O_9
REMARK    9  A    between atoms: O_9  and  C_10
REMARK   10  A    between atoms: C_17  and  O_18
REMARK                            x       y       z     vdW  Elec       q    Type
REMARK                         _______ _______ _______ _____ _____    ______ ____
ROOT
ATOM      1  C   UNL     1       3.631   5.625  17.655  0.00  0.00    +0.000 A 
ATOM      2  C   UNL     1       3.213   6.884  18.093  0.00  0.00    +0.000 A 
ATOM      3  C   UNL     1       2.470   7.013  19.265  0.00  0.00    +0.000 A 
ATOM      4  C   UNL     1       2.125   5.882  20.000  0.00  0.00    +0.000 A 
ATOM      5  C   UNL     1       2.520   4.608  19.573  0.00  0.00    +0.000 A 
ATOM      6  C   UNL     1       3.304   4.475  18.405  0.00  0.00    +0.000 A 
ATOM      7  C   UNL     1       3.764   3.112  17.941  0.00  0.00    +0.000 C 
ATOM      8  C   UNL     1       3.667   2.033  19.026  0.00  0.00    +0.000 C 
ATOM      9  C   UNL     1       2.301   2.085  19.698  0.00  0.00    +0.000 C 
ATOM     10  C   UNL     1       2.132   3.417  20.417  0.00  0.00    +0.000 C 
ENDROOT
BRANCH   8  11
ATOM     11  O   UNL     1       3.875   0.741  18.458  0.00  0.00    +0.000 OA
ATOM     12  H   UNL     1       4.085   0.127  19.179  0.00  0.00    +0.000 HD
ENDBRANCH   8  11
BRANCH   1  13
ATOM     13  O   UNL     1       4.309   5.413  16.482  0.00  0.00    +0.000 OA
BRANCH  13  14
ATOM     14  C   UNL     1       5.733   5.582  16.520  0.00  0.00    +0.000 C 
BRANCH  14  15
ATOM     15  C   UNL     1       6.384   4.446  15.719  0.00  0.00    +0.000 C 
BRANCH  15  16
ATOM     16  O   UNL     1       7.814   4.606  15.743  0.00  0.00    +0.000 OA
ATOM     17  H   UNL     1       8.187   3.710  15.661  0.00  0.00    +0.000 HD
ENDBRANCH  15  16
BRANCH  15  18
ATOM     18  C   UNL     1       5.892   4.437  14.260  0.00  0.00    +0.000 C 
BRANCH  18  19
ATOM     19  N   UNL     1       6.384   3.245  13.555  0.00  0.00    +0.000 NA
ATOM     20  H   UNL     1       7.388   3.160  13.742  0.00  0.00    +0.000 HD
BRANCH  19  22
ATOM     21  C   UNL     1       6.747   2.040  11.473  0.00  0.00    +0.000 C 
ATOM     22  C   UNL     1       6.137   3.289  12.111  0.00  0.00    +0.000 C 
ATOM     23  C   UNL     1       4.641   3.347  11.793  0.00  0.00    +0.000 C 
ENDBRANCH  19  22
ENDBRANCH  18  19
ENDBRANCH  15  18
ENDBRANCH  14  15
ENDBRANCH  13  14
ENDBRANCH   1  13
TORSDOF 8
ENDMDL
MODEL 6
REMARK VINA RESULT:      -6.9      1.962      3.265
REMARK  Name = 
REMARK  10 active torsions:
REMARK  status: ('A' for Active; 'I' for Inactive)
REMARK    1  A    between atoms: C_1  and  C_2
REMARK    2  A    between atoms: C_2  and  C_3
REMARK    3  A    between atoms: C_2  and  N_4
REMARK    4  A    between atoms: N_4  and  C_5
REMARK    5  A    between atoms: C_5  and  C_6
REMARK    6  A    between atoms: C_6  and  O_7
REMARK    7  A    between atoms: C_6  and  C_8
REMARK    8  A    between atoms: C_8  and  O_9
REMARK    9  A    between atoms: O_9  and  C_10
REMARK   10  A    between atoms: C_17  and  O_18
REMARK                            x       y       z     vdW  Elec       q    Type
REMARK                         _______ _______ _______ _____ _____    ______ ____
ROOT
ATOM      1  C   UNL     1       3.861   5.441  17.313  0.00  0.00    +0.000 A 
ATOM      2  C   UNL     1       3.920   6.831  17.435  0.00  0.00    +0.000 A 
ATOM      3  C   UNL     1       3.158   7.488  18.399  0.00  0.00    +0.000 A 
ATOM      4  C   UNL     1       2.319   6.762  19.239  0.00  0.00    +0.000 A 
ATOM      5  C   UNL     1       2.232   5.368  19.127  0.00  0.00    +0.000 A 
ATOM      6  C   UNL     1       3.029   4.695  18.175  0.00  0.00    +0.000 A 
ATOM      7  C   UNL     1       2.972   3.188  18.055  0.00  0.00    +0.000 C 
ATOM      8  C   UNL     1       2.340   2.503  19.272  0.00  0.00    +0.000 C 
ATOM      9  C   UNL     1       1.035   3.194  19.646  0.00  0.00    +0.000 C 
ATOM     10  C   UNL     1       1.318   4.628  20.075  0.00  0.00    +0.000 C 
ENDROOT
BRANCH   8  11
ATOM     11  O   UNL     1       2.092   1.126  18.990  0.00  0.00    +0.000 OA
ATOM     12  H   UNL     1       1.597   1.074  18.157  0.00  0.00    +0.000 HD
ENDBRANCH   8  11
BRANCH   1  13
ATOM     13  O   UNL     1       4.532   4.731  16.351  0.00  0.00    +0.000 OA
BRANCH  13  14
ATOM     14  C   UNL     1       5.133   5.489  15.291  0.00  0.00    +0.000 C 
BRANCH  14  15
ATOM     15  C   UNL     1       6.441   4.802  14.876  0.00  0.00    +0.000 C 
BRANCH  15  16
ATOM     16  O   UNL     1       6.263   3.375  14.918  0.00  0.00    +0.000 OA
ATOM     17  H   UNL     1       6.062   3.155  15.845  0.00  0.00    +0.000 HD
ENDBRANCH  15  16
BRANCH  15  18
ATOM     18  C   UNL     1       7.602   5.203  15.804  0.00  0.00    +0.000 C 
BRANCH  18  19
ATOM     19  N   UNL     1       7.429   4.606  17.136  0.00  0.00    +0.000 NA
ATOM     20  H   UNL     1       6.477   4.233  17.194  0.00  0.00    +0.000 HD
BRANCH  19  22
ATOM     21  C   UNL     1       7.544   6.976  17.672  0.00  0.00    +0.000 C 
ATOM     22  C   UNL     1       7.671   5.556  18.226  0.00  0.00    +0.000 C 
ATOM     23  C   UNL     1       6.678   5.365  19.376  0.00  0.00    +0.000 C 
ENDBRANCH  19  22
ENDBRANCH  18  19
ENDBRANCH  15  18
ENDBRANCH  14  15
ENDBRANCH  13  14
ENDBRANCH   1  13
TORSDOF 8
ENDMDL
MODEL 7
REMARK VINA RESULT:      -6.8      1.999      2.660
REMARK  Name = 
REMARK  10 active torsions:
REMARK  status: ('A' for Active; 'I' for Inactive)
REMARK    1  A    between atoms: C_1  and  C_2
REMARK    2  A    between atoms: C_2  and  C_3
REMARK    3  A    between atoms: C_2  and  N_4
REMARK    4  A    between atoms: N_4  and  C_5
REMARK    5  A    between atoms: C_5  and  C_6
REMARK    6  A    between atoms: C_6  and  O_7
REMARK    7  A    between atoms: C_6  and  C_8
REMARK    8  A    between atoms: C_8  and  O_9
REMARK    9  A    between atoms: O_9  and  C_10
REMARK   10  A    between atoms: C_17  and  O_18
REMARK                            x       y       z     vdW  Elec       q    Type
REMARK                         _______ _______ _______ _____ _____    ______ ____
ROOT
ATOM      1  C   UNL     1       4.745   5.309  19.240  0.00  0.00    +0.000 A 
ATOM      2  C   UNL     1       4.253   6.607  19.086  0.00  0.00    +0.000 A 
ATOM      3  C   UNL     1       3.023   6.825  18.468  0.00  0.00    +0.000 A 
ATOM      4  C   UNL     1       2.283   5.750  17.985  0.00  0.00    +0.000 A 
ATOM      5  C   UNL     1       2.763   4.440  18.115  0.00  0.00    +0.000 A 
ATOM      6  C   UNL     1       3.992   4.210  18.773  0.00  0.00    +0.000 A 
ATOM      7  C   UNL     1       4.516   2.803  18.948  0.00  0.00    +0.000 C 
ATOM      8  C   UNL     1       3.447   1.724  18.744  0.00  0.00    +0.000 C 
ATOM      9  C   UNL     1       2.667   1.992  17.464  0.00  0.00    +0.000 C 
ATOM     10  C   UNL     1       1.913   3.309  17.588  0.00  0.00    +0.000 C 
ENDROOT
BRANCH   8  11
ATOM     11  O   UNL     1       4.053   0.434  18.678  0.00  0.00    +0.000 OA
ATOM     12  H   UNL     1       3.475  -0.194  19.139  0.00  0.00    +0.000 HD
ENDBRANCH   8  11
BRANCH   1  13
ATOM     13  O   UNL     1       5.972   5.019  19.780  0.00  0.00    +0.000 OA
BRANCH  13  14
ATOM     14  C   UNL     1       7.116   5.586  19.126  0.00  0.00    +0.000 C 
BRANCH  14  15
ATOM     15  C   UNL     1       7.265   4.935  17.744  0.00  0.00    +0.000 C 
BRANCH  15  16
ATOM     16  O   UNL     1       8.396   4.046  17.756  0.00  0.00    +0.000 OA
ATOM     17  H   UNL     1       8.686   3.965  16.829  0.00  0.00    +0.000 HD
ENDBRANCH  15  16
BRANCH  15  18
ATOM     18  C   UNL     1       7.455   5.995  16.644  0.00  0.00    +0.000 C 
BRANCH  18  19
ATOM     19  N   UNL     1       7.443   5.368  15.314  0.00  0.00    +0.000 NA
ATOM     20  H   UNL     1       7.464   6.114  14.613  0.00  0.00    +0.000 HD
BRANCH  19  22
ATOM     21  C   UNL     1       5.010   5.324  15.317  0.00  0.00    +0.000 C 
ATOM     22  C   UNL     1       6.280   4.500  15.100  0.00  0.00    +0.000 C 
ATOM     23  C   UNL     1       6.269   3.906  13.690  0.00  0.00    +0.000 C 
ENDBRANCH  19  22
ENDBRANCH  18  19
ENDBRANCH  15  18
ENDBRANCH  14  15
ENDBRANCH  13  14
ENDBRANCH   1  13
TORSDOF 8
ENDMDL
MODEL 8
REMARK VINA RESULT:      -6.8      2.281      3.516
REMARK  Name = 
REMARK  10 active torsions:
REMARK  status: ('A' for Active; 'I' for Inactive)
REMARK    1  A    between atoms: C_1  and  C_2
REMARK    2  A    between atoms: C_2  and  C_3
REMARK    3  A    between atoms: C_2  and  N_4
REMARK    4  A    between atoms: N_4  and  C_5
REMARK    5  A    between atoms: C_5  and  C_6
REMARK    6  A    between atoms: C_6  and  O_7
REMARK    7  A    between atoms: C_6  and  C_8
REMARK    8  A    between atoms: C_8  and  O_9
REMARK    9  A    between atoms: O_9  and  C_10
REMARK   10  A    between atoms: C_17  and  O_18
REMARK                            x       y       z     vdW  Elec       q    Type
REMARK                         _______ _______ _______ _____ _____    ______ ____
ROOT
ATOM      1  C   UNL     1       4.136   5.521  17.860  0.00  0.00    +0.000 A 
ATOM      2  C   UNL     1       4.043   6.803  17.312  0.00  0.00    +0.000 A 
ATOM      3  C   UNL     1       3.136   7.726  17.827  0.00  0.00    +0.000 A 
ATOM      4  C   UNL     1       2.302   7.371  18.884  0.00  0.00    +0.000 A 
ATOM      5  C   UNL     1       2.367   6.087  19.441  0.00  0.00    +0.000 A 
ATOM      6  C   UNL     1       3.310   5.159  18.946  0.00  0.00    +0.000 A 
ATOM      7  C   UNL     1       3.415   3.777  19.550  0.00  0.00    +0.000 C 
ATOM      8  C   UNL     1       2.749   3.660  20.925  0.00  0.00    +0.000 C 
ATOM      9  C   UNL     1       1.353   4.268  20.888  0.00  0.00    +0.000 C 
ATOM     10  C   UNL     1       1.451   5.760  20.596  0.00  0.00    +0.000 C 
ENDROOT
BRANCH   8  11
ATOM     11  O   UNL     1       2.668   2.291  21.320  0.00  0.00    +0.000 OA
ATOM     12  H   UNL     1       3.262   2.161  22.076  0.00  0.00    +0.000 HD
ENDBRANCH   8  11
BRANCH   1  13
ATOM     13  O   UNL     1       4.958   4.540  17.369  0.00  0.00    +0.000 OA
BRANCH  13  14
ATOM     14  C   UNL     1       4.810   4.208  15.981  0.00  0.00    +0.000 C 
BRANCH  14  15
ATOM     15  C   UNL     1       6.088   4.622  15.238  0.00  0.00    +0.000 C 
BRANCH  15  16
ATOM     16  O   UNL     1       6.454   3.586  14.309  0.00  0.00    +0.000 OA
ATOM     17  H   UNL     1       5.840   2.848  14.472  0.00  0.00    +0.000 HD
ENDBRANCH  15  16
BRANCH  15  18
ATOM     18  C   UNL     1       7.249   4.869  16.217  0.00  0.00    +0.000 C 
BRANCH  18  19
ATOM     19  N   UNL     1       7.588   6.299  16.267  0.00  0.00    +0.000 NA
ATOM     20  H   UNL     1       8.576   6.398  16.014  0.00  0.00    +0.000 HD
BRANCH  19  22
ATOM     21  C   UNL     1       7.832   5.945  18.662  0.00  0.00    +0.000 C 
ATOM     22  C   UNL     1       7.334   6.904  17.578  0.00  0.00    +0.000 C 
ATOM     23  C   UNL     1       8.040   8.253  17.727  0.00  0.00    +0.000 C 
ENDBRANCH  19  22
ENDBRANCH  18  19
ENDBRANCH  15  18
ENDBRANCH  14  15
ENDBRANCH  13  14
ENDBRANCH   1  13
TORSDOF 8
ENDMDL
MODEL 9
REMARK VINA RESULT:      -6.8      1.121      1.604
REMARK  Name = 
REMARK  10 active torsions:
REMARK  status: ('A' for Active; 'I' for Inactive)
REMARK    1  A    between atoms: C_1  and  C_2
REMARK    2  A    between atoms: C_2  and  C_3
REMARK    3  A    between atoms: C_2  and  N_4
REMARK    4  A    between atoms: N_4  and  C_5
REMARK    5  A    between atoms: C_5  and  C_6
REMARK    6  A    between atoms: C_6  and  O_7
REMARK    7  A    between atoms: C_6  and  C_8
REMARK    8  A    between atoms: C_8  and  O_9
REMARK    9  A    between atoms: O_9  and  C_10
REMARK   10  A    between atoms: C_17  and  O_18
REMARK                            x       y       z     vdW  Elec       q    Type
REMARK                         _______ _______ _______ _____ _____    ______ ____
ROOT
ATOM      1  C   UNL     1       3.433   5.891  17.940  0.00  0.00    +0.000 A 
ATOM      2  C   UNL     1       3.008   7.115  18.462  0.00  0.00    +0.000 A 
ATOM      3  C   UNL     1       2.270   7.160  19.643  0.00  0.00    +0.000 A 
ATOM      4  C   UNL     1       1.935   5.981  20.302  0.00  0.00    +0.000 A 
ATOM      5  C   UNL     1       2.337   4.740  19.791  0.00  0.00    +0.000 A 
ATOM      6  C   UNL     1       3.117   4.691  18.614  0.00  0.00    +0.000 A 
ATOM      7  C   UNL     1       3.585   3.365  18.060  0.00  0.00    +0.000 C 
ATOM      8  C   UNL     1       3.500   2.216  19.070  0.00  0.00    +0.000 C 
ATOM      9  C   UNL     1       2.136   2.213  19.749  0.00  0.00    +0.000 C 
ATOM     10  C   UNL     1       1.961   3.494  20.555  0.00  0.00    +0.000 C 
ENDROOT
BRANCH   8  11
ATOM     11  O   UNL     1       3.716   0.966  18.418  0.00  0.00    +0.000 OA
ATOM     12  H   UNL     1       4.531   0.579  18.773  0.00  0.00    +0.000 HD
ENDBRANCH   8  11
BRANCH   1  13
ATOM     13  O   UNL     1       4.109   5.761  16.754  0.00  0.00    +0.000 OA
BRANCH  13  14
ATOM     14  C   UNL     1       5.446   6.278  16.713  0.00  0.00    +0.000 C 
BRANCH  14  15
ATOM     15  C   UNL     1       6.334   5.284  15.952  0.00  0.00    +0.000 C 
BRANCH  15  16
ATOM     16  O   UNL     1       7.555   5.938  15.563  0.00  0.00    +0.000 OA
ATOM     17  H   UNL     1       8.194   5.226  15.373  0.00  0.00    +0.000 HD
ENDBRANCH  15  16
BRANCH  15  18
ATOM     18  C   UNL     1       5.621   4.741  14.701  0.00  0.00    +0.000 C 
BRANCH  18  19
ATOM     19  N   UNL     1       6.290   3.527  14.210  0.00  0.00    +0.000 NA
ATOM     20  H   UNL     1       7.220   3.486  14.636  0.00  0.00    +0.000 HD
BRANCH  19  22
ATOM     21  C   UNL     1       4.986   3.494  12.156  0.00  0.00    +0.000 C 
ATOM     22  C   UNL     1       6.397   3.483  12.748  0.00  0.00    +0.000 C 
ATOM     23  C   UNL     1       7.191   4.671  12.201  0.00  0.00    +0.000 C 
ENDBRANCH  19  22
ENDBRANCH  18  19
ENDBRANCH  15  18
ENDBRANCH  14  15
ENDBRANCH  13  14
ENDBRANCH   1  13
TORSDOF 8
ENDMDL
