MODEL 1
REMARK VINA RESULT:      -7.2      0.000      0.000
REMARK  Name = 
REMARK  4 active torsions:
REMARK  status: ('A' for Active; 'I' for Inactive)
REMARK    1  A    between atoms: C_1  and  O_2
REMARK    2  A    between atoms: O_2  and  C_3
REMARK    3  A    between atoms: C_6  and  N_7
REMARK    4  A    between atoms: C_9  and  C_10
REMARK                            x       y       z     vdW  Elec       q    Type
REMARK                         _______ _______ _______ _____ _____    ______ ____
ROOT
ATOM      1  N   UNL     1       5.193   4.811  16.711  0.00  0.00    +0.000 N 
ATOM      2  C   UNL     1       5.132   4.221  15.443  0.00  0.00    +0.000 A 
ATOM      3  C   UNL     1       6.060   4.412  14.496  0.00  0.00    +0.000 A 
ATOM      4  C   UNL     1       7.195   5.298  14.781  0.00  0.00    +0.000 A 
ATOM      5  O   UNL     1       8.138   5.435  14.013  0.00  0.00    +0.000 OA
ATOM      6  N   UNL     1       7.133   5.950  15.974  0.00  0.00    +0.000 N 
ATOM      7  C   UNL     1       6.273   5.677  17.013  0.00  0.00    +0.000 A 
ATOM      8  O   UNL     1       6.557   6.165  18.106  0.00  0.00    +0.000 OA
ATOM      9  H   UNL     1       7.930   6.519  16.219  0.00  0.00    +0.000 HD
ENDROOT
BRANCH   1  13
ATOM     10  C   UNL     1       2.325   3.952  19.808  0.00  0.00    +0.000 A 
ATOM     11  C   UNL     1       2.109   4.984  18.904  0.00  0.00    +0.000 A 
ATOM     12  C   UNL     1       3.025   5.242  17.877  0.00  0.00    +0.000 A 
ATOM     13  C   UNL     1       4.211   4.503  17.742  0.00  0.00    +0.000 A 
ATOM     14  C   UNL     1       4.408   3.458  18.664  0.00  0.00    +0.000 A 
ATOM     15  C   UNL     1       3.478   3.185  19.685  0.00  0.00    +0.000 A 
BRANCH  10  17
ATOM     16  C   UNL     1       1.489   2.677  21.613  0.00  0.00    +0.000 C 
ATOM     17  O   UNL     1       1.379   3.825  20.782  0.00  0.00    +0.000 OA
ENDBRANCH  10  17
ENDBRANCH   1  13
BRANCH   3  18
ATOM     18  C   UNL     1       6.031   3.683  13.162  0.00  0.00    +0.000 C 
ATOM     19  N   UNL     1       6.006   3.078  12.056  0.00  0.00    +0.000 NA
ENDBRANCH   3  18
TORSDOF 3
ENDMDL
MODEL 2
REMARK VINA RESULT:      -7.1      0.448      1.204
REMARK  Name = 
REMARK  4 active torsions:
REMARK  status: ('A' for Active; 'I' for Inactive)
REMARK    1  A    between atoms: C_1  and  O_2
REMARK    2  A    between atoms: O_2  and  C_3
REMARK    3  A    between atoms: C_6  and  N_7
REMARK    4  A    between atoms: C_9  and  C_10
REMARK                            x       y       z     vdW  Elec       q    Type
REMARK                         _______ _______ _______ _____ _____    ______ ____
ROOT
ATOM      1  N   UNL     1       5.089   4.618  16.633  0.00  0.00    +0.000 N 
ATOM      2  C   UNL     1       5.133   4.074  15.345  0.00  0.00    +0.000 A 
ATOM      3  C   UNL     1       6.106   4.340  14.464  0.00  0.00    +0.000 A 
ATOM      4  C   UNL     1       7.180   5.264  14.850  0.00  0.00    +0.000 A 
ATOM      5  O   UNL     1       8.161   5.471  14.148  0.00  0.00    +0.000 OA
ATOM      6  N   UNL     1       7.015   5.868  16.059  0.00  0.00    +0.000 N 
ATOM      7  C   UNL     1       6.108   5.519  17.032  0.00  0.00    +0.000 A 
ATOM      8  O   UNL     1       6.302   5.977  18.156  0.00  0.00    +0.000 OA
ATOM      9  H   UNL     1       7.769   6.461  16.372  0.00  0.00    +0.000 HD
ENDROOT
BRANCH   1  13
ATOM     10  C   UNL     1       2.011   3.432  19.403  0.00  0.00    +0.000 A 
ATOM     11  C   UNL     1       3.114   2.619  19.174  0.00  0.00    +0.000 A 
ATOM     12  C   UNL     1       4.131   3.020  18.298  0.00  0.00    +0.000 A 
ATOM     13  C   UNL     1       4.061   4.229  17.590  0.00  0.00    +0.000 A 
ATOM     14  C   UNL     1       2.938   5.042  17.841  0.00  0.00    +0.000 A 
ATOM     15  C   UNL     1       1.926   4.648  18.736  0.00  0.00    +0.000 A 
BRANCH  10  17
ATOM     16  C   UNL     1       1.483   2.733  21.598  0.00  0.00    +0.000 C 
ATOM     17  O   UNL     1       1.074   2.914  20.249  0.00  0.00    +0.000 OA
ENDBRANCH  10  17
ENDBRANCH   1  13
BRANCH   3  18
ATOM     18  C   UNL     1       6.192   3.661  13.107  0.00  0.00    +0.000 C 
ATOM     19  N   UNL     1       6.265   3.099  11.980  0.00  0.00    +0.000 NA
ENDBRANCH   3  18
TORSDOF 3
ENDMDL
MODEL 3
REMARK VINA RESULT:      -6.5      1.010      1.489
REMARK  Name = 
REMARK  4 active torsions:
REMARK  status: ('A' for Active; 'I' for Inactive)
REMARK    1  A    between atoms: C_1  and  O_2
REMARK    2  A    between atoms: O_2  and  C_3
REMARK    3  A    between atoms: C_6  and  N_7
REMARK    4  A    between atoms: C_9  and  C_10
REMARK                            x       y       z     vdW  Elec       q    Type
REMARK                         _______ _______ _______ _____ _____    ______ ____
ROOT
ATOM      1  N   UNL     1       5.605   4.995  16.300  0.00  0.00    +0.000 N 
ATOM      2  C   UNL     1       5.156   4.380  15.126  0.00  0.00    +0.000 A 
ATOM      3  C   UNL     1       5.879   4.323  14.000  0.00  0.00    +0.000 A 
ATOM      4  C   UNL     1       7.206   4.952  13.975  0.00  0.00    +0.000 A 
ATOM      5  O   UNL     1       7.972   4.847  13.026  0.00  0.00    +0.000 OA
ATOM      6  N   UNL     1       7.534   5.651  15.096  0.00  0.00    +0.000 N 
ATOM      7  C   UNL     1       6.879   5.616  16.305  0.00  0.00    +0.000 A 
ATOM      8  O   UNL     1       7.483   6.076  17.273  0.00  0.00    +0.000 OA
ATOM      9  H   UNL     1       8.465   6.042  15.127  0.00  0.00    +0.000 HD
ENDROOT
BRANCH   1  13
ATOM     10  C   UNL     1       3.233   4.842  19.892  0.00  0.00    +0.000 A 
ATOM     11  C   UNL     1       4.004   3.755  19.501  0.00  0.00    +0.000 A 
ATOM     12  C   UNL     1       4.800   3.817  18.351  0.00  0.00    +0.000 A 
ATOM     13  C   UNL     1       4.823   4.953  17.529  0.00  0.00    +0.000 A 
ATOM     14  C   UNL     1       4.040   6.047  17.946  0.00  0.00    +0.000 A 
ATOM     15  C   UNL     1       3.254   5.992  19.112  0.00  0.00    +0.000 A 
BRANCH  10  17
ATOM     16  C   UNL     1       1.525   3.589  20.941  0.00  0.00    +0.000 C 
ATOM     17  O   UNL     1       2.474   4.645  21.009  0.00  0.00    +0.000 OA
ENDBRANCH  10  17
ENDBRANCH   1  13
BRANCH   3  18
ATOM     18  C   UNL     1       5.419   3.563  12.767  0.00  0.00    +0.000 C 
ATOM     19  N   UNL     1       5.037   2.931  11.745  0.00  0.00    +0.000 NA
ENDBRANCH   3  18
TORSDOF 3
ENDMDL
MODEL 4
REMARK VINA RESULT:      -6.3      3.749      5.768
REMARK  Name = 
REMARK  4 active torsions:
REMARK  status: ('A' for Active; 'I' for Inactive)
REMARK    1  A    between atoms: C_1  and  O_2
REMARK    2  A    between atoms: O_2  and  C_3
REMARK    3  A    between atoms: C_6  and  N_7
REMARK    4  A    between atoms: C_9  and  C_10
REMARK                            x       y       z     vdW  Elec       q    Type
REMARK                         _______ _______ _______ _____ _____    ______ ____
ROOT
ATOM      1  N   UNL     1       3.041   6.086  19.502  0.00  0.00    +0.000 N 
ATOM      2  C   UNL     1       4.358   5.943  19.052  0.00  0.00    +0.000 A 
ATOM      3  C   UNL     1       5.032   4.786  19.095  0.00  0.00    +0.000 A 
ATOM      4  C   UNL     1       4.373   3.601  19.659  0.00  0.00    +0.000 A 
ATOM      5  O   UNL     1       4.877   2.486  19.631  0.00  0.00    +0.000 OA
ATOM      6  N   UNL     1       3.147   3.828  20.204  0.00  0.00    +0.000 N 
ATOM      7  C   UNL     1       2.381   4.961  20.057  0.00  0.00    +0.000 A 
ATOM      8  O   UNL     1       1.195   4.869  20.370  0.00  0.00    +0.000 OA
ATOM      9  H   UNL     1       2.648   3.018  20.544  0.00  0.00    +0.000 HD
ENDROOT
BRANCH   1  13
ATOM     10  C   UNL     1       0.831   9.754  19.042  0.00  0.00    +0.000 A 
ATOM     11  C   UNL     1       0.934   9.136  20.282  0.00  0.00    +0.000 A 
ATOM     12  C   UNL     1       1.680   7.961  20.438  0.00  0.00    +0.000 A 
ATOM     13  C   UNL     1       2.315   7.340  19.351  0.00  0.00    +0.000 A 
ATOM     14  C   UNL     1       2.204   7.986  18.105  0.00  0.00    +0.000 A 
ATOM     15  C   UNL     1       1.471   9.178  17.951  0.00  0.00    +0.000 A 
BRANCH  10  17
ATOM     16  C   UNL     1      -1.265  10.700  18.497  0.00  0.00    +0.000 C 
ATOM     17  O   UNL     1       0.048  10.871  19.013  0.00  0.00    +0.000 OA
ENDBRANCH  10  17
ENDBRANCH   1  13
BRANCH   3  18
ATOM     18  C   UNL     1       6.425   4.626  18.509  0.00  0.00    +0.000 C 
ATOM     19  N   UNL     1       7.581   4.495  18.023  0.00  0.00    +0.000 NA
ENDBRANCH   3  18
TORSDOF 3
ENDMDL
MODEL 5
REMARK VINA RESULT:      -6.3      3.786      5.774
REMARK  Name = 
REMARK  4 active torsions:
REMARK  status: ('A' for Active; 'I' for Inactive)
REMARK    1  A    between atoms: C_1  and  O_2
REMARK    2  A    between atoms: O_2  and  C_3
REMARK    3  A    between atoms: C_6  and  N_7
REMARK    4  A    between atoms: C_9  and  C_10
REMARK                            x       y       z     vdW  Elec       q    Type
REMARK                         _______ _______ _______ _____ _____    ______ ____
ROOT
ATOM      1  N   UNL     1       3.015   6.061  19.530  0.00  0.00    +0.000 N 
ATOM      2  C   UNL     1       4.326   5.923  19.059  0.00  0.00    +0.000 A 
ATOM      3  C   UNL     1       5.009   4.772  19.104  0.00  0.00    +0.000 A 
ATOM      4  C   UNL     1       4.369   3.588  19.691  0.00  0.00    +0.000 A 
ATOM      5  O   UNL     1       4.881   2.477  19.668  0.00  0.00    +0.000 OA
ATOM      6  N   UNL     1       3.150   3.811  20.254  0.00  0.00    +0.000 N 
ATOM      7  C   UNL     1       2.374   4.938  20.108  0.00  0.00    +0.000 A 
ATOM      8  O   UNL     1       1.193   4.840  20.441  0.00  0.00    +0.000 OA
ATOM      9  H   UNL     1       2.664   3.002  20.611  0.00  0.00    +0.000 HD
ENDROOT
BRANCH   1  13
ATOM     10  C   UNL     1       0.903   9.789  19.094  0.00  0.00    +0.000 A 
ATOM     11  C   UNL     1       1.508   9.182  18.001  0.00  0.00    +0.000 A 
ATOM     12  C   UNL     1       2.166   7.954  18.137  0.00  0.00    +0.000 A 
ATOM     13  C   UNL     1       2.278   7.308  19.378  0.00  0.00    +0.000 A 
ATOM     14  C   UNL     1       1.653   7.936  20.472  0.00  0.00    +0.000 A 
ATOM     15  C   UNL     1       0.974   9.161  20.332  0.00  0.00    +0.000 A 
BRANCH  10  17
ATOM     16  C   UNL     1      -1.083  11.069  19.025  0.00  0.00    +0.000 C 
ATOM     17  O   UNL     1       0.325  10.999  18.841  0.00  0.00    +0.000 OA
ENDBRANCH  10  17
ENDBRANCH   1  13
BRANCH   3  18
ATOM     18  C   UNL     1       6.393   4.616  18.497  0.00  0.00    +0.000 C 
ATOM     19  N   UNL     1       7.543   4.486  17.994  0.00  0.00    +0.000 NA
ENDBRANCH   3  18
TORSDOF 3
ENDMDL
MODEL 6
REMARK VINA RESULT:      -6.3      2.958      6.442
REMARK  Name = 
REMARK  4 active torsions:
REMARK  status: ('A' for Active; 'I' for Inactive)
REMARK    1  A    between atoms: C_1  and  O_2
REMARK    2  A    between atoms: O_2  and  C_3
REMARK    3  A    between atoms: C_6  and  N_7
REMARK    4  A    between atoms: C_9  and  C_10
REMARK                            x       y       z     vdW  Elec       q    Type
REMARK                         _______ _______ _______ _____ _____    ______ ____
ROOT
ATOM      1  N   UNL     1       4.508   4.533  18.359  0.00  0.00    +0.000 N 
ATOM      2  C   UNL     1       3.860   4.342  19.585  0.00  0.00    +0.000 A 
ATOM      3  C   UNL     1       2.968   3.367  19.803  0.00  0.00    +0.000 A 
ATOM      4  C   UNL     1       2.628   2.455  18.704  0.00  0.00    +0.000 A 
ATOM      5  O   UNL     1       1.911   1.474  18.853  0.00  0.00    +0.000 OA
ATOM      6  N   UNL     1       3.183   2.769  17.501  0.00  0.00    +0.000 N 
ATOM      7  C   UNL     1       4.196   3.673  17.277  0.00  0.00    +0.000 A 
ATOM      8  O   UNL     1       4.762   3.607  16.187  0.00  0.00    +0.000 OA
ATOM      9  H   UNL     1       3.013   2.124  16.744  0.00  0.00    +0.000 HD
ENDROOT
BRANCH   1  13
ATOM     10  C   UNL     1       7.583   7.497  17.805  0.00  0.00    +0.000 A 
ATOM     11  C   UNL     1       6.354   7.621  17.171  0.00  0.00    +0.000 A 
ATOM     12  C   UNL     1       5.343   6.674  17.377  0.00  0.00    +0.000 A 
ATOM     13  C   UNL     1       5.539   5.549  18.193  0.00  0.00    +0.000 A 
ATOM     14  C   UNL     1       6.789   5.446  18.832  0.00  0.00    +0.000 A 
ATOM     15  C   UNL     1       7.800   6.407  18.641  0.00  0.00    +0.000 A 
BRANCH  10  17
ATOM     16  C   UNL     1       8.522   9.596  18.354  0.00  0.00    +0.000 C 
ATOM     17  O   UNL     1       8.496   8.463  17.496  0.00  0.00    +0.000 OA
ENDBRANCH  10  17
ENDBRANCH   1  13
BRANCH   3  18
ATOM     18  C   UNL     1       2.350   3.112  21.168  0.00  0.00    +0.000 C 
ATOM     19  N   UNL     1       1.839   2.899  22.302  0.00  0.00    +0.000 NA
ENDBRANCH   3  18
TORSDOF 3
ENDMDL
MODEL 7
REMARK VINA RESULT:      -6.2      2.553      6.716
REMARK  Name = 
REMARK  4 active torsions:
REMARK  status: ('A' for Active; 'I' for Inactive)
REMARK    1  A    between atoms: C_1  and  O_2
REMARK    2  A    between atoms: O_2  and  C_3
REMARK    3  A    between atoms: C_6  and  N_7
REMARK    4  A    between atoms: C_9  and  C_10
REMARK                            x       y       z     vdW  Elec       q    Type
REMARK                         _______ _______ _______ _____ _____    ______ ____
ROOT
ATOM      1  N   UNL     1       3.953   5.736  18.507  0.00  0.00    +0.000 N 
ATOM      2  C   UNL     1       3.657   4.746  19.450  0.00  0.00    +0.000 A 
ATOM      3  C   UNL     1       2.679   4.860  20.358  0.00  0.00    +0.000 A 
ATOM      4  C   UNL     1       1.879   6.091  20.390  0.00  0.00    +0.000 A 
ATOM      5  O   UNL     1       0.899   6.227  21.111  0.00  0.00    +0.000 OA
ATOM      6  N   UNL     1       2.296   7.072  19.544  0.00  0.00    +0.000 N 
ATOM      7  C   UNL     1       3.202   6.938  18.517  0.00  0.00    +0.000 A 
ATOM      8  O   UNL     1       3.231   7.844  17.686  0.00  0.00    +0.000 OA
ATOM      9  H   UNL     1       1.727   7.905  19.504  0.00  0.00    +0.000 HD
ENDROOT
BRANCH   1  13
ATOM     10  C   UNL     1       6.916   5.193  15.428  0.00  0.00    +0.000 A 
ATOM     11  C   UNL     1       7.167   6.012  16.522  0.00  0.00    +0.000 A 
ATOM     12  C   UNL     1       6.217   6.162  17.539  0.00  0.00    +0.000 A 
ATOM     13  C   UNL     1       4.965   5.531  17.479  0.00  0.00    +0.000 A 
ATOM     14  C   UNL     1       4.732   4.701  16.366  0.00  0.00    +0.000 A 
ATOM     15  C   UNL     1       5.694   4.533  15.353  0.00  0.00    +0.000 A 
BRANCH  10  17
ATOM     16  C   UNL     1       7.487   4.919  13.151  0.00  0.00    +0.000 C 
ATOM     17  O   UNL     1       7.905   5.157  14.489  0.00  0.00    +0.000 OA
ENDBRANCH  10  17
ENDBRANCH   1  13
BRANCH   3  18
ATOM     18  C   UNL     1       2.306   3.734  21.308  0.00  0.00    +0.000 C 
ATOM     19  N   UNL     1       1.996   2.799  22.097  0.00  0.00    +0.000 NA
ENDBRANCH   3  18
TORSDOF 3
ENDMDL
MODEL 8
REMARK VINA RESULT:      -6.2      2.942      6.494
REMARK  Name = 
REMARK  4 active torsions:
REMARK  status: ('A' for Active; 'I' for Inactive)
REMARK    1  A    between atoms: C_1  and  O_2
REMARK    2  A    between atoms: O_2  and  C_3
REMARK    3  A    between atoms: C_6  and  N_7
REMARK    4  A    between atoms: C_9  and  C_10
REMARK                            x       y       z     vdW  Elec       q    Type
REMARK                         _______ _______ _______ _____ _____    ______ ____
ROOT
ATOM      1  N   UNL     1       4.371   4.530  18.318  0.00  0.00    +0.000 N 
ATOM      2  C   UNL     1       3.742   4.254  19.538  0.00  0.00    +0.000 A 
ATOM      3  C   UNL     1       2.761   3.352  19.675  0.00  0.00    +0.000 A 
ATOM      4  C   UNL     1       2.298   2.621  18.488  0.00  0.00    +0.000 A 
ATOM      5  O   UNL     1       1.488   1.705  18.549  0.00  0.00    +0.000 OA
ATOM      6  N   UNL     1       2.847   3.024  17.311  0.00  0.00    +0.000 N 
ATOM      7  C   UNL     1       3.941   3.844  17.155  0.00  0.00    +0.000 A 
ATOM      8  O   UNL     1       4.465   3.858  16.042  0.00  0.00    +0.000 OA
ATOM      9  H   UNL     1       2.590   2.497  16.489  0.00  0.00    +0.000 HD
ENDROOT
BRANCH   1  13
ATOM     10  C   UNL     1       7.665   7.298  18.125  0.00  0.00    +0.000 A 
ATOM     11  C   UNL     1       7.720   6.183  18.951  0.00  0.00    +0.000 A 
ATOM     12  C   UNL     1       6.663   5.265  18.989  0.00  0.00    +0.000 A 
ATOM     13  C   UNL     1       5.496   5.452  18.233  0.00  0.00    +0.000 A 
ATOM     14  C   UNL     1       5.462   6.584  17.397  0.00  0.00    +0.000 A 
ATOM     15  C   UNL     1       6.533   7.497  17.343  0.00  0.00    +0.000 A 
BRANCH  10  17
ATOM     16  C   UNL     1       8.452   9.525  18.206  0.00  0.00    +0.000 C 
ATOM     17  O   UNL     1       8.741   8.133  18.204  0.00  0.00    +0.000 OA
ENDBRANCH  10  17
ENDBRANCH   1  13
BRANCH   3  18
ATOM     18  C   UNL     1       2.160   2.993  21.023  0.00  0.00    +0.000 C 
ATOM     19  N   UNL     1       1.662   2.696  22.144  0.00  0.00    +0.000 NA
ENDBRANCH   3  18
TORSDOF 3
ENDMDL
MODEL 9
REMARK VINA RESULT:      -6.2      2.520      6.863
REMARK  Name = 
REMARK  4 active torsions:
REMARK  status: ('A' for Active; 'I' for Inactive)
REMARK    1  A    between atoms: C_1  and  O_2
REMARK    2  A    between atoms: O_2  and  C_3
REMARK    3  A    between atoms: C_6  and  N_7
REMARK    4  A    between atoms: C_9  and  C_10
REMARK                            x       y       z     vdW  Elec       q    Type
REMARK                         _______ _______ _______ _____ _____    ______ ____
ROOT
ATOM      1  N   UNL     1       4.177   4.066  18.857  0.00  0.00    +0.000 N 
ATOM      2  C   UNL     1       3.305   5.072  19.288  0.00  0.00    +0.000 A 
ATOM      3  C   UNL     1       2.495   4.943  20.348  0.00  0.00    +0.000 A 
ATOM      4  C   UNL     1       2.498   3.679  21.094  0.00  0.00    +0.000 A 
ATOM      5  O   UNL     1       1.874   3.522  22.136  0.00  0.00    +0.000 OA
ATOM      6  N   UNL     1       3.261   2.690  20.553  0.00  0.00    +0.000 N 
ATOM      7  C   UNL     1       4.197   2.832  19.554  0.00  0.00    +0.000 A 
ATOM      8  O   UNL     1       4.987   1.901  19.403  0.00  0.00    +0.000 OA
ATOM      9  H   UNL     1       3.327   1.832  21.079  0.00  0.00    +0.000 HD
ENDROOT
BRANCH   1  13
ATOM     10  C   UNL     1       6.898   4.781  15.596  0.00  0.00    +0.000 A 
ATOM     11  C   UNL     1       7.289   5.002  16.911  0.00  0.00    +0.000 A 
ATOM     12  C   UNL     1       6.415   4.737  17.973  0.00  0.00    +0.000 A 
ATOM     13  C   UNL     1       5.105   4.282  17.756  0.00  0.00    +0.000 A 
ATOM     14  C   UNL     1       4.731   4.059  16.417  0.00  0.00    +0.000 A 
ATOM     15  C   UNL     1       5.615   4.306  15.350  0.00  0.00    +0.000 A 
BRANCH  10  17
ATOM     16  C   UNL     1       7.429   4.932  13.298  0.00  0.00    +0.000 C 
ATOM     17  O   UNL     1       7.826   5.110  14.651  0.00  0.00    +0.000 OA
ENDBRANCH  10  17
ENDBRANCH   1  13
BRANCH   3  18
ATOM     18  C   UNL     1       1.630   6.082  20.861  0.00  0.00    +0.000 C 
ATOM     19  N   UNL     1       0.913   7.028  21.288  0.00  0.00    +0.000 NA
ENDBRANCH   3  18
TORSDOF 3
ENDMDL
