MODEL 1
REMARK VINA RESULT:      -7.7      0.000      0.000
REMARK  Name = 
REMARK  3 active torsions:
REMARK  status: ('A' for Active; 'I' for Inactive)
REMARK    1  A    between atoms: C_4  and  C_5
REMARK    2  A    between atoms: C_16  and  C_17
REMARK    3  A    between atoms: C_24  and  C_25
REMARK                            x       y       z     vdW  Elec       q    Type
REMARK                         _______ _______ _______ _____ _____    ______ ____
ROOT
ATOM      1  O   UNL     1       7.488   4.649  16.396  0.00  0.00    +0.000 OA
ATOM      2  C   UNL     1       6.974   5.660  16.855  0.00  0.00    +0.000 A 
ATOM      3  C   UNL     1       7.731   6.917  17.097  0.00  0.00    +0.000 A 
ATOM      4  C   UNL     1       7.085   7.981  17.604  0.00  0.00    +0.000 A 
ATOM      5  N   UNL     1       5.737   7.961  17.917  0.00  0.00    +0.000 N 
ATOM      6  C   UNL     1       4.984   6.842  17.736  0.00  0.00    +0.000 A 
ATOM      7  C   UNL     1       3.662   6.499  17.954  0.00  0.00    +0.000 A 
ATOM      8  C   UNL     1       3.585   5.118  17.541  0.00  0.00    +0.000 A 
ATOM      9  N   UNL     1       4.773   4.680  17.078  0.00  0.00    +0.000 NA
ATOM     10  N   UNL     1       5.614   5.727  17.210  0.00  0.00    +0.000 N 
ATOM     11  H   UNL     1       5.324   8.849  18.200  0.00  0.00    +0.000 HD
ENDROOT
BRANCH   4  12
ATOM     12  C   UNL     1       7.835   9.216  17.868  0.00  0.00    +0.000 A 
ATOM     13  C   UNL     1       7.492  10.401  17.203  0.00  0.00    +0.000 A 
ATOM     14  C   UNL     1       8.200  11.570  17.473  0.00  0.00    +0.000 A 
ATOM     15  F   UNL     1       7.864  12.699  16.835  0.00  0.00    +0.000 F 
ATOM     16  C   UNL     1       9.244  11.572  18.394  0.00  0.00    +0.000 A 
ATOM     17  F   UNL     1       9.919  12.700  18.643  0.00  0.00    +0.000 F 
ATOM     18  C   UNL     1       9.595  10.406  19.061  0.00  0.00    +0.000 A 
ATOM     19  C   UNL     1       8.888   9.236  18.796  0.00  0.00    +0.000 A 
ATOM     20  F   UNL     1       9.235   8.115  19.444  0.00  0.00    +0.000 F 
ENDBRANCH   4  12
BRANCH   7  21
ATOM     21  C   UNL     1       2.650   7.382  18.532  0.00  0.00    +0.000 A 
ATOM     22  C   UNL     1       2.205   7.192  19.849  0.00  0.00    +0.000 A 
ATOM     23  C   UNL     1       1.359   8.120  20.466  0.00  0.00    +0.000 A 
ATOM     24  C   UNL     1       0.882   9.208  19.745  0.00  0.00    +0.000 A 
ATOM     25 CL   UNL     1      -0.141  10.361  20.506  0.00  0.00    +0.000 Cl
ATOM     26  C   UNL     1       1.245   9.374  18.412  0.00  0.00    +0.000 A 
ATOM     27  C   UNL     1       2.140   8.477  17.815  0.00  0.00    +0.000 A 
ENDBRANCH   7  21
BRANCH   8  28
ATOM     28  C   UNL     1       2.409   4.167  17.575  0.00  0.00    +0.000 C 
ATOM     29  F   UNL     1       1.218   4.750  17.279  0.00  0.00    +0.000 F 
ATOM     30  F   UNL     1       2.562   3.149  16.684  0.00  0.00    +0.000 F 
ATOM     31  F   UNL     1       2.242   3.597  18.799  0.00  0.00    +0.000 F 
ENDBRANCH   8  28
TORSDOF 3
ENDMDL
MODEL 2
REMARK VINA RESULT:      -7.5      5.545      7.069
REMARK  Name = 
REMARK  3 active torsions:
REMARK  status: ('A' for Active; 'I' for Inactive)
REMARK    1  A    between atoms: C_4  and  C_5
REMARK    2  A    between atoms: C_16  and  C_17
REMARK    3  A    between atoms: C_24  and  C_25
REMARK                            x       y       z     vdW  Elec       q    Type
REMARK                         _______ _______ _______ _____ _____    ______ ____
ROOT
ATOM      1  O   UNL     1      -0.352  15.785  18.510  0.00  0.00    +0.000 OA
ATOM      2  C   UNL     1       0.526  14.952  18.690  0.00  0.00    +0.000 A 
ATOM      3  C   UNL     1       1.951  15.312  18.916  0.00  0.00    +0.000 A 
ATOM      4  C   UNL     1       2.851  14.332  19.106  0.00  0.00    +0.000 A 
ATOM      5  N   UNL     1       2.511  12.990  19.098  0.00  0.00    +0.000 N 
ATOM      6  C   UNL     1       1.230  12.585  18.883  0.00  0.00    +0.000 A 
ATOM      7  C   UNL     1       0.584  11.366  18.801  0.00  0.00    +0.000 A 
ATOM      8  C   UNL     1      -0.790  11.713  18.528  0.00  0.00    +0.000 A 
ATOM      9  N   UNL     1      -0.955  13.051  18.483  0.00  0.00    +0.000 NA
ATOM     10  N   UNL     1       0.274  13.567  18.689  0.00  0.00    +0.000 N 
ATOM     11  H   UNL     1       3.249  12.334  19.351  0.00  0.00    +0.000 HD
ENDROOT
BRANCH   4  12
ATOM     12  C   UNL     1       4.263  14.684  19.304  0.00  0.00    +0.000 A 
ATOM     13  C   UNL     1       5.125  14.778  18.203  0.00  0.00    +0.000 A 
ATOM     14  C   UNL     1       6.458  15.128  18.401  0.00  0.00    +0.000 A 
ATOM     15  F   UNL     1       7.275  15.217  17.342  0.00  0.00    +0.000 F 
ATOM     16  C   UNL     1       6.942  15.385  19.680  0.00  0.00    +0.000 A 
ATOM     17  F   UNL     1       8.227  15.718  19.860  0.00  0.00    +0.000 F 
ATOM     18  C   UNL     1       6.101  15.298  20.782  0.00  0.00    +0.000 A 
ATOM     19  C   UNL     1       4.767  14.950  20.587  0.00  0.00    +0.000 A 
ATOM     20  F   UNL     1       3.962  14.868  21.656  0.00  0.00    +0.000 F 
ENDBRANCH   4  12
BRANCH   7  21
ATOM     21  C   UNL     1       1.235  10.061  18.918  0.00  0.00    +0.000 A 
ATOM     22  C   UNL     1       1.169   9.335  20.118  0.00  0.00    +0.000 A 
ATOM     23  C   UNL     1       1.649   8.023  20.194  0.00  0.00    +0.000 A 
ATOM     24  C   UNL     1       2.273   7.449  19.093  0.00  0.00    +0.000 A 
ATOM     25 CL   UNL     1       2.844   5.830  19.178  0.00  0.00    +0.000 Cl
ATOM     26  C   UNL     1       2.422   8.179  17.918  0.00  0.00    +0.000 A 
ATOM     27  C   UNL     1       1.888   9.470  17.825  0.00  0.00    +0.000 A 
ENDBRANCH   7  21
BRANCH   8  28
ATOM     28  C   UNL     1      -1.983  10.813  18.290  0.00  0.00    +0.000 C 
ATOM     29  F   UNL     1      -1.925   9.632  18.960  0.00  0.00    +0.000 F 
ATOM     30  F   UNL     1      -3.144  11.408  18.677  0.00  0.00    +0.000 F 
ATOM     31  F   UNL     1      -2.126  10.482  16.978  0.00  0.00    +0.000 F 
ENDBRANCH   8  28
TORSDOF 3
ENDMDL
MODEL 3
REMARK VINA RESULT:      -7.5      5.753      9.112
REMARK  Name = 
REMARK  3 active torsions:
REMARK  status: ('A' for Active; 'I' for Inactive)
REMARK    1  A    between atoms: C_4  and  C_5
REMARK    2  A    between atoms: C_16  and  C_17
REMARK    3  A    between atoms: C_24  and  C_25
REMARK                            x       y       z     vdW  Elec       q    Type
REMARK                         _______ _______ _______ _____ _____    ______ ____
ROOT
ATOM      1  O   UNL     1      -2.311  11.883  18.421  0.00  0.00    +0.000 OA
ATOM      2  C   UNL     1      -1.105  11.743  18.568  0.00  0.00    +0.000 A 
ATOM      3  C   UNL     1      -0.452  10.413  18.696  0.00  0.00    +0.000 A 
ATOM      4  C   UNL     1       0.881  10.352  18.855  0.00  0.00    +0.000 A 
ATOM      5  N   UNL     1       1.683  11.479  18.909  0.00  0.00    +0.000 N 
ATOM      6  C   UNL     1       1.154  12.730  18.815  0.00  0.00    +0.000 A 
ATOM      7  C   UNL     1       1.658  14.016  18.845  0.00  0.00    +0.000 A 
ATOM      8  C   UNL     1       0.491  14.855  18.705  0.00  0.00    +0.000 A 
ATOM      9  N   UNL     1      -0.628  14.115  18.566  0.00  0.00    +0.000 NA
ATOM     10  N   UNL     1      -0.217  12.832  18.645  0.00  0.00    +0.000 N 
ATOM     11  H   UNL     1       2.689  11.320  18.931  0.00  0.00    +0.000 HD
ENDROOT
BRANCH   4  12
ATOM     12  C   UNL     1       1.526   9.041  19.005  0.00  0.00    +0.000 A 
ATOM     13  C   UNL     1       2.303   8.517  17.964  0.00  0.00    +0.000 A 
ATOM     14  C   UNL     1       2.923   7.280  18.124  0.00  0.00    +0.000 A 
ATOM     15  F   UNL     1       3.666   6.787  17.124  0.00  0.00    +0.000 F 
ATOM     16  C   UNL     1       2.777   6.560  19.306  0.00  0.00    +0.000 A 
ATOM     17  F   UNL     1       3.375   5.370  19.448  0.00  0.00    +0.000 F 
ATOM     18  C   UNL     1       2.011   7.066  20.348  0.00  0.00    +0.000 A 
ATOM     19  C   UNL     1       1.392   8.303  20.192  0.00  0.00    +0.000 A 
ATOM     20  F   UNL     1       0.654   8.784  21.203  0.00  0.00    +0.000 F 
ENDBRANCH   4  12
BRANCH   7  21
ATOM     21  C   UNL     1       3.065  14.362  19.041  0.00  0.00    +0.000 A 
ATOM     22  C   UNL     1       3.911  14.563  17.939  0.00  0.00    +0.000 A 
ATOM     23  C   UNL     1       5.213  15.047  18.107  0.00  0.00    +0.000 A 
ATOM     24  C   UNL     1       5.712  15.261  19.387  0.00  0.00    +0.000 A 
ATOM     25 CL   UNL     1       7.304  15.875  19.595  0.00  0.00    +0.000 Cl
ATOM     26  C   UNL     1       4.919  14.991  20.498  0.00  0.00    +0.000 A 
ATOM     27  C   UNL     1       3.596  14.564  20.325  0.00  0.00    +0.000 A 
ENDBRANCH   7  21
BRANCH   8  28
ATOM     28  C   UNL     1       0.383  16.364  18.706  0.00  0.00    +0.000 C 
ATOM     29  F   UNL     1      -0.826  16.831  18.301  0.00  0.00    +0.000 F 
ATOM     30  F   UNL     1       0.588  16.880  19.949  0.00  0.00    +0.000 F 
ATOM     31  F   UNL     1       1.295  16.947  17.881  0.00  0.00    +0.000 F 
ENDBRANCH   8  28
TORSDOF 3
ENDMDL
MODEL 4
REMARK VINA RESULT:      -7.5      3.649      6.632
REMARK  Name = 
REMARK  3 active torsions:
REMARK  status: ('A' for Active; 'I' for Inactive)
REMARK    1  A    between atoms: C_4  and  C_5
REMARK    2  A    between atoms: C_16  and  C_17
REMARK    3  A    between atoms: C_24  and  C_25
REMARK                            x       y       z     vdW  Elec       q    Type
REMARK                         _______ _______ _______ _____ _____    ______ ____
ROOT
ATOM      1  O   UNL     1       1.721   3.985  17.242  0.00  0.00    +0.000 OA
ATOM      2  C   UNL     1       2.290   4.980  17.670  0.00  0.00    +0.000 A 
ATOM      3  C   UNL     1       1.596   6.041  18.446  0.00  0.00    +0.000 A 
ATOM      4  C   UNL     1       2.300   7.101  18.879  0.00  0.00    +0.000 A 
ATOM      5  N   UNL     1       3.654   7.254  18.631  0.00  0.00    +0.000 N 
ATOM      6  C   UNL     1       4.352   6.332  17.914  0.00  0.00    +0.000 A 
ATOM      7  C   UNL     1       5.661   6.198  17.493  0.00  0.00    +0.000 A 
ATOM      8  C   UNL     1       5.668   4.960  16.751  0.00  0.00    +0.000 A 
ATOM      9  N   UNL     1       4.450   4.380  16.759  0.00  0.00    +0.000 NA
ATOM     10  N   UNL     1       3.661   5.223  17.457  0.00  0.00    +0.000 N 
ATOM     11  H   UNL     1       4.112   8.042  19.087  0.00  0.00    +0.000 HD
ENDROOT
BRANCH   4  12
ATOM     12  C   UNL     1       1.612   8.163  19.624  0.00  0.00    +0.000 A 
ATOM     13  C   UNL     1       1.421   8.039  21.007  0.00  0.00    +0.000 A 
ATOM     14  C   UNL     1       0.782   9.059  21.707  0.00  0.00    +0.000 A 
ATOM     15  F   UNL     1       0.604   8.933  23.029  0.00  0.00    +0.000 F 
ATOM     16  C   UNL     1       0.330  10.198  21.047  0.00  0.00    +0.000 A 
ATOM     17  F   UNL     1      -0.286  11.172  21.729  0.00  0.00    +0.000 F 
ATOM     18  C   UNL     1       0.513  10.337  19.677  0.00  0.00    +0.000 A 
ATOM     19  C   UNL     1       1.154   9.320  18.976  0.00  0.00    +0.000 A 
ATOM     20  F   UNL     1       1.326   9.462  17.653  0.00  0.00    +0.000 F 
ENDBRANCH   4  12
BRANCH   7  21
ATOM     21  C   UNL     1       6.725   7.171  17.737  0.00  0.00    +0.000 A 
ATOM     22  C   UNL     1       6.676   8.445  17.151  0.00  0.00    +0.000 A 
ATOM     23  C   UNL     1       7.600   9.437  17.500  0.00  0.00    +0.000 A 
ATOM     24  C   UNL     1       8.634   9.140  18.381  0.00  0.00    +0.000 A 
ATOM     25 CL   UNL     1       9.758  10.361  18.828  0.00  0.00    +0.000 Cl
ATOM     26  C   UNL     1       8.751   7.859  18.912  0.00  0.00    +0.000 A 
ATOM     27  C   UNL     1       7.789   6.886  18.608  0.00  0.00    +0.000 A 
ENDBRANCH   7  21
BRANCH   8  28
ATOM     28  C   UNL     1       6.801   4.289  16.006  0.00  0.00    +0.000 C 
ATOM     29  F   UNL     1       7.882   4.010  16.780  0.00  0.00    +0.000 F 
ATOM     30  F   UNL     1       6.410   3.102  15.464  0.00  0.00    +0.000 F 
ATOM     31  F   UNL     1       7.271   5.054  14.984  0.00  0.00    +0.000 F 
ENDBRANCH   8  28
TORSDOF 3
ENDMDL
MODEL 5
REMARK VINA RESULT:      -7.4      5.536      7.122
REMARK  Name = 
REMARK  3 active torsions:
REMARK  status: ('A' for Active; 'I' for Inactive)
REMARK    1  A    between atoms: C_4  and  C_5
REMARK    2  A    between atoms: C_16  and  C_17
REMARK    3  A    between atoms: C_24  and  C_25
REMARK                            x       y       z     vdW  Elec       q    Type
REMARK                         _______ _______ _______ _____ _____    ______ ____
ROOT
ATOM      1  O   UNL     1      -0.363  15.864  18.471  0.00  0.00    +0.000 OA
ATOM      2  C   UNL     1       0.478  14.995  18.654  0.00  0.00    +0.000 A 
ATOM      3  C   UNL     1       1.917  15.293  18.882  0.00  0.00    +0.000 A 
ATOM      4  C   UNL     1       2.773  14.275  19.075  0.00  0.00    +0.000 A 
ATOM      5  N   UNL     1       2.375  12.949  19.070  0.00  0.00    +0.000 N 
ATOM      6  C   UNL     1       1.078  12.599  18.853  0.00  0.00    +0.000 A 
ATOM      7  C   UNL     1       0.380  11.409  18.773  0.00  0.00    +0.000 A 
ATOM      8  C   UNL     1      -0.977  11.815  18.496  0.00  0.00    +0.000 A 
ATOM      9  N   UNL     1      -1.084  13.159  18.448  0.00  0.00    +0.000 NA
ATOM     10  N   UNL     1       0.166  13.622  18.655  0.00  0.00    +0.000 N 
ATOM     11  H   UNL     1       3.083  12.262  19.325  0.00  0.00    +0.000 HD
ENDROOT
BRANCH   4  12
ATOM     12  C   UNL     1       4.199  14.566  19.276  0.00  0.00    +0.000 A 
ATOM     13  C   UNL     1       5.054  14.678  18.171  0.00  0.00    +0.000 A 
ATOM     14  C   UNL     1       6.401  14.970  18.372  0.00  0.00    +0.000 A 
ATOM     15  F   UNL     1       7.212  15.077  17.310  0.00  0.00    +0.000 F 
ATOM     16  C   UNL     1       6.905  15.150  19.657  0.00  0.00    +0.000 A 
ATOM     17  F   UNL     1       8.202  15.428  19.838  0.00  0.00    +0.000 F 
ATOM     18  C   UNL     1       6.070  15.043  20.762  0.00  0.00    +0.000 A 
ATOM     19  C   UNL     1       4.723  14.754  20.564  0.00  0.00    +0.000 A 
ATOM     20  F   UNL     1       3.924  14.652  21.636  0.00  0.00    +0.000 F 
ENDBRANCH   4  12
BRANCH   7  21
ATOM     21  C   UNL     1       0.973  10.078  18.894  0.00  0.00    +0.000 A 
ATOM     22  C   UNL     1       1.639   9.491  17.807  0.00  0.00    +0.000 A 
ATOM     23  C   UNL     1       2.345   8.292  17.955  0.00  0.00    +0.000 A 
ATOM     24  C   UNL     1       2.326   7.624  19.174  0.00  0.00    +0.000 A 
ATOM     25 CL   UNL     1       3.210   6.162  19.364  0.00  0.00    +0.000 Cl
ATOM     26  C   UNL     1       1.605   8.145  20.243  0.00  0.00    +0.000 A 
ATOM     27  C   UNL     1       0.950   9.376  20.110  0.00  0.00    +0.000 A 
ENDBRANCH   7  21
BRANCH   8  28
ATOM     28  C   UNL     1      -2.207  10.967  18.258  0.00  0.00    +0.000 C 
ATOM     29  F   UNL     1      -3.311  11.396  18.925  0.00  0.00    +0.000 F 
ATOM     30  F   UNL     1      -2.551  10.941  16.941  0.00  0.00    +0.000 F 
ATOM     31  F   UNL     1      -2.027   9.676  18.645  0.00  0.00    +0.000 F 
ENDBRANCH   8  28
TORSDOF 3
ENDMDL
MODEL 6
REMARK VINA RESULT:      -7.4      5.653      7.177
REMARK  Name = 
REMARK  3 active torsions:
REMARK  status: ('A' for Active; 'I' for Inactive)
REMARK    1  A    between atoms: C_4  and  C_5
REMARK    2  A    between atoms: C_16  and  C_17
REMARK    3  A    between atoms: C_24  and  C_25
REMARK                            x       y       z     vdW  Elec       q    Type
REMARK                         _______ _______ _______ _____ _____    ______ ____
ROOT
ATOM      1  O   UNL     1      -0.452  15.717  18.623  0.00  0.00    +0.000 OA
ATOM      2  C   UNL     1       0.426  14.897  18.854  0.00  0.00    +0.000 A 
ATOM      3  C   UNL     1       1.811  15.276  19.239  0.00  0.00    +0.000 A 
ATOM      4  C   UNL     1       2.713  14.308  19.474  0.00  0.00    +0.000 A 
ATOM      5  N   UNL     1       2.411  12.961  19.371  0.00  0.00    +0.000 N 
ATOM      6  C   UNL     1       1.170  12.539  19.009  0.00  0.00    +0.000 A 
ATOM      7  C   UNL     1       0.567  11.311  18.807  0.00  0.00    +0.000 A 
ATOM      8  C   UNL     1      -0.781  11.641  18.411  0.00  0.00    +0.000 A 
ATOM      9  N   UNL     1      -0.977  12.976  18.411  0.00  0.00    +0.000 NA
ATOM     10  N   UNL     1       0.212  13.508  18.763  0.00  0.00    +0.000 N 
ATOM     11  H   UNL     1       3.137  12.310  19.668  0.00  0.00    +0.000 HD
ENDROOT
BRANCH   4  12
ATOM     12  C   UNL     1       4.088  14.681  19.831  0.00  0.00    +0.000 A 
ATOM     13  C   UNL     1       4.488  14.685  21.174  0.00  0.00    +0.000 A 
ATOM     14  C   UNL     1       5.800  15.024  21.500  0.00  0.00    +0.000 A 
ATOM     15  F   UNL     1       6.175  15.024  22.786  0.00  0.00    +0.000 F 
ATOM     16  C   UNL     1       6.714  15.359  20.505  0.00  0.00    +0.000 A 
ATOM     17  F   UNL     1       7.971  15.687  20.830  0.00  0.00    +0.000 F 
ATOM     18  C   UNL     1       6.333  15.359  19.169  0.00  0.00    +0.000 A 
ATOM     19  C   UNL     1       5.024  15.018  18.841  0.00  0.00    +0.000 A 
ATOM     20  F   UNL     1       4.665  15.020  17.549  0.00  0.00    +0.000 F 
ENDBRANCH   4  12
BRANCH   7  21
ATOM     21  C   UNL     1       1.237  10.017  18.930  0.00  0.00    +0.000 A 
ATOM     22  C   UNL     1       1.164   9.286  20.126  0.00  0.00    +0.000 A 
ATOM     23  C   UNL     1       1.663   7.981  20.206  0.00  0.00    +0.000 A 
ATOM     24  C   UNL     1       2.314   7.421  19.113  0.00  0.00    +0.000 A 
ATOM     25 CL   UNL     1       2.911   5.812  19.202  0.00  0.00    +0.000 Cl
ATOM     26  C   UNL     1       2.471   8.157  17.943  0.00  0.00    +0.000 A 
ATOM     27  C   UNL     1       1.917   9.440  17.845  0.00  0.00    +0.000 A 
ENDBRANCH   7  21
BRANCH   8  28
ATOM     28  C   UNL     1      -1.920  10.728  18.014  0.00  0.00    +0.000 C 
ATOM     29  F   UNL     1      -3.141  11.323  18.042  0.00  0.00    +0.000 F 
ATOM     30  F   UNL     1      -1.762  10.253  16.747  0.00  0.00    +0.000 F 
ATOM     31  F   UNL     1      -2.022   9.645  18.831  0.00  0.00    +0.000 F 
ENDBRANCH   8  28
TORSDOF 3
ENDMDL
MODEL 7
REMARK VINA RESULT:      -7.4      5.716      7.298
REMARK  Name = 
REMARK  3 active torsions:
REMARK  status: ('A' for Active; 'I' for Inactive)
REMARK    1  A    between atoms: C_4  and  C_5
REMARK    2  A    between atoms: C_16  and  C_17
REMARK    3  A    between atoms: C_24  and  C_25
REMARK                            x       y       z     vdW  Elec       q    Type
REMARK                         _______ _______ _______ _____ _____    ______ ____
ROOT
ATOM      1  O   UNL     1      -0.462  15.680  18.506  0.00  0.00    +0.000 OA
ATOM      2  C   UNL     1       0.347  14.820  18.824  0.00  0.00    +0.000 A 
ATOM      3  C   UNL     1       1.700  15.136  19.357  0.00  0.00    +0.000 A 
ATOM      4  C   UNL     1       2.526  14.127  19.682  0.00  0.00    +0.000 A 
ATOM      5  N   UNL     1       2.176  12.795  19.540  0.00  0.00    +0.000 N 
ATOM      6  C   UNL     1       0.962  12.430  19.046  0.00  0.00    +0.000 A 
ATOM      7  C   UNL     1       0.330  11.231  18.774  0.00  0.00    +0.000 A 
ATOM      8  C   UNL     1      -0.952  11.623  18.239  0.00  0.00    +0.000 A 
ATOM      9  N   UNL     1      -1.086  12.965  18.224  0.00  0.00    +0.000 NA
ATOM     10  N   UNL     1       0.081  13.443  18.704  0.00  0.00    +0.000 N 
ATOM     11  H   UNL     1       2.836  12.112  19.909  0.00  0.00    +0.000 HD
ENDROOT
BRANCH   4  12
ATOM     12  C   UNL     1       3.871  14.436  20.185  0.00  0.00    +0.000 A 
ATOM     13  C   UNL     1       4.177  14.236  21.538  0.00  0.00    +0.000 A 
ATOM     14  C   UNL     1       5.461  14.518  22.001  0.00  0.00    +0.000 A 
ATOM     15  F   UNL     1       5.746  14.323  23.295  0.00  0.00    +0.000 F 
ATOM     16  C   UNL     1       6.439  14.995  21.134  0.00  0.00    +0.000 A 
ATOM     17  F   UNL     1       7.669  15.265  21.590  0.00  0.00    +0.000 F 
ATOM     18  C   UNL     1       6.152  15.198  19.790  0.00  0.00    +0.000 A 
ATOM     19  C   UNL     1       4.871  14.915  19.324  0.00  0.00    +0.000 A 
ATOM     20  F   UNL     1       4.602  15.113  18.026  0.00  0.00    +0.000 F 
ENDBRANCH   4  12
BRANCH   7  21
ATOM     21  C   UNL     1       0.923   9.908  18.961  0.00  0.00    +0.000 A 
ATOM     22  C   UNL     1       1.552   9.249  17.893  0.00  0.00    +0.000 A 
ATOM     23  C   UNL     1       2.259   8.059  18.095  0.00  0.00    +0.000 A 
ATOM     24  C   UNL     1       2.279   7.471  19.354  0.00  0.00    +0.000 A 
ATOM     25 CL   UNL     1       3.164   6.020  19.609  0.00  0.00    +0.000 Cl
ATOM     26  C   UNL     1       1.595   8.063  20.411  0.00  0.00    +0.000 A 
ATOM     27  C   UNL     1       0.938   9.286  20.220  0.00  0.00    +0.000 A 
ENDBRANCH   7  21
BRANCH   8  28
ATOM     28  C   UNL     1      -2.082  10.763  17.717  0.00  0.00    +0.000 C 
ATOM     29  F   UNL     1      -1.900  10.324  16.445  0.00  0.00    +0.000 F 
ATOM     30  F   UNL     1      -2.255   9.647  18.479  0.00  0.00    +0.000 F 
ATOM     31  F   UNL     1      -3.272  11.423  17.709  0.00  0.00    +0.000 F 
ENDBRANCH   8  28
TORSDOF 3
ENDMDL
MODEL 8
REMARK VINA RESULT:      -7.3      5.793      9.032
REMARK  Name = 
REMARK  3 active torsions:
REMARK  status: ('A' for Active; 'I' for Inactive)
REMARK    1  A    between atoms: C_4  and  C_5
REMARK    2  A    between atoms: C_16  and  C_17
REMARK    3  A    between atoms: C_24  and  C_25
REMARK                            x       y       z     vdW  Elec       q    Type
REMARK                         _______ _______ _______ _____ _____    ______ ____
ROOT
ATOM      1  O   UNL     1      -2.369  11.810  18.477  0.00  0.00    +0.000 OA
ATOM      2  C   UNL     1      -1.155  11.711  18.592  0.00  0.00    +0.000 A 
ATOM      3  C   UNL     1      -0.451  10.403  18.663  0.00  0.00    +0.000 A 
ATOM      4  C   UNL     1       0.888  10.387  18.788  0.00  0.00    +0.000 A 
ATOM      5  N   UNL     1       1.648  11.541  18.857  0.00  0.00    +0.000 N 
ATOM      6  C   UNL     1       1.072  12.773  18.814  0.00  0.00    +0.000 A 
ATOM      7  C   UNL     1       1.529  14.076  18.872  0.00  0.00    +0.000 A 
ATOM      8  C   UNL     1       0.329  14.874  18.785  0.00  0.00    +0.000 A 
ATOM      9  N   UNL     1      -0.765  14.097  18.650  0.00  0.00    +0.000 NA
ATOM     10  N   UNL     1      -0.305  12.830  18.680  0.00  0.00    +0.000 N 
ATOM     11  H   UNL     1       2.659  11.419  18.850  0.00  0.00    +0.000 HD
ENDROOT
BRANCH   4  12
ATOM     12  C   UNL     1       1.583   9.097  18.883  0.00  0.00    +0.000 A 
ATOM     13  C   UNL     1       2.383   8.651  17.823  0.00  0.00    +0.000 A 
ATOM     14  C   UNL     1       3.052   7.434  17.930  0.00  0.00    +0.000 A 
ATOM     15  F   UNL     1       3.816   7.015  16.913  0.00  0.00    +0.000 F 
ATOM     16  C   UNL     1       2.931   6.657  19.079  0.00  0.00    +0.000 A 
ATOM     17  F   UNL     1       3.576   5.487  19.171  0.00  0.00    +0.000 F 
ATOM     18  C   UNL     1       2.143   7.085  20.139  0.00  0.00    +0.000 A 
ATOM     19  C   UNL     1       1.476   8.303  20.035  0.00  0.00    +0.000 A 
ATOM     20  F   UNL     1       0.717   8.709  21.064  0.00  0.00    +0.000 F 
ENDBRANCH   4  12
BRANCH   7  21
ATOM     21  C   UNL     1       2.927  14.469  19.044  0.00  0.00    +0.000 A 
ATOM     22  C   UNL     1       3.461  14.665  20.326  0.00  0.00    +0.000 A 
ATOM     23  C   UNL     1       4.831  14.884  20.512  0.00  0.00    +0.000 A 
ATOM     24  C   UNL     1       5.670  14.990  19.409  0.00  0.00    +0.000 A 
ATOM     25 CL   UNL     1       7.356  15.239  19.636  0.00  0.00    +0.000 Cl
ATOM     26  C   UNL     1       5.150  14.880  18.124  0.00  0.00    +0.000 A 
ATOM     27  C   UNL     1       3.789  14.600  17.943  0.00  0.00    +0.000 A 
ENDBRANCH   7  21
BRANCH   8  28
ATOM     28  C   UNL     1       0.166  16.378  18.834  0.00  0.00    +0.000 C 
ATOM     29  F   UNL     1       0.854  17.040  17.868  0.00  0.00    +0.000 F 
ATOM     30  F   UNL     1      -1.137  16.745  18.688  0.00  0.00    +0.000 F 
ATOM     31  F   UNL     1       0.595  16.905  20.013  0.00  0.00    +0.000 F 
ENDBRANCH   8  28
TORSDOF 3
ENDMDL
MODEL 9
REMARK VINA RESULT:      -7.2      5.941      8.801
REMARK  Name = 
REMARK  3 active torsions:
REMARK  status: ('A' for Active; 'I' for Inactive)
REMARK    1  A    between atoms: C_4  and  C_5
REMARK    2  A    between atoms: C_16  and  C_17
REMARK    3  A    between atoms: C_24  and  C_25
REMARK                            x       y       z     vdW  Elec       q    Type
REMARK                         _______ _______ _______ _____ _____    ______ ____
ROOT
ATOM      1  O   UNL     1      -0.882   9.208  23.460  0.00  0.00    +0.000 OA
ATOM      2  C   UNL     1      -0.254   9.582  22.479  0.00  0.00    +0.000 A 
ATOM      3  C   UNL     1       0.449   8.648  21.560  0.00  0.00    +0.000 A 
ATOM      4  C   UNL     1       1.115   9.146  20.504  0.00  0.00    +0.000 A 
ATOM      5  N   UNL     1       1.181  10.501  20.231  0.00  0.00    +0.000 N 
ATOM      6  C   UNL     1       0.575  11.417  21.035  0.00  0.00    +0.000 A 
ATOM      7  C   UNL     1       0.466  12.795  21.050  0.00  0.00    +0.000 A 
ATOM      8  C   UNL     1      -0.319  13.073  22.229  0.00  0.00    +0.000 A 
ATOM      9  N   UNL     1      -0.680  11.933  22.855  0.00  0.00    +0.000 NA
ATOM     10  N   UNL     1      -0.125  10.940  22.130  0.00  0.00    +0.000 N 
ATOM     11  H   UNL     1       1.626  10.766  19.353  0.00  0.00    +0.000 HD
ENDROOT
BRANCH   4  12
ATOM     12  C   UNL     1       1.831   8.227  19.610  0.00  0.00    +0.000 A 
ATOM     13  C   UNL     1       2.230   6.966  20.072  0.00  0.00    +0.000 A 
ATOM     14  C   UNL     1       2.893   6.096  19.210  0.00  0.00    +0.000 A 
ATOM     15  F   UNL     1       3.270   4.891  19.660  0.00  0.00    +0.000 F 
ATOM     16  C   UNL     1       3.165   6.467  17.897  0.00  0.00    +0.000 A 
ATOM     17  F   UNL     1       3.806   5.624  17.078  0.00  0.00    +0.000 F 
ATOM     18  C   UNL     1       2.775   7.714  17.423  0.00  0.00    +0.000 A 
ATOM     19  C   UNL     1       2.110   8.584  18.281  0.00  0.00    +0.000 A 
ATOM     20  F   UNL     1       1.737   9.785  17.816  0.00  0.00    +0.000 F 
ENDBRANCH   4  12
BRANCH   7  21
ATOM     21  C   UNL     1       1.089  13.697  20.082  0.00  0.00    +0.000 A 
ATOM     22  C   UNL     1       0.332  14.691  19.443  0.00  0.00    +0.000 A 
ATOM     23  C   UNL     1       0.944  15.659  18.639  0.00  0.00    +0.000 A 
ATOM     24  C   UNL     1       2.312  15.594  18.399  0.00  0.00    +0.000 A 
ATOM     25 CL   UNL     1       3.070  16.793  17.427  0.00  0.00    +0.000 Cl
ATOM     26  C   UNL     1       3.070  14.569  18.956  0.00  0.00    +0.000 A 
ATOM     27  C   UNL     1       2.465  13.638  19.810  0.00  0.00    +0.000 A 
ENDBRANCH   7  21
BRANCH   8  28
ATOM     28  C   UNL     1      -0.745  14.402  22.812  0.00  0.00    +0.000 C 
ATOM     29  F   UNL     1      -1.749  15.010  22.126  0.00  0.00    +0.000 F 
ATOM     30  F   UNL     1      -1.192  14.269  24.091  0.00  0.00    +0.000 F 
ATOM     31  F   UNL     1       0.274  15.303  22.841  0.00  0.00    +0.000 F 
ENDBRANCH   8  28
TORSDOF 3
ENDMDL
