MODEL 1
REMARK VINA RESULT:      -6.9      0.000      0.000
REMARK  Name = 
REMARK  14 active torsions:
REMARK  status: ('A' for Active; 'I' for Inactive)
REMARK    1  A    between atoms: C_1  and  C_2
REMARK    2  A    between atoms: C_2  and  N_3
REMARK    3  A    between atoms: N_3  and  C_4
REMARK    4  A    between atoms: N_3  and  C_6
REMARK    5  A    between atoms: C_4  and  C_5
REMARK    6  A    between atoms: C_6  and  C_7
REMARK    7  A    between atoms: C_7  and  C_8
REMARK    8  A    between atoms: C_8  and  C_9
REMARK    9  A    between atoms: C_9  and  C_10
REMARK   10  A    between atoms: C_9  and  N_11
REMARK   11  A    between atoms: N_11  and  C_12
REMARK   12  A    between atoms: C_16  and  C_17
REMARK   13  A    between atoms: C_17  and  O_18
REMARK   14  A    between atoms: O_18  and  C_19
REMARK                            x       y       z     vdW  Elec       q    Type
REMARK                         _______ _______ _______ _____ _____    ______ ____
ROOT
ATOM      1  C   UNL     1       2.655   6.706  19.629  0.00  0.00    +0.000 A 
ATOM      2  C   UNL     1       3.065   7.068  18.348  0.00  0.00    +0.000 A 
ATOM      3  C   UNL     1       2.659   8.255  17.761  0.00  0.00    +0.000 A 
ATOM      4  N   UNL     1       1.831   9.120  18.353  0.00  0.00    +0.000 NA
ATOM      5  C   UNL     1       1.389   8.788  19.582  0.00  0.00    +0.000 A 
ATOM      6  C   UNL     1       1.782   7.615  20.249  0.00  0.00    +0.000 A 
ENDROOT
BRANCH   1   7
ATOM      7  N   UNL     1       2.941   5.507  20.257  0.00  0.00    +0.000 N 
ATOM      8  H   UNL     1       3.837   5.518  20.750  0.00  0.00    +0.000 HD
BRANCH   7   9
ATOM      9  C   UNL     1       2.458   4.124  20.044  0.00  0.00    +0.000 C 
ATOM     10  C   UNL     1       1.708   3.501  21.210  0.00  0.00    +0.000 C 
BRANCH   9  11
ATOM     11  C   UNL     1       3.648   3.224  19.631  0.00  0.00    +0.000 C 
BRANCH  11  12
ATOM     12  C   UNL     1       4.424   3.734  18.401  0.00  0.00    +0.000 C 
BRANCH  12  13
ATOM     13  C   UNL     1       5.841   4.263  18.712  0.00  0.00    +0.000 C 
BRANCH  13  14
ATOM     14  N   UNL     1       6.346   5.224  17.718  0.00  0.00    +0.000 NA
BRANCH  14  16
ATOM     15  C   UNL     1       7.571   7.419  17.501  0.00  0.00    +0.000 C 
ATOM     16  C   UNL     1       7.280   6.179  18.332  0.00  0.00    +0.000 C 
ENDBRANCH  14  16
BRANCH  14  17
ATOM     17  C   UNL     1       6.877   4.546  16.522  0.00  0.00    +0.000 C 
ATOM     18  C   UNL     1       6.144   4.805  15.206  0.00  0.00    +0.000 C 
ENDBRANCH  14  17
ENDBRANCH  13  14
ENDBRANCH  12  13
ENDBRANCH  11  12
ENDBRANCH   9  11
ENDBRANCH   7   9
ENDBRANCH   1   7
BRANCH   5  19
ATOM     19  C   UNL     1       0.417   9.760  20.185  0.00  0.00    +0.000 C 
BRANCH  19  20
ATOM     20  O   UNL     1       0.207  10.846  19.284  0.00  0.00    +0.000 OA
BRANCH  20  21
ATOM     21  C   UNL     1      -1.084  11.040  18.873  0.00  0.00    +0.000 A 
ATOM     22  C   UNL     1      -2.024  11.850  19.508  0.00  0.00    +0.000 A 
ATOM     23  C   UNL     1      -3.301  12.006  18.962  0.00  0.00    +0.000 A 
ATOM     24  C   UNL     1      -3.643  11.345  17.782  0.00  0.00    +0.000 A 
ATOM     25 CL   UNL     1      -5.226  11.620  17.145  0.00  0.00    +0.000 Cl
ATOM     26  C   UNL     1      -2.713  10.512  17.156  0.00  0.00    +0.000 A 
ATOM     27 CL   UNL     1      -3.071   9.657  15.697  0.00  0.00    +0.000 Cl
ATOM     28  C   UNL     1      -1.437  10.357  17.707  0.00  0.00    +0.000 A 
ENDBRANCH  20  21
ENDBRANCH  19  20
ENDBRANCH   5  19
TORSDOF 11
ENDMDL
MODEL 2
REMARK VINA RESULT:      -6.8      4.302      9.725
REMARK  Name = 
REMARK  14 active torsions:
REMARK  status: ('A' for Active; 'I' for Inactive)
REMARK    1  A    between atoms: C_1  and  C_2
REMARK    2  A    between atoms: C_2  and  N_3
REMARK    3  A    between atoms: N_3  and  C_4
REMARK    4  A    between atoms: N_3  and  C_6
REMARK    5  A    between atoms: C_4  and  C_5
REMARK    6  A    between atoms: C_6  and  C_7
REMARK    7  A    between atoms: C_7  and  C_8
REMARK    8  A    between atoms: C_8  and  C_9
REMARK    9  A    between atoms: C_9  and  C_10
REMARK   10  A    between atoms: C_9  and  N_11
REMARK   11  A    between atoms: N_11  and  C_12
REMARK   12  A    between atoms: C_16  and  C_17
REMARK   13  A    between atoms: C_17  and  O_18
REMARK   14  A    between atoms: O_18  and  C_19
REMARK                            x       y       z     vdW  Elec       q    Type
REMARK                         _______ _______ _______ _____ _____    ______ ____
ROOT
ATOM      1  C   UNL     1      -0.629  10.698  18.818  0.00  0.00    +0.000 A 
ATOM      2  C   UNL     1      -0.834  11.635  19.828  0.00  0.00    +0.000 A 
ATOM      3  C   UNL     1      -0.338  11.447  21.107  0.00  0.00    +0.000 A 
ATOM      4  N   UNL     1       0.337  10.357  21.479  0.00  0.00    +0.000 NA
ATOM      5  C   UNL     1       0.529   9.414  20.535  0.00  0.00    +0.000 A 
ATOM      6  C   UNL     1       0.080   9.551  19.211  0.00  0.00    +0.000 A 
ENDROOT
BRANCH   1   7
ATOM      7  N   UNL     1      -1.156  10.763  17.539  0.00  0.00    +0.000 N 
ATOM      8  H   UNL     1      -1.015  11.674  17.096  0.00  0.00    +0.000 HD
BRANCH   7   9
ATOM      9  C   UNL     1      -2.203   9.979  16.847  0.00  0.00    +0.000 C 
ATOM     10  C   UNL     1      -2.595  10.479  15.467  0.00  0.00    +0.000 C 
BRANCH   9  11
ATOM     11  C   UNL     1      -3.453   9.881  17.755  0.00  0.00    +0.000 C 
BRANCH  11  12
ATOM     12  C   UNL     1      -4.521  10.957  17.473  0.00  0.00    +0.000 C 
BRANCH  12  13
ATOM     13  C   UNL     1      -5.215  11.516  18.733  0.00  0.00    +0.000 C 
BRANCH  13  14
ATOM     14  N   UNL     1      -6.678  11.347  18.727  0.00  0.00    +0.000 NA
BRANCH  14  16
ATOM     15  C   UNL     1      -7.056   9.029  19.648  0.00  0.00    +0.000 C 
ATOM     16  C   UNL     1      -7.121  10.532  19.867  0.00  0.00    +0.000 C 
ENDBRANCH  14  16
BRANCH  14  17
ATOM     17  C   UNL     1      -7.377  12.639  18.601  0.00  0.00    +0.000 C 
ATOM     18  C   UNL     1      -7.264  13.350  17.254  0.00  0.00    +0.000 C 
ENDBRANCH  14  17
ENDBRANCH  13  14
ENDBRANCH  12  13
ENDBRANCH  11  12
ENDBRANCH   9  11
ENDBRANCH   7   9
ENDBRANCH   1   7
BRANCH   5  19
ATOM     19  C   UNL     1       1.243   8.183  21.012  0.00  0.00    +0.000 C 
BRANCH  19  20
ATOM     20  O   UNL     1       2.228   7.801  20.054  0.00  0.00    +0.000 OA
BRANCH  20  21
ATOM     21  C   UNL     1       2.131   6.524  19.573  0.00  0.00    +0.000 A 
ATOM     22  C   UNL     1       2.357   6.136  18.252  0.00  0.00    +0.000 A 
ATOM     23  C   UNL     1       2.273   4.788  17.892  0.00  0.00    +0.000 A 
ATOM     24  C   UNL     1       1.956   3.826  18.850  0.00  0.00    +0.000 A 
ATOM     25 CL   UNL     1       1.912   2.176  18.338  0.00  0.00    +0.000 Cl
ATOM     26  C   UNL     1       1.704   4.212  20.169  0.00  0.00    +0.000 A 
ATOM     27 CL   UNL     1       1.298   3.076  21.406  0.00  0.00    +0.000 Cl
ATOM     28  C   UNL     1       1.786   5.562  20.525  0.00  0.00    +0.000 A 
ENDBRANCH  20  21
ENDBRANCH  19  20
ENDBRANCH   5  19
TORSDOF 11
ENDMDL
MODEL 3
REMARK VINA RESULT:      -6.7      3.671      6.123
REMARK  Name = 
REMARK  14 active torsions:
REMARK  status: ('A' for Active; 'I' for Inactive)
REMARK    1  A    between atoms: C_1  and  C_2
REMARK    2  A    between atoms: C_2  and  N_3
REMARK    3  A    between atoms: N_3  and  C_4
REMARK    4  A    between atoms: N_3  and  C_6
REMARK    5  A    between atoms: C_4  and  C_5
REMARK    6  A    between atoms: C_6  and  C_7
REMARK    7  A    between atoms: C_7  and  C_8
REMARK    8  A    between atoms: C_8  and  C_9
REMARK    9  A    between atoms: C_9  and  C_10
REMARK   10  A    between atoms: C_9  and  N_11
REMARK   11  A    between atoms: N_11  and  C_12
REMARK   12  A    between atoms: C_16  and  C_17
REMARK   13  A    between atoms: C_17  and  O_18
REMARK   14  A    between atoms: O_18  and  C_19
REMARK                            x       y       z     vdW  Elec       q    Type
REMARK                         _______ _______ _______ _____ _____    ______ ____
ROOT
ATOM      1  C   UNL     1       5.982   5.928  16.591  0.00  0.00    +0.000 A 
ATOM      2  C   UNL     1       5.893   4.663  16.014  0.00  0.00    +0.000 A 
ATOM      3  C   UNL     1       4.781   3.857  16.195  0.00  0.00    +0.000 A 
ATOM      4  N   UNL     1       3.736   4.207  16.948  0.00  0.00    +0.000 NA
ATOM      5  C   UNL     1       3.801   5.413  17.548  0.00  0.00    +0.000 A 
ATOM      6  C   UNL     1       4.883   6.294  17.386  0.00  0.00    +0.000 A 
ENDROOT
BRANCH   1   7
ATOM      7  N   UNL     1       7.084   6.763  16.534  0.00  0.00    +0.000 N 
ATOM      8  H   UNL     1       7.510   6.799  15.605  0.00  0.00    +0.000 HD
BRANCH   7   9
ATOM      9  C   UNL     1       8.004   7.279  17.573  0.00  0.00    +0.000 C 
ATOM     10  C   UNL     1       7.990   6.531  18.895  0.00  0.00    +0.000 C 
BRANCH   9  11
ATOM     11  C   UNL     1       7.722   8.783  17.806  0.00  0.00    +0.000 C 
BRANCH  11  12
ATOM     12  C   UNL     1       8.820   9.511  18.606  0.00  0.00    +0.000 C 
BRANCH  12  13
ATOM     13  C   UNL     1       8.846  11.042  18.411  0.00  0.00    +0.000 C 
BRANCH  13  14
ATOM     14  N   UNL     1      10.178  11.575  18.082  0.00  0.00    +0.000 NA
BRANCH  14  16
ATOM     15  C   UNL     1       8.913  13.756  17.991  0.00  0.00    +0.000 C 
ATOM     16  C   UNL     1      10.080  12.919  17.493  0.00  0.00    +0.000 C 
ENDBRANCH  14  16
BRANCH  14  17
ATOM     17  C   UNL     1      11.102  11.485  19.227  0.00  0.00    +0.000 C 
ATOM     18  C   UNL     1      10.537  11.866  20.594  0.00  0.00    +0.000 C 
ENDBRANCH  14  17
ENDBRANCH  13  14
ENDBRANCH  12  13
ENDBRANCH  11  12
ENDBRANCH   9  11
ENDBRANCH   7   9
ENDBRANCH   1   7
BRANCH   5  19
ATOM     19  C   UNL     1       2.632   5.740  18.430  0.00  0.00    +0.000 C 
BRANCH  19  20
ATOM     20  O   UNL     1       2.974   6.820  19.296  0.00  0.00    +0.000 OA
BRANCH  20  21
ATOM     21  C   UNL     1       2.129   7.897  19.272  0.00  0.00    +0.000 A 
ATOM     22  C   UNL     1       1.807   8.648  18.143  0.00  0.00    +0.000 A 
ATOM     23  C   UNL     1       0.890   9.699  18.237  0.00  0.00    +0.000 A 
ATOM     24  C   UNL     1       0.299  10.005  19.463  0.00  0.00    +0.000 A 
ATOM     25 CL   UNL     1      -0.856  11.290  19.492  0.00  0.00    +0.000 Cl
ATOM     26  C   UNL     1       0.638   9.271  20.602  0.00  0.00    +0.000 A 
ATOM     27 CL   UNL     1      -0.048   9.599  22.153  0.00  0.00    +0.000 Cl
ATOM     28  C   UNL     1       1.558   8.222  20.504  0.00  0.00    +0.000 A 
ENDBRANCH  20  21
ENDBRANCH  19  20
ENDBRANCH   5  19
TORSDOF 11
ENDMDL
MODEL 4
REMARK VINA RESULT:      -6.6      3.657      5.686
REMARK  Name = 
REMARK  14 active torsions:
REMARK  status: ('A' for Active; 'I' for Inactive)
REMARK    1  A    between atoms: C_1  and  C_2
REMARK    2  A    between atoms: C_2  and  N_3
REMARK    3  A    between atoms: N_3  and  C_4
REMARK    4  A    between atoms: N_3  and  C_6
REMARK    5  A    between atoms: C_4  and  C_5
REMARK    6  A    between atoms: C_6  and  C_7
REMARK    7  A    between atoms: C_7  and  C_8
REMARK    8  A    between atoms: C_8  and  C_9
REMARK    9  A    between atoms: C_9  and  C_10
REMARK   10  A    between atoms: C_9  and  N_11
REMARK   11  A    between atoms: N_11  and  C_12
REMARK   12  A    between atoms: C_16  and  C_17
REMARK   13  A    between atoms: C_17  and  O_18
REMARK   14  A    between atoms: O_18  and  C_19
REMARK                            x       y       z     vdW  Elec       q    Type
REMARK                         _______ _______ _______ _____ _____    ______ ____
ROOT
ATOM      1  C   UNL     1       5.312   6.187  17.033  0.00  0.00    +0.000 A 
ATOM      2  C   UNL     1       4.858   4.890  16.803  0.00  0.00    +0.000 A 
ATOM      3  C   UNL     1       3.637   4.450  17.285  0.00  0.00    +0.000 A 
ATOM      4  N   UNL     1       2.823   5.210  18.023  0.00  0.00    +0.000 NA
ATOM      5  C   UNL     1       3.244   6.462  18.291  0.00  0.00    +0.000 A 
ATOM      6  C   UNL     1       4.457   6.984  17.811  0.00  0.00    +0.000 A 
ENDROOT
BRANCH   1   7
ATOM      7  N   UNL     1       6.550   6.684  16.663  0.00  0.00    +0.000 N 
ATOM      8  H   UNL     1       6.830   6.399  15.722  0.00  0.00    +0.000 HD
BRANCH   7   9
ATOM      9  C   UNL     1       7.706   7.176  17.446  0.00  0.00    +0.000 C 
ATOM     10  C   UNL     1       7.930   6.497  18.787  0.00  0.00    +0.000 C 
BRANCH   9  11
ATOM     11  C   UNL     1       7.581   8.707  17.637  0.00  0.00    +0.000 C 
BRANCH  11  12
ATOM     12  C   UNL     1       8.770   9.346  18.382  0.00  0.00    +0.000 C 
BRANCH  12  13
ATOM     13  C   UNL     1       8.831  10.886  18.288  0.00  0.00    +0.000 C 
BRANCH  13  14
ATOM     14  N   UNL     1       9.730  11.504  19.277  0.00  0.00    +0.000 NA
BRANCH  14  16
ATOM     15  C   UNL     1       8.908  11.979  21.614  0.00  0.00    +0.000 C 
ATOM     16  C   UNL     1       9.478  10.975  20.625  0.00  0.00    +0.000 C 
ENDBRANCH  14  16
BRANCH  14  17
ATOM     17  C   UNL     1      11.141  11.432  18.855  0.00  0.00    +0.000 C 
ATOM     18  C   UNL     1      12.182  11.920  19.861  0.00  0.00    +0.000 C 
ENDBRANCH  14  17
ENDBRANCH  13  14
ENDBRANCH  12  13
ENDBRANCH  11  12
ENDBRANCH   9  11
ENDBRANCH   7   9
ENDBRANCH   1   7
BRANCH   5  19
ATOM     19  C   UNL     1       2.325   7.259  19.170  0.00  0.00    +0.000 C 
BRANCH  19  20
ATOM     20  O   UNL     1       1.907   8.436  18.481  0.00  0.00    +0.000 OA
BRANCH  20  21
ATOM     21  C   UNL     1       1.131   9.305  19.199  0.00  0.00    +0.000 A 
ATOM     22  C   UNL     1       0.471  10.420  18.681  0.00  0.00    +0.000 A 
ATOM     23  C   UNL     1      -0.333  11.207  19.509  0.00  0.00    +0.000 A 
ATOM     24  C   UNL     1      -0.475  10.885  20.859  0.00  0.00    +0.000 A 
ATOM     25 CL   UNL     1      -1.520  11.880  21.810  0.00  0.00    +0.000 Cl
ATOM     26  C   UNL     1       0.204   9.784  21.388  0.00  0.00    +0.000 A 
ATOM     27 CL   UNL     1       0.082   9.332  23.051  0.00  0.00    +0.000 Cl
ATOM     28  C   UNL     1       1.011   9.001  20.556  0.00  0.00    +0.000 A 
ENDBRANCH  20  21
ENDBRANCH  19  20
ENDBRANCH   5  19
TORSDOF 11
ENDMDL
MODEL 5
REMARK VINA RESULT:      -6.6      4.192      8.509
REMARK  Name = 
REMARK  14 active torsions:
REMARK  status: ('A' for Active; 'I' for Inactive)
REMARK    1  A    between atoms: C_1  and  C_2
REMARK    2  A    between atoms: C_2  and  N_3
REMARK    3  A    between atoms: N_3  and  C_4
REMARK    4  A    between atoms: N_3  and  C_6
REMARK    5  A    between atoms: C_4  and  C_5
REMARK    6  A    between atoms: C_6  and  C_7
REMARK    7  A    between atoms: C_7  and  C_8
REMARK    8  A    between atoms: C_8  and  C_9
REMARK    9  A    between atoms: C_9  and  C_10
REMARK   10  A    between atoms: C_9  and  N_11
REMARK   11  A    between atoms: N_11  and  C_12
REMARK   12  A    between atoms: C_16  and  C_17
REMARK   13  A    between atoms: C_17  and  O_18
REMARK   14  A    between atoms: O_18  and  C_19
REMARK                            x       y       z     vdW  Elec       q    Type
REMARK                         _______ _______ _______ _____ _____    ______ ____
ROOT
ATOM      1  C   UNL     1       1.959   5.506  20.244  0.00  0.00    +0.000 A 
ATOM      2  C   UNL     1       1.043   4.541  20.658  0.00  0.00    +0.000 A 
ATOM      3  C   UNL     1       0.835   3.379  19.935  0.00  0.00    +0.000 A 
ATOM      4  N   UNL     1       1.460   3.107  18.787  0.00  0.00    +0.000 NA
ATOM      5  C   UNL     1       2.332   4.033  18.340  0.00  0.00    +0.000 A 
ATOM      6  C   UNL     1       2.614   5.220  19.036  0.00  0.00    +0.000 A 
ENDROOT
BRANCH   1   7
ATOM      7  N   UNL     1       2.170   6.730  20.856  0.00  0.00    +0.000 N 
ATOM      8  H   UNL     1       2.610   6.646  21.776  0.00  0.00    +0.000 HD
BRANCH   7   9
ATOM      9  C   UNL     1       1.552   8.062  20.671  0.00  0.00    +0.000 C 
ATOM     10  C   UNL     1       0.172   8.237  21.282  0.00  0.00    +0.000 C 
BRANCH   9  11
ATOM     11  C   UNL     1       1.516   8.405  19.162  0.00  0.00    +0.000 C 
BRANCH  11  12
ATOM     12  C   UNL     1       1.161   9.875  18.861  0.00  0.00    +0.000 C 
BRANCH  12  13
ATOM     13  C   UNL     1      -0.241  10.083  18.250  0.00  0.00    +0.000 C 
BRANCH  13  14
ATOM     14  N   UNL     1      -0.847  11.381  18.587  0.00  0.00    +0.000 NA
BRANCH  14  16
ATOM     15  C   UNL     1      -0.375  13.853  18.760  0.00  0.00    +0.000 C 
ATOM     16  C   UNL     1       0.172  12.438  18.663  0.00  0.00    +0.000 C 
ENDBRANCH  14  16
BRANCH  14  17
ATOM     17  C   UNL     1      -1.983  11.701  17.703  0.00  0.00    +0.000 C 
ATOM     18  C   UNL     1      -2.372  10.638  16.677  0.00  0.00    +0.000 C 
ENDBRANCH  14  17
ENDBRANCH  13  14
ENDBRANCH  12  13
ENDBRANCH  11  12
ENDBRANCH   9  11
ENDBRANCH   7   9
ENDBRANCH   1   7
BRANCH   5  19
ATOM     19  C   UNL     1       2.968   3.712  17.019  0.00  0.00    +0.000 C 
BRANCH  19  20
ATOM     20  O   UNL     1       4.360   3.468  17.206  0.00  0.00    +0.000 OA
BRANCH  20  21
ATOM     21  C   UNL     1       5.167   4.574  17.198  0.00  0.00    +0.000 A 
ATOM     22  C   UNL     1       5.071   5.641  16.305  0.00  0.00    +0.000 A 
ATOM     23  C   UNL     1       5.925   6.740  16.429  0.00  0.00    +0.000 A 
ATOM     24  C   UNL     1       6.884   6.771  17.442  0.00  0.00    +0.000 A 
ATOM     25 CL   UNL     1       7.876   8.181  17.558  0.00  0.00    +0.000 Cl
ATOM     26  C   UNL     1       7.001   5.693  18.323  0.00  0.00    +0.000 A 
ATOM     27 CL   UNL     1       8.170   5.659  19.595  0.00  0.00    +0.000 Cl
ATOM     28  C   UNL     1       6.146   4.594  18.194  0.00  0.00    +0.000 A 
ENDBRANCH  20  21
ENDBRANCH  19  20
ENDBRANCH   5  19
TORSDOF 11
ENDMDL
MODEL 6
REMARK VINA RESULT:      -6.5      5.531      8.858
REMARK  Name = 
REMARK  14 active torsions:
REMARK  status: ('A' for Active; 'I' for Inactive)
REMARK    1  A    between atoms: C_1  and  C_2
REMARK    2  A    between atoms: C_2  and  N_3
REMARK    3  A    between atoms: N_3  and  C_4
REMARK    4  A    between atoms: N_3  and  C_6
REMARK    5  A    between atoms: C_4  and  C_5
REMARK    6  A    between atoms: C_6  and  C_7
REMARK    7  A    between atoms: C_7  and  C_8
REMARK    8  A    between atoms: C_8  and  C_9
REMARK    9  A    between atoms: C_9  and  C_10
REMARK   10  A    between atoms: C_9  and  N_11
REMARK   11  A    between atoms: N_11  and  C_12
REMARK   12  A    between atoms: C_16  and  C_17
REMARK   13  A    between atoms: C_17  and  O_18
REMARK   14  A    between atoms: O_18  and  C_19
REMARK                            x       y       z     vdW  Elec       q    Type
REMARK                         _______ _______ _______ _____ _____    ______ ____
ROOT
ATOM      1  C   UNL     1       6.880   6.237  16.923  0.00  0.00    +0.000 A 
ATOM      2  C   UNL     1       7.368   5.501  18.001  0.00  0.00    +0.000 A 
ATOM      3  C   UNL     1       8.119   6.091  19.004  0.00  0.00    +0.000 A 
ATOM      4  N   UNL     1       8.457   7.383  19.004  0.00  0.00    +0.000 NA
ATOM      5  C   UNL     1       8.028   8.119  17.960  0.00  0.00    +0.000 A 
ATOM      6  C   UNL     1       7.239   7.595  16.923  0.00  0.00    +0.000 A 
ENDROOT
BRANCH   1   7
ATOM      7  N   UNL     1       6.196   5.717  15.837  0.00  0.00    +0.000 N 
ATOM      8  H   UNL     1       5.330   6.221  15.633  0.00  0.00    +0.000 HD
BRANCH   7   9
ATOM      9  C   UNL     1       6.219   4.391  15.181  0.00  0.00    +0.000 C 
ATOM     10  C   UNL     1       5.664   4.346  13.767  0.00  0.00    +0.000 C 
BRANCH   9  11
ATOM     11  C   UNL     1       5.486   3.363  16.076  0.00  0.00    +0.000 C 
BRANCH  11  12
ATOM     12  C   UNL     1       4.234   3.924  16.780  0.00  0.00    +0.000 C 
BRANCH  12  13
ATOM     13  C   UNL     1       4.042   3.433  18.231  0.00  0.00    +0.000 C 
BRANCH  13  14
ATOM     14  N   UNL     1       3.311   4.383  19.086  0.00  0.00    +0.000 NA
BRANCH  14  16
ATOM     15  C   UNL     1       2.920   6.779  18.400  0.00  0.00    +0.000 C 
ATOM     16  C   UNL     1       3.870   5.738  18.970  0.00  0.00    +0.000 C 
ENDBRANCH  14  16
BRANCH  14  17
ATOM     17  C   UNL     1       1.855   4.311  18.864  0.00  0.00    +0.000 C 
ATOM     18  C   UNL     1       0.993   3.972  20.079  0.00  0.00    +0.000 C 
ENDBRANCH  14  17
ENDBRANCH  13  14
ENDBRANCH  12  13
ENDBRANCH  11  12
ENDBRANCH   9  11
ENDBRANCH   7   9
ENDBRANCH   1   7
BRANCH   5  19
ATOM     19  C   UNL     1       8.480   9.551  17.972  0.00  0.00    +0.000 C 
BRANCH  19  20
ATOM     20  O   UNL     1       9.108   9.843  19.219  0.00  0.00    +0.000 OA
BRANCH  20  21
ATOM     21  C   UNL     1       9.711  11.068  19.312  0.00  0.00    +0.000 A 
ATOM     22  C   UNL     1      10.936  11.323  19.927  0.00  0.00    +0.000 A 
ATOM     23  C   UNL     1      11.473  12.614  19.915  0.00  0.00    +0.000 A 
ATOM     24  C   UNL     1      10.782  13.654  19.293  0.00  0.00    +0.000 A 
ATOM     25 CL   UNL     1      11.528  15.212  19.282  0.00  0.00    +0.000 Cl
ATOM     26  C   UNL     1       9.542  13.407  18.697  0.00  0.00    +0.000 A 
ATOM     27 CL   UNL     1       8.627  14.648  17.916  0.00  0.00    +0.000 Cl
ATOM     28  C   UNL     1       9.007  12.115  18.714  0.00  0.00    +0.000 A 
ENDBRANCH  20  21
ENDBRANCH  19  20
ENDBRANCH   5  19
TORSDOF 11
ENDMDL
MODEL 7
REMARK VINA RESULT:      -6.4      2.800      4.921
REMARK  Name = 
REMARK  14 active torsions:
REMARK  status: ('A' for Active; 'I' for Inactive)
REMARK    1  A    between atoms: C_1  and  C_2
REMARK    2  A    between atoms: C_2  and  N_3
REMARK    3  A    between atoms: N_3  and  C_4
REMARK    4  A    between atoms: N_3  and  C_6
REMARK    5  A    between atoms: C_4  and  C_5
REMARK    6  A    between atoms: C_6  and  C_7
REMARK    7  A    between atoms: C_7  and  C_8
REMARK    8  A    between atoms: C_8  and  C_9
REMARK    9  A    between atoms: C_9  and  C_10
REMARK   10  A    between atoms: C_9  and  N_11
REMARK   11  A    between atoms: N_11  and  C_12
REMARK   12  A    between atoms: C_16  and  C_17
REMARK   13  A    between atoms: C_17  and  O_18
REMARK   14  A    between atoms: O_18  and  C_19
REMARK                            x       y       z     vdW  Elec       q    Type
REMARK                         _______ _______ _______ _____ _____    ______ ____
ROOT
ATOM      1  C   UNL     1       3.870   3.274  17.437  0.00  0.00    +0.000 A 
ATOM      2  C   UNL     1       3.037   2.171  17.610  0.00  0.00    +0.000 A 
ATOM      3  C   UNL     1       1.969   2.197  18.492  0.00  0.00    +0.000 A 
ATOM      4  N   UNL     1       1.676   3.250  19.258  0.00  0.00    +0.000 NA
ATOM      5  C   UNL     1       2.480   4.326  19.139  0.00  0.00    +0.000 A 
ATOM      6  C   UNL     1       3.562   4.380  18.245  0.00  0.00    +0.000 A 
ENDROOT
BRANCH   1   7
ATOM      7  N   UNL     1       5.005   3.309  16.644  0.00  0.00    +0.000 N 
ATOM      8  H   UNL     1       5.784   2.777  17.038  0.00  0.00    +0.000 HD
BRANCH   7   9
ATOM      9  C   UNL     1       5.465   4.248  15.596  0.00  0.00    +0.000 C 
ATOM     10  C   UNL     1       5.030   3.916  14.178  0.00  0.00    +0.000 C 
BRANCH   9  11
ATOM     11  C   UNL     1       7.005   4.379  15.666  0.00  0.00    +0.000 C 
BRANCH  11  12
ATOM     12  C   UNL     1       7.497   5.769  16.119  0.00  0.00    +0.000 C 
BRANCH  12  13
ATOM     13  C   UNL     1       6.449   6.598  16.892  0.00  0.00    +0.000 C 
BRANCH  13  14
ATOM     14  N   UNL     1       7.013   7.375  18.007  0.00  0.00    +0.000 NA
BRANCH  14  16
ATOM     15  C   UNL     1       7.328   5.473  19.634  0.00  0.00    +0.000 C 
ATOM     16  C   UNL     1       7.961   6.568  18.789  0.00  0.00    +0.000 C 
ENDBRANCH  14  16
BRANCH  14  17
ATOM     17  C   UNL     1       7.556   8.669  17.553  0.00  0.00    +0.000 C 
ATOM     18  C   UNL     1       8.677   9.275  18.396  0.00  0.00    +0.000 C 
ENDBRANCH  14  17
ENDBRANCH  13  14
ENDBRANCH  12  13
ENDBRANCH  11  12
ENDBRANCH   9  11
ENDBRANCH   7   9
ENDBRANCH   1   7
BRANCH   5  19
ATOM     19  C   UNL     1       2.148   5.464  20.059  0.00  0.00    +0.000 C 
BRANCH  19  20
ATOM     20  O   UNL     1       2.898   6.617  19.682  0.00  0.00    +0.000 OA
BRANCH  20  21
ATOM     21  C   UNL     1       2.167   7.742  19.407  0.00  0.00    +0.000 A 
ATOM     22  C   UNL     1       2.046   8.343  18.155  0.00  0.00    +0.000 A 
ATOM     23  C   UNL     1       1.229   9.465  17.990  0.00  0.00    +0.000 A 
ATOM     24  C   UNL     1       0.535   9.992  19.080  0.00  0.00    +0.000 A 
ATOM     25 CL   UNL     1      -0.488  11.354  18.790  0.00  0.00    +0.000 Cl
ATOM     26  C   UNL     1       0.673   9.408  20.342  0.00  0.00    +0.000 A 
ATOM     27 CL   UNL     1      -0.149  10.012  21.737  0.00  0.00    +0.000 Cl
ATOM     28  C   UNL     1       1.494   8.287  20.502  0.00  0.00    +0.000 A 
ENDBRANCH  20  21
ENDBRANCH  19  20
ENDBRANCH   5  19
TORSDOF 11
ENDMDL
MODEL 8
REMARK VINA RESULT:      -6.4      4.176      8.814
REMARK  Name = 
REMARK  14 active torsions:
REMARK  status: ('A' for Active; 'I' for Inactive)
REMARK    1  A    between atoms: C_1  and  C_2
REMARK    2  A    between atoms: C_2  and  N_3
REMARK    3  A    between atoms: N_3  and  C_4
REMARK    4  A    between atoms: N_3  and  C_6
REMARK    5  A    between atoms: C_4  and  C_5
REMARK    6  A    between atoms: C_6  and  C_7
REMARK    7  A    between atoms: C_7  and  C_8
REMARK    8  A    between atoms: C_8  and  C_9
REMARK    9  A    between atoms: C_9  and  C_10
REMARK   10  A    between atoms: C_9  and  N_11
REMARK   11  A    between atoms: N_11  and  C_12
REMARK   12  A    between atoms: C_16  and  C_17
REMARK   13  A    between atoms: C_17  and  O_18
REMARK   14  A    between atoms: O_18  and  C_19
REMARK                            x       y       z     vdW  Elec       q    Type
REMARK                         _______ _______ _______ _____ _____    ______ ____
ROOT
ATOM      1  C   UNL     1       1.953   5.397  20.306  0.00  0.00    +0.000 A 
ATOM      2  C   UNL     1       1.223   4.328  20.821  0.00  0.00    +0.000 A 
ATOM      3  C   UNL     1       1.124   3.123  20.146  0.00  0.00    +0.000 A 
ATOM      4  N   UNL     1       1.684   2.901  18.955  0.00  0.00    +0.000 NA
ATOM      5  C   UNL     1       2.374   3.924  18.411  0.00  0.00    +0.000 A 
ATOM      6  C   UNL     1       2.539   5.164  19.052  0.00  0.00    +0.000 A 
ENDROOT
BRANCH   1   7
ATOM      7  N   UNL     1       2.037   6.660  20.868  0.00  0.00    +0.000 N 
ATOM      8  H   UNL     1       2.479   6.658  21.790  0.00  0.00    +0.000 HD
BRANCH   7   9
ATOM      9  C   UNL     1       1.287   7.914  20.629  0.00  0.00    +0.000 C 
ATOM     10  C   UNL     1       1.684   8.691  19.384  0.00  0.00    +0.000 C 
BRANCH   9  11
ATOM     11  C   UNL     1       1.390   8.819  21.880  0.00  0.00    +0.000 C 
BRANCH  11  12
ATOM     12  C   UNL     1       0.830  10.241  21.674  0.00  0.00    +0.000 C 
BRANCH  12  13
ATOM     13  C   UNL     1      -0.678  10.294  21.348  0.00  0.00    +0.000 C 
BRANCH  13  14
ATOM     14  N   UNL     1      -1.161  11.639  20.997  0.00  0.00    +0.000 NA
BRANCH  14  16
ATOM     15  C   UNL     1      -1.310  12.985  23.126  0.00  0.00    +0.000 C 
ATOM     16  C   UNL     1      -0.544  12.664  21.853  0.00  0.00    +0.000 C 
ENDBRANCH  14  16
BRANCH  14  17
ATOM     17  C   UNL     1      -1.037  11.906  19.553  0.00  0.00    +0.000 C 
ATOM     18  C   UNL     1      -2.193  11.443  18.669  0.00  0.00    +0.000 C 
ENDBRANCH  14  17
ENDBRANCH  13  14
ENDBRANCH  12  13
ENDBRANCH  11  12
ENDBRANCH   9  11
ENDBRANCH   7   9
ENDBRANCH   1   7
BRANCH   5  19
ATOM     19  C   UNL     1       2.937   3.649  17.047  0.00  0.00    +0.000 C 
BRANCH  19  20
ATOM     20  O   UNL     1       4.339   3.408  17.150  0.00  0.00    +0.000 OA
BRANCH  20  21
ATOM     21  C   UNL     1       5.138   4.519  17.149  0.00  0.00    +0.000 A 
ATOM     22  C   UNL     1       5.062   5.571  16.237  0.00  0.00    +0.000 A 
ATOM     23  C   UNL     1       5.905   6.679  16.369  0.00  0.00    +0.000 A 
ATOM     24  C   UNL     1       6.831   6.733  17.411  0.00  0.00    +0.000 A 
ATOM     25 CL   UNL     1       7.809   8.152  17.535  0.00  0.00    +0.000 Cl
ATOM     26  C   UNL     1       6.928   5.669  18.313  0.00  0.00    +0.000 A 
ATOM     27 CL   UNL     1       8.056   5.665  19.621  0.00  0.00    +0.000 Cl
ATOM     28  C   UNL     1       6.085   4.562  18.174  0.00  0.00    +0.000 A 
ENDBRANCH  20  21
ENDBRANCH  19  20
ENDBRANCH   5  19
TORSDOF 11
ENDMDL
MODEL 9
REMARK VINA RESULT:      -6.4      2.389      3.797
REMARK  Name = 
REMARK  14 active torsions:
REMARK  status: ('A' for Active; 'I' for Inactive)
REMARK    1  A    between atoms: C_1  and  C_2
REMARK    2  A    between atoms: C_2  and  N_3
REMARK    3  A    between atoms: N_3  and  C_4
REMARK    4  A    between atoms: N_3  and  C_6
REMARK    5  A    between atoms: C_4  and  C_5
REMARK    6  A    between atoms: C_6  and  C_7
REMARK    7  A    between atoms: C_7  and  C_8
REMARK    8  A    between atoms: C_8  and  C_9
REMARK    9  A    between atoms: C_9  and  C_10
REMARK   10  A    between atoms: C_9  and  N_11
REMARK   11  A    between atoms: N_11  and  C_12
REMARK   12  A    between atoms: C_16  and  C_17
REMARK   13  A    between atoms: C_17  and  O_18
REMARK   14  A    between atoms: O_18  and  C_19
REMARK                            x       y       z     vdW  Elec       q    Type
REMARK                         _______ _______ _______ _____ _____    ______ ____
ROOT
ATOM      1  C   UNL     1       1.277   8.547  20.923  0.00  0.00    +0.000 A 
ATOM      2  C   UNL     1       0.760   8.899  22.168  0.00  0.00    +0.000 A 
ATOM      3  C   UNL     1      -0.110   9.966  22.320  0.00  0.00    +0.000 A 
ATOM      4  N   UNL     1      -0.493  10.749  21.309  0.00  0.00    +0.000 NA
ATOM      5  C   UNL     1       0.012  10.458  20.094  0.00  0.00    +0.000 A 
ATOM      6  C   UNL     1       0.875   9.374  19.861  0.00  0.00    +0.000 A 
ENDROOT
BRANCH   1   7
ATOM      7  N   UNL     1       2.213   7.554  20.691  0.00  0.00    +0.000 N 
ATOM      8  H   UNL     1       3.176   7.895  20.733  0.00  0.00    +0.000 HD
BRANCH   7   9
ATOM      9  C   UNL     1       2.132   6.241  20.013  0.00  0.00    +0.000 C 
ATOM     10  C   UNL     1       1.808   5.056  20.908  0.00  0.00    +0.000 C 
BRANCH   9  11
ATOM     11  C   UNL     1       3.447   5.982  19.238  0.00  0.00    +0.000 C 
BRANCH  11  12
ATOM     12  C   UNL     1       3.250   5.256  17.892  0.00  0.00    +0.000 C 
BRANCH  12  13
ATOM     13  C   UNL     1       4.020   3.925  17.765  0.00  0.00    +0.000 C 
BRANCH  13  14
ATOM     14  N   UNL     1       3.150   2.738  17.740  0.00  0.00    +0.000 NA
BRANCH  14  16
ATOM     15  C   UNL     1       4.382   2.334  19.904  0.00  0.00    +0.000 C 
ATOM     16  C   UNL     1       3.555   1.763  18.764  0.00  0.00    +0.000 C 
ENDBRANCH  14  16
BRANCH  14  17
ATOM     17  C   UNL     1       1.723   3.104  17.786  0.00  0.00    +0.000 C 
ATOM     18  C   UNL     1       0.850   2.333  18.776  0.00  0.00    +0.000 C 
ENDBRANCH  14  17
ENDBRANCH  13  14
ENDBRANCH  12  13
ENDBRANCH  11  12
ENDBRANCH   9  11
ENDBRANCH   7   9
ENDBRANCH   1   7
BRANCH   5  19
ATOM     19  C   UNL     1      -0.400  11.398  18.999  0.00  0.00    +0.000 C 
BRANCH  19  20
ATOM     20  O   UNL     1      -1.373  12.313  19.497  0.00  0.00    +0.000 OA
BRANCH  20  21
ATOM     21  C   UNL     1      -2.663  12.093  19.093  0.00  0.00    +0.000 A 
ATOM     22  C   UNL     1      -3.043  11.463  17.909  0.00  0.00    +0.000 A 
ATOM     23  C   UNL     1      -4.397  11.253  17.628  0.00  0.00    +0.000 A 
ATOM     24  C   UNL     1      -5.372  11.679  18.529  0.00  0.00    +0.000 A 
ATOM     25 CL   UNL     1      -7.022  11.346  18.135  0.00  0.00    +0.000 Cl
ATOM     26  C   UNL     1      -4.996  12.333  19.705  0.00  0.00    +0.000 A 
ATOM     27 CL   UNL     1      -6.151  12.896  20.862  0.00  0.00    +0.000 Cl
ATOM     28  C   UNL     1      -3.642  12.544  19.980  0.00  0.00    +0.000 A 
ENDBRANCH  20  21
ENDBRANCH  19  20
ENDBRANCH   5  19
TORSDOF 11
ENDMDL
