MODEL 1
REMARK VINA RESULT:      -7.4      0.000      0.000
REMARK  Name = 
REMARK  12 active torsions:
REMARK  status: ('A' for Active; 'I' for Inactive)
REMARK    1  A    between atoms: C_1  and  C_2
REMARK    2  A    between atoms: C_4  and  C_5
REMARK    3  A    between atoms: C_5  and  C_6
REMARK    4  A    between atoms: C_5  and  C_7
REMARK    5  A    between atoms: C_5  and  N_12
REMARK    6  A    between atoms: C_7  and  S_8
REMARK    7  A    between atoms: S_8  and  C_9
REMARK    8  A    between atoms: C_13  and  C_15
REMARK    9  A    between atoms: C_17  and  O_18
REMARK   10  A    between atoms: O_18  and  C_19
REMARK   11  A    between atoms: C_19  and  C_20
REMARK   12  A    between atoms: C_24  and  C_25
REMARK                            x       y       z     vdW  Elec       q    Type
REMARK                         _______ _______ _______ _____ _____    ______ ____
ROOT
ATOM      1  N   UNL     1       0.845   9.684  19.281  0.00  0.00    +0.000 N 
ATOM      2  C   UNL     1       1.776   9.405  18.300  0.00  0.00    +0.000 C 
ATOM      3  O   UNL     1       2.044  10.166  17.377  0.00  0.00    +0.000 OA
ATOM      4  H   UNL     1       0.699   8.960  19.987  0.00  0.00    +0.000 HD
ENDROOT
BRANCH   2   5
ATOM      5  C   UNL     1       2.462   8.077  18.421  0.00  0.00    +0.000 A 
ATOM      6  C   UNL     1       2.203   7.255  19.513  0.00  0.00    +0.000 A 
ATOM      7  C   UNL     1       2.853   6.019  19.582  0.00  0.00    +0.000 A 
ATOM      8  C   UNL     1       3.708   5.610  18.542  0.00  0.00    +0.000 A 
ATOM      9  C   UNL     1       3.885   6.533  17.502  0.00  0.00    +0.000 A 
ATOM     10  N   UNL     1       3.304   7.751  17.413  0.00  0.00    +0.000 NA
BRANCH   8  11
ATOM     11  C   UNL     1       4.365   4.249  18.451  0.00  0.00    +0.000 C 
ATOM     12  C   UNL     1       3.596   3.113  17.806  0.00  0.00    +0.000 C 
ATOM     13  C   UNL     1       4.836   3.639  17.154  0.00  0.00    +0.000 C 
ENDBRANCH   8  11
BRANCH   7  14
ATOM     14  O   UNL     1       2.671   5.122  20.607  0.00  0.00    +0.000 OA
BRANCH  14  15
ATOM     15  C   UNL     1       1.424   4.406  20.636  0.00  0.00    +0.000 C 
BRANCH  15  16
ATOM     16  C   UNL     1       1.632   2.929  20.971  0.00  0.00    +0.000 C 
ATOM     17  F   UNL     1       2.914   2.626  21.264  0.00  0.00    +0.000 F 
ATOM     18  F   UNL     1       0.880   2.574  22.041  0.00  0.00    +0.000 F 
ATOM     19  F   UNL     1       1.252   2.139  19.939  0.00  0.00    +0.000 F 
ENDBRANCH  15  16
ENDBRANCH  14  15
ENDBRANCH   7  14
ENDBRANCH   2   5
BRANCH   1  20
ATOM     20  C   UNL     1       0.107  10.977  19.426  0.00  0.00    +0.000 C 
ATOM     21  C   UNL     1      -0.852  11.104  18.224  0.00  0.00    +0.000 C 
BRANCH  20  25
ATOM     22  C   UNL     1       2.395  15.207  18.222  0.00  0.00    +0.000 C 
ATOM     23  C   UNL     1       2.031  13.896  18.785  0.00  0.00    +0.000 A 
ATOM     24  N   UNL     1       1.163  13.014  18.351  0.00  0.00    +0.000 NA
ATOM     25  C   UNL     1       1.134  12.098  19.374  0.00  0.00    +0.000 A 
ATOM     26  N   UNL     1       2.025  12.329  20.353  0.00  0.00    +0.000 NA
ATOM     27  O   UNL     1       2.623  13.535  19.961  0.00  0.00    +0.000 OA
ENDBRANCH  20  25
BRANCH  20  28
ATOM     28  C   UNL     1      -0.616  10.985  20.790  0.00  0.00    +0.000 C 
BRANCH  28  29
ATOM     29  S   UNL     1      -0.096   9.738  21.946  0.00  0.00    +0.000 S 
ATOM     30  C   UNL     1      -0.977  10.192  23.424  0.00  0.00    +0.000 C 
ATOM     31  O   UNL     1      -0.623   8.444  21.557  0.00  0.00    +0.000 OA
ATOM     32  O   UNL     1       1.311   9.924  22.241  0.00  0.00    +0.000 OA
ENDBRANCH  28  29
ENDBRANCH  20  28
ENDBRANCH   1  20
TORSDOF 9
ENDMDL
MODEL 2
REMARK VINA RESULT:      -7.0      0.929      1.215
REMARK  Name = 
REMARK  12 active torsions:
REMARK  status: ('A' for Active; 'I' for Inactive)
REMARK    1  A    between atoms: C_1  and  C_2
REMARK    2  A    between atoms: C_4  and  C_5
REMARK    3  A    between atoms: C_5  and  C_6
REMARK    4  A    between atoms: C_5  and  C_7
REMARK    5  A    between atoms: C_5  and  N_12
REMARK    6  A    between atoms: C_7  and  S_8
REMARK    7  A    between atoms: S_8  and  C_9
REMARK    8  A    between atoms: C_13  and  C_15
REMARK    9  A    between atoms: C_17  and  O_18
REMARK   10  A    between atoms: O_18  and  C_19
REMARK   11  A    between atoms: C_19  and  C_20
REMARK   12  A    between atoms: C_24  and  C_25
REMARK                            x       y       z     vdW  Elec       q    Type
REMARK                         _______ _______ _______ _____ _____    ______ ____
ROOT
ATOM      1  N   UNL     1       1.399   9.782  19.528  0.00  0.00    +0.000 N 
ATOM      2  C   UNL     1       1.645   9.198  18.301  0.00  0.00    +0.000 C 
ATOM      3  O   UNL     1       1.199   9.622  17.241  0.00  0.00    +0.000 OA
ATOM      4  H   UNL     1       1.815   9.323  20.340  0.00  0.00    +0.000 HD
ENDROOT
BRANCH   2   5
ATOM      5  C   UNL     1       2.510   7.973  18.331  0.00  0.00    +0.000 A 
ATOM      6  C   UNL     1       2.268   6.970  19.265  0.00  0.00    +0.000 A 
ATOM      7  C   UNL     1       3.089   5.839  19.253  0.00  0.00    +0.000 A 
ATOM      8  C   UNL     1       4.100   5.709  18.282  0.00  0.00    +0.000 A 
ATOM      9  C   UNL     1       4.241   6.791  17.403  0.00  0.00    +0.000 A 
ATOM     10  N   UNL     1       3.493   7.918  17.403  0.00  0.00    +0.000 NA
BRANCH   8  11
ATOM     11  C   UNL     1       4.964   4.480  18.096  0.00  0.00    +0.000 C 
ATOM     12  C   UNL     1       4.554   3.455  17.058  0.00  0.00    +0.000 C 
ATOM     13  C   UNL     1       5.815   4.240  16.874  0.00  0.00    +0.000 C 
ENDBRANCH   8  11
BRANCH   7  14
ATOM     14  O   UNL     1       2.940   4.784  20.120  0.00  0.00    +0.000 OA
BRANCH  14  15
ATOM     15  C   UNL     1       1.616   4.246  20.276  0.00  0.00    +0.000 C 
BRANCH  15  16
ATOM     16  C   UNL     1       1.318   3.174  19.227  0.00  0.00    +0.000 C 
ATOM     17  F   UNL     1       0.173   2.501  19.466  0.00  0.00    +0.000 F 
ATOM     18  F   UNL     1       1.207   3.731  17.996  0.00  0.00    +0.000 F 
ATOM     19  F   UNL     1       2.320   2.266  19.164  0.00  0.00    +0.000 F 
ENDBRANCH  15  16
ENDBRANCH  14  15
ENDBRANCH   7  14
ENDBRANCH   2   5
BRANCH   1  20
ATOM     20  C   UNL     1       0.649  11.059  19.740  0.00  0.00    +0.000 C 
ATOM     21  C   UNL     1      -0.355  11.207  18.578  0.00  0.00    +0.000 C 
BRANCH  20  25
ATOM     22  C   UNL     1       3.357  14.867  18.082  0.00  0.00    +0.000 C 
ATOM     23  C   UNL     1       2.767  13.782  18.886  0.00  0.00    +0.000 A 
ATOM     24  N   UNL     1       2.095  12.726  18.495  0.00  0.00    +0.000 NA
ATOM     25  C   UNL     1       1.658  12.197  19.684  0.00  0.00    +0.000 A 
ATOM     26  N   UNL     1       2.127  12.821  20.777  0.00  0.00    +0.000 NA
ATOM     27  O   UNL     1       2.867  13.885  20.243  0.00  0.00    +0.000 OA
ENDBRANCH  20  25
BRANCH  20  28
ATOM     28  C   UNL     1      -0.022  11.015  21.128  0.00  0.00    +0.000 C 
BRANCH  28  29
ATOM     29  S   UNL     1       0.267   9.540  22.079  0.00  0.00    +0.000 S 
ATOM     30  C   UNL     1      -0.623   9.872  23.584  0.00  0.00    +0.000 C 
ATOM     31  O   UNL     1      -0.405   8.411  21.468  0.00  0.00    +0.000 OA
ATOM     32  O   UNL     1       1.668   9.479  22.443  0.00  0.00    +0.000 OA
ENDBRANCH  28  29
ENDBRANCH  20  28
ENDBRANCH   1  20
TORSDOF 9
ENDMDL
MODEL 3
REMARK VINA RESULT:      -7.0      4.096      7.976
REMARK  Name = 
REMARK  12 active torsions:
REMARK  status: ('A' for Active; 'I' for Inactive)
REMARK    1  A    between atoms: C_1  and  C_2
REMARK    2  A    between atoms: C_4  and  C_5
REMARK    3  A    between atoms: C_5  and  C_6
REMARK    4  A    between atoms: C_5  and  C_7
REMARK    5  A    between atoms: C_5  and  N_12
REMARK    6  A    between atoms: C_7  and  S_8
REMARK    7  A    between atoms: S_8  and  C_9
REMARK    8  A    between atoms: C_13  and  C_15
REMARK    9  A    between atoms: C_17  and  O_18
REMARK   10  A    between atoms: O_18  and  C_19
REMARK   11  A    between atoms: C_19  and  C_20
REMARK   12  A    between atoms: C_24  and  C_25
REMARK                            x       y       z     vdW  Elec       q    Type
REMARK                         _______ _______ _______ _____ _____    ______ ____
ROOT
ATOM      1  N   UNL     1       2.996   6.579  18.583  0.00  0.00    +0.000 N 
ATOM      2  C   UNL     1       2.174   6.827  19.665  0.00  0.00    +0.000 C 
ATOM      3  O   UNL     1       1.832   5.972  20.474  0.00  0.00    +0.000 OA
ATOM      4  H   UNL     1       3.194   7.372  17.973  0.00  0.00    +0.000 HD
ENDROOT
BRANCH   2   5
ATOM      5  C   UNL     1       1.701   8.243  19.803  0.00  0.00    +0.000 A 
ATOM      6  C   UNL     1       1.335   8.738  21.052  0.00  0.00    +0.000 A 
ATOM      7  C   UNL     1       0.912  10.067  21.141  0.00  0.00    +0.000 A 
ATOM      8  C   UNL     1       0.906  10.886  19.997  0.00  0.00    +0.000 A 
ATOM      9  C   UNL     1       1.293  10.264  18.802  0.00  0.00    +0.000 A 
ATOM     10  N   UNL     1       1.676   8.974  18.665  0.00  0.00    +0.000 NA
BRANCH   8  11
ATOM     11  C   UNL     1       0.586  12.366  19.997  0.00  0.00    +0.000 C 
ATOM     12  C   UNL     1       1.673  13.343  20.400  0.00  0.00    +0.000 C 
ATOM     13  C   UNL     1       1.156  13.340  18.996  0.00  0.00    +0.000 C 
ENDBRANCH   8  11
BRANCH   7  14
ATOM     14  O   UNL     1       0.534  10.666  22.319  0.00  0.00    +0.000 OA
BRANCH  14  15
ATOM     15  C   UNL     1      -0.786  10.373  22.808  0.00  0.00    +0.000 C 
BRANCH  15  16
ATOM     16  C   UNL     1      -1.653  11.631  22.873  0.00  0.00    +0.000 C 
ATOM     17  F   UNL     1      -2.695  11.514  23.722  0.00  0.00    +0.000 F 
ATOM     18  F   UNL     1      -0.918  12.693  23.284  0.00  0.00    +0.000 F 
ATOM     19  F   UNL     1      -2.152  11.940  21.653  0.00  0.00    +0.000 F 
ENDBRANCH  15  16
ENDBRANCH  14  15
ENDBRANCH   7  14
ENDBRANCH   2   5
BRANCH   1  20
ATOM     20  C   UNL     1       3.667   5.274  18.293  0.00  0.00    +0.000 C 
ATOM     21  C   UNL     1       4.573   4.938  19.497  0.00  0.00    +0.000 C 
BRANCH  20  25
ATOM     22  C   UNL     1       6.090   4.371  14.062  0.00  0.00    +0.000 C 
ATOM     23  C   UNL     1       5.533   4.982  15.282  0.00  0.00    +0.000 A 
ATOM     24  N   UNL     1       5.056   4.406  16.358  0.00  0.00    +0.000 NA
ATOM     25  C   UNL     1       4.527   5.467  17.052  0.00  0.00    +0.000 A 
ATOM     26  N   UNL     1       4.761   6.667  16.496  0.00  0.00    +0.000 NA
ATOM     27  O   UNL     1       5.431   6.343  15.309  0.00  0.00    +0.000 OA
ENDBRANCH  20  25
BRANCH  20  28
ATOM     28  C   UNL     1       2.585   4.207  18.025  0.00  0.00    +0.000 C 
BRANCH  28  29
ATOM     29  S   UNL     1       2.746   2.695  18.948  0.00  0.00    +0.000 S 
ATOM     30  C   UNL     1       1.121   1.984  18.807  0.00  0.00    +0.000 C 
ATOM     31  O   UNL     1       3.635   1.781  18.259  0.00  0.00    +0.000 OA
ATOM     32  O   UNL     1       2.927   3.014  20.350  0.00  0.00    +0.000 OA
ENDBRANCH  28  29
ENDBRANCH  20  28
ENDBRANCH   1  20
TORSDOF 9
ENDMDL
MODEL 4
REMARK VINA RESULT:      -6.9      1.754      3.140
REMARK  Name = 
REMARK  12 active torsions:
REMARK  status: ('A' for Active; 'I' for Inactive)
REMARK    1  A    between atoms: C_1  and  C_2
REMARK    2  A    between atoms: C_4  and  C_5
REMARK    3  A    between atoms: C_5  and  C_6
REMARK    4  A    between atoms: C_5  and  C_7
REMARK    5  A    between atoms: C_5  and  N_12
REMARK    6  A    between atoms: C_7  and  S_8
REMARK    7  A    between atoms: S_8  and  C_9
REMARK    8  A    between atoms: C_13  and  C_15
REMARK    9  A    between atoms: C_17  and  O_18
REMARK   10  A    between atoms: O_18  and  C_19
REMARK   11  A    between atoms: C_19  and  C_20
REMARK   12  A    between atoms: C_24  and  C_25
REMARK                            x       y       z     vdW  Elec       q    Type
REMARK                         _______ _______ _______ _____ _____    ______ ____
ROOT
ATOM      1  N   UNL     1       0.801   9.527  19.201  0.00  0.00    +0.000 N 
ATOM      2  C   UNL     1       1.833   9.355  18.301  0.00  0.00    +0.000 C 
ATOM      3  O   UNL     1       2.178  10.202  17.485  0.00  0.00    +0.000 OA
ATOM      4  H   UNL     1       0.600   8.739  19.818  0.00  0.00    +0.000 HD
ENDROOT
BRANCH   2   5
ATOM      5  C   UNL     1       2.533   8.030  18.369  0.00  0.00    +0.000 A 
ATOM      6  C   UNL     1       2.284   7.163  19.428  0.00  0.00    +0.000 A 
ATOM      7  C   UNL     1       2.947   5.932  19.449  0.00  0.00    +0.000 A 
ATOM      8  C   UNL     1       3.804   5.572  18.392  0.00  0.00    +0.000 A 
ATOM      9  C   UNL     1       3.971   6.537  17.389  0.00  0.00    +0.000 A 
ATOM     10  N   UNL     1       3.377   7.752  17.348  0.00  0.00    +0.000 NA
BRANCH   8  11
ATOM     11  C   UNL     1       4.475   4.223  18.247  0.00  0.00    +0.000 C 
ATOM     12  C   UNL     1       3.706   3.098  17.584  0.00  0.00    +0.000 C 
ATOM     13  C   UNL     1       4.927   3.658  16.924  0.00  0.00    +0.000 C 
ENDBRANCH   8  11
BRANCH   7  14
ATOM     14  O   UNL     1       2.775   4.994  20.437  0.00  0.00    +0.000 OA
BRANCH  14  15
ATOM     15  C   UNL     1       1.432   4.544  20.686  0.00  0.00    +0.000 C 
BRANCH  15  16
ATOM     16  C   UNL     1       1.344   3.017  20.695  0.00  0.00    +0.000 C 
ATOM     17  F   UNL     1       0.557   2.524  19.716  0.00  0.00    +0.000 F 
ATOM     18  F   UNL     1       2.574   2.469  20.536  0.00  0.00    +0.000 F 
ATOM     19  F   UNL     1       0.857   2.566  21.875  0.00  0.00    +0.000 F 
ENDBRANCH  15  16
ENDBRANCH  14  15
ENDBRANCH   7  14
ENDBRANCH   2   5
BRANCH   1  20
ATOM     20  C   UNL     1       0.023  10.791  19.388  0.00  0.00    +0.000 C 
ATOM     21  C   UNL     1      -0.795  10.648  20.689  0.00  0.00    +0.000 C 
BRANCH  20  25
ATOM     22  C   UNL     1      -3.166   9.653  15.767  0.00  0.00    +0.000 C 
ATOM     23  C   UNL     1      -2.250  10.341  16.693  0.00  0.00    +0.000 A 
ATOM     24  N   UNL     1      -1.296   9.844  17.443  0.00  0.00    +0.000 NA
ATOM     25  C   UNL     1      -0.927  10.924  18.207  0.00  0.00    +0.000 A 
ATOM     26  N   UNL     1      -1.537  12.074  17.875  0.00  0.00    +0.000 NA
ATOM     27  O   UNL     1      -2.426  11.684  16.865  0.00  0.00    +0.000 OA
ENDBRANCH  20  25
BRANCH  20  28
ATOM     28  C   UNL     1       1.007  11.980  19.411  0.00  0.00    +0.000 C 
BRANCH  28  29
ATOM     29  S   UNL     1       0.643  13.260  20.590  0.00  0.00    +0.000 S 
ATOM     30  C   UNL     1       2.023  14.367  20.394  0.00  0.00    +0.000 C 
ATOM     31  O   UNL     1      -0.524  14.011  20.170  0.00  0.00    +0.000 OA
ATOM     32  O   UNL     1       0.750  12.715  21.929  0.00  0.00    +0.000 OA
ENDBRANCH  28  29
ENDBRANCH  20  28
ENDBRANCH   1  20
TORSDOF 9
ENDMDL
MODEL 5
REMARK VINA RESULT:      -6.8      2.064      3.539
REMARK  Name = 
REMARK  12 active torsions:
REMARK  status: ('A' for Active; 'I' for Inactive)
REMARK    1  A    between atoms: C_1  and  C_2
REMARK    2  A    between atoms: C_4  and  C_5
REMARK    3  A    between atoms: C_5  and  C_6
REMARK    4  A    between atoms: C_5  and  C_7
REMARK    5  A    between atoms: C_5  and  N_12
REMARK    6  A    between atoms: C_7  and  S_8
REMARK    7  A    between atoms: S_8  and  C_9
REMARK    8  A    between atoms: C_13  and  C_15
REMARK    9  A    between atoms: C_17  and  O_18
REMARK   10  A    between atoms: O_18  and  C_19
REMARK   11  A    between atoms: C_19  and  C_20
REMARK   12  A    between atoms: C_24  and  C_25
REMARK                            x       y       z     vdW  Elec       q    Type
REMARK                         _______ _______ _______ _____ _____    ______ ____
ROOT
ATOM      1  N   UNL     1       0.856   9.339  19.524  0.00  0.00    +0.000 N 
ATOM      2  C   UNL     1       1.478   8.423  20.349  0.00  0.00    +0.000 C 
ATOM      3  O   UNL     1       1.380   8.427  21.571  0.00  0.00    +0.000 OA
ATOM      4  H   UNL     1       1.030   9.239  18.523  0.00  0.00    +0.000 HD
ENDROOT
BRANCH   2   5
ATOM      5  C   UNL     1       2.313   7.391  19.652  0.00  0.00    +0.000 A 
ATOM      6  C   UNL     1       2.314   6.074  20.102  0.00  0.00    +0.000 A 
ATOM      7  C   UNL     1       3.095   5.139  19.418  0.00  0.00    +0.000 A 
ATOM      8  C   UNL     1       3.819   5.523  18.274  0.00  0.00    +0.000 A 
ATOM      9  C   UNL     1       3.736   6.879  17.929  0.00  0.00    +0.000 A 
ATOM     10  N   UNL     1       3.021   7.823  18.583  0.00  0.00    +0.000 NA
BRANCH   8  11
ATOM     11  C   UNL     1       4.597   4.574  17.386  0.00  0.00    +0.000 C 
ATOM     12  C   UNL     1       3.928   4.037  16.137  0.00  0.00    +0.000 C 
ATOM     13  C   UNL     1       5.109   4.949  16.018  0.00  0.00    +0.000 C 
ENDBRANCH   8  11
BRANCH   7  14
ATOM     14  O   UNL     1       3.169   3.811  19.766  0.00  0.00    +0.000 OA
BRANCH  14  15
ATOM     15  C   UNL     1       1.926   3.102  19.907  0.00  0.00    +0.000 C 
BRANCH  15  16
ATOM     16  C   UNL     1       1.366   2.675  18.550  0.00  0.00    +0.000 C 
ATOM     17  F   UNL     1       2.225   1.919  17.835  0.00  0.00    +0.000 F 
ATOM     18  F   UNL     1       0.231   1.952  18.710  0.00  0.00    +0.000 F 
ATOM     19  F   UNL     1       1.047   3.754  17.796  0.00  0.00    +0.000 F 
ENDBRANCH  15  16
ENDBRANCH  14  15
ENDBRANCH   7  14
ENDBRANCH   2   5
BRANCH   1  20
ATOM     20  C   UNL     1      -0.100  10.397  19.977  0.00  0.00    +0.000 C 
ATOM     21  C   UNL     1      -0.863   9.843  21.199  0.00  0.00    +0.000 C 
BRANCH  20  25
ATOM     22  C   UNL     1      -2.701   9.813  15.796  0.00  0.00    +0.000 C 
ATOM     23  C   UNL     1      -2.114  10.320  17.049  0.00  0.00    +0.000 A 
ATOM     24  N   UNL     1      -0.999   9.974  17.645  0.00  0.00    +0.000 NA
ATOM     25  C   UNL     1      -1.081  10.645  18.840  0.00  0.00    +0.000 A 
ATOM     26  N   UNL     1      -2.140  11.466  18.945  0.00  0.00    +0.000 NA
ATOM     27  O   UNL     1      -2.833  11.246  17.748  0.00  0.00    +0.000 OA
ENDBRANCH  20  25
BRANCH  20  28
ATOM     28  C   UNL     1       0.693  11.684  20.282  0.00  0.00    +0.000 C 
BRANCH  28  29
ATOM     29  S   UNL     1       1.507  12.437  18.891  0.00  0.00    +0.000 S 
ATOM     30  C   UNL     1       2.685  13.517  19.674  0.00  0.00    +0.000 C 
ATOM     31  O   UNL     1       2.293  11.450  18.178  0.00  0.00    +0.000 OA
ATOM     32  O   UNL     1       0.566  13.297  18.202  0.00  0.00    +0.000 OA
ENDBRANCH  28  29
ENDBRANCH  20  28
ENDBRANCH   1  20
TORSDOF 9
ENDMDL
MODEL 6
REMARK VINA RESULT:      -6.8      2.195      3.751
REMARK  Name = 
REMARK  12 active torsions:
REMARK  status: ('A' for Active; 'I' for Inactive)
REMARK    1  A    between atoms: C_1  and  C_2
REMARK    2  A    between atoms: C_4  and  C_5
REMARK    3  A    between atoms: C_5  and  C_6
REMARK    4  A    between atoms: C_5  and  C_7
REMARK    5  A    between atoms: C_5  and  N_12
REMARK    6  A    between atoms: C_7  and  S_8
REMARK    7  A    between atoms: S_8  and  C_9
REMARK    8  A    between atoms: C_13  and  C_15
REMARK    9  A    between atoms: C_17  and  O_18
REMARK   10  A    between atoms: O_18  and  C_19
REMARK   11  A    between atoms: C_19  and  C_20
REMARK   12  A    between atoms: C_24  and  C_25
REMARK                            x       y       z     vdW  Elec       q    Type
REMARK                         _______ _______ _______ _____ _____    ______ ____
ROOT
ATOM      1  N   UNL     1       0.432  11.220  20.071  0.00  0.00    +0.000 N 
ATOM      2  C   UNL     1       0.324   9.915  20.508  0.00  0.00    +0.000 C 
ATOM      3  O   UNL     1      -0.437   9.553  21.398  0.00  0.00    +0.000 OA
ATOM      4  H   UNL     1       1.115  11.396  19.333  0.00  0.00    +0.000 HD
ENDROOT
BRANCH   2   5
ATOM      5  C   UNL     1       1.219   8.928  19.820  0.00  0.00    +0.000 A 
ATOM      6  C   UNL     1       1.519   7.713  20.430  0.00  0.00    +0.000 A 
ATOM      7  C   UNL     1       2.346   6.815  19.750  0.00  0.00    +0.000 A 
ATOM      8  C   UNL     1       2.818   7.124  18.460  0.00  0.00    +0.000 A 
ATOM      9  C   UNL     1       2.446   8.380  17.962  0.00  0.00    +0.000 A 
ATOM     10  N   UNL     1       1.677   9.292  18.600  0.00  0.00    +0.000 NA
BRANCH   8  11
ATOM     11  C   UNL     1       3.615   6.181  17.584  0.00  0.00    +0.000 C 
ATOM     12  C   UNL     1       4.932   6.663  17.010  0.00  0.00    +0.000 C 
ATOM     13  C   UNL     1       4.917   5.551  18.011  0.00  0.00    +0.000 C 
ENDBRANCH   8  11
BRANCH   7  14
ATOM     14  O   UNL     1       2.704   5.586  20.248  0.00  0.00    +0.000 OA
BRANCH  14  15
ATOM     15  C   UNL     1       1.638   4.677  20.576  0.00  0.00    +0.000 C 
BRANCH  15  16
ATOM     16  C   UNL     1       1.428   3.638  19.473  0.00  0.00    +0.000 C 
ATOM     17  F   UNL     1       2.523   2.884  19.239  0.00  0.00    +0.000 F 
ATOM     18  F   UNL     1       0.421   2.793  19.803  0.00  0.00    +0.000 F 
ATOM     19  F   UNL     1       1.084   4.231  18.306  0.00  0.00    +0.000 F 
ENDBRANCH  15  16
ENDBRANCH  14  15
ENDBRANCH   7  14
ENDBRANCH   2   5
BRANCH   1  20
ATOM     20  C   UNL     1      -0.422  12.357  20.535  0.00  0.00    +0.000 C 
ATOM     21  C   UNL     1      -0.654  12.177  22.050  0.00  0.00    +0.000 C 
BRANCH  20  25
ATOM     22  C   UNL     1      -3.916  11.008  17.287  0.00  0.00    +0.000 C 
ATOM     23  C   UNL     1      -3.153  11.642  18.376  0.00  0.00    +0.000 A 
ATOM     24  N   UNL     1      -1.856  11.731  18.541  0.00  0.00    +0.000 NA
ATOM     25  C   UNL     1      -1.753  12.258  19.805  0.00  0.00    +0.000 A 
ATOM     26  N   UNL     1      -2.928  12.594  20.364  0.00  0.00    +0.000 NA
ATOM     27  O   UNL     1      -3.866  12.178  19.409  0.00  0.00    +0.000 OA
ENDBRANCH  20  25
BRANCH  20  28
ATOM     28  C   UNL     1       0.281  13.683  20.176  0.00  0.00    +0.000 C 
BRANCH  28  29
ATOM     29  S   UNL     1       2.048  13.596  19.999  0.00  0.00    +0.000 S 
ATOM     30  C   UNL     1       2.497  15.305  19.781  0.00  0.00    +0.000 C 
ATOM     31  O   UNL     1       2.657  13.187  21.249  0.00  0.00    +0.000 OA
ATOM     32  O   UNL     1       2.366  12.933  18.750  0.00  0.00    +0.000 OA
ENDBRANCH  28  29
ENDBRANCH  20  28
ENDBRANCH   1  20
TORSDOF 9
ENDMDL
MODEL 7
REMARK VINA RESULT:      -6.8      2.556      3.291
REMARK  Name = 
REMARK  12 active torsions:
REMARK  status: ('A' for Active; 'I' for Inactive)
REMARK    1  A    between atoms: C_1  and  C_2
REMARK    2  A    between atoms: C_4  and  C_5
REMARK    3  A    between atoms: C_5  and  C_6
REMARK    4  A    between atoms: C_5  and  C_7
REMARK    5  A    between atoms: C_5  and  N_12
REMARK    6  A    between atoms: C_7  and  S_8
REMARK    7  A    between atoms: S_8  and  C_9
REMARK    8  A    between atoms: C_13  and  C_15
REMARK    9  A    between atoms: C_17  and  O_18
REMARK   10  A    between atoms: O_18  and  C_19
REMARK   11  A    between atoms: C_19  and  C_20
REMARK   12  A    between atoms: C_24  and  C_25
REMARK                            x       y       z     vdW  Elec       q    Type
REMARK                         _______ _______ _______ _____ _____    ______ ____
ROOT
ATOM      1  N   UNL     1       0.968   9.655  19.431  0.00  0.00    +0.000 N 
ATOM      2  C   UNL     1       1.757   9.211  18.388  0.00  0.00    +0.000 C 
ATOM      3  O   UNL     1       1.959   9.853  17.362  0.00  0.00    +0.000 OA
ATOM      4  H   UNL     1       0.865   9.020  20.223  0.00  0.00    +0.000 HD
ENDROOT
BRANCH   2   5
ATOM      5  C   UNL     1       2.373   7.857  18.575  0.00  0.00    +0.000 A 
ATOM      6  C   UNL     1       3.114   7.279  17.549  0.00  0.00    +0.000 A 
ATOM      7  C   UNL     1       3.683   6.021  17.768  0.00  0.00    +0.000 A 
ATOM      8  C   UNL     1       3.542   5.389  19.017  0.00  0.00    +0.000 A 
ATOM      9  C   UNL     1       2.769   6.076  19.963  0.00  0.00    +0.000 A 
ATOM     10  N   UNL     1       2.173   7.276  19.781  0.00  0.00    +0.000 NA
BRANCH   8  11
ATOM     11  C   UNL     1       4.214   4.089  19.407  0.00  0.00    +0.000 C 
ATOM     12  C   UNL     1       3.376   3.004  20.053  0.00  0.00    +0.000 C 
ATOM     13  C   UNL     1       3.968   2.781  18.697  0.00  0.00    +0.000 C 
ENDBRANCH   8  11
BRANCH   7  14
ATOM     14  O   UNL     1       4.439   5.357  16.833  0.00  0.00    +0.000 OA
BRANCH  14  15
ATOM     15  C   UNL     1       5.419   6.128  16.117  0.00  0.00    +0.000 C 
BRANCH  15  16
ATOM     16  C   UNL     1       6.841   5.660  16.431  0.00  0.00    +0.000 C 
ATOM     17  F   UNL     1       7.646   6.655  16.858  0.00  0.00    +0.000 F 
ATOM     18  F   UNL     1       6.826   4.712  17.400  0.00  0.00    +0.000 F 
ATOM     19  F   UNL     1       7.421   5.105  15.341  0.00  0.00    +0.000 F 
ENDBRANCH  15  16
ENDBRANCH  14  15
ENDBRANCH   7  14
ENDBRANCH   2   5
BRANCH   1  20
ATOM     20  C   UNL     1       0.331  11.006  19.515  0.00  0.00    +0.000 C 
ATOM     21  C   UNL     1      -0.551  11.184  18.261  0.00  0.00    +0.000 C 
BRANCH  20  25
ATOM     22  C   UNL     1       3.257  14.745  18.088  0.00  0.00    +0.000 C 
ATOM     23  C   UNL     1       2.637  13.614  18.800  0.00  0.00    +0.000 A 
ATOM     24  N   UNL     1       1.818  12.695  18.350  0.00  0.00    +0.000 NA
ATOM     25  C   UNL     1       1.447  12.040  19.498  0.00  0.00    +0.000 A 
ATOM     26  N   UNL     1       2.090  12.450  20.604  0.00  0.00    +0.000 NA
ATOM     27  O   UNL     1       2.884  13.507  20.138  0.00  0.00    +0.000 OA
ENDBRANCH  20  25
BRANCH  20  28
ATOM     28  C   UNL     1      -0.458  11.100  20.838  0.00  0.00    +0.000 C 
BRANCH  28  29
ATOM     29  S   UNL     1      -0.135   9.814  22.022  0.00  0.00    +0.000 S 
ATOM     30  C   UNL     1      -1.113  10.322  23.419  0.00  0.00    +0.000 C 
ATOM     31  O   UNL     1      -0.713   8.563  21.573  0.00  0.00    +0.000 OA
ATOM     32  O   UNL     1       1.249   9.898  22.446  0.00  0.00    +0.000 OA
ENDBRANCH  28  29
ENDBRANCH  20  28
ENDBRANCH   1  20
TORSDOF 9
ENDMDL
MODEL 8
REMARK VINA RESULT:      -6.8      4.130      8.189
REMARK  Name = 
REMARK  12 active torsions:
REMARK  status: ('A' for Active; 'I' for Inactive)
REMARK    1  A    between atoms: C_1  and  C_2
REMARK    2  A    between atoms: C_4  and  C_5
REMARK    3  A    between atoms: C_5  and  C_6
REMARK    4  A    between atoms: C_5  and  C_7
REMARK    5  A    between atoms: C_5  and  N_12
REMARK    6  A    between atoms: C_7  and  S_8
REMARK    7  A    between atoms: S_8  and  C_9
REMARK    8  A    between atoms: C_13  and  C_15
REMARK    9  A    between atoms: C_17  and  O_18
REMARK   10  A    between atoms: O_18  and  C_19
REMARK   11  A    between atoms: C_19  and  C_20
REMARK   12  A    between atoms: C_24  and  C_25
REMARK                            x       y       z     vdW  Elec       q    Type
REMARK                         _______ _______ _______ _____ _____    ______ ____
ROOT
ATOM      1  N   UNL     1       3.792   6.049  18.440  0.00  0.00    +0.000 N 
ATOM      2  C   UNL     1       2.461   6.338  18.213  0.00  0.00    +0.000 C 
ATOM      3  O   UNL     1       1.651   5.529  17.775  0.00  0.00    +0.000 OA
ATOM      4  H   UNL     1       4.369   6.814  18.792  0.00  0.00    +0.000 HD
ENDROOT
BRANCH   2   5
ATOM      5  C   UNL     1       2.042   7.741  18.536  0.00  0.00    +0.000 A 
ATOM      6  C   UNL     1       1.697   8.083  19.840  0.00  0.00    +0.000 A 
ATOM      7  C   UNL     1       1.324   9.405  20.104  0.00  0.00    +0.000 A 
ATOM      8  C   UNL     1       1.349  10.365  19.075  0.00  0.00    +0.000 A 
ATOM      9  C   UNL     1       1.710   9.889  17.808  0.00  0.00    +0.000 A 
ATOM     10  N   UNL     1       2.044   8.614  17.503  0.00  0.00    +0.000 NA
BRANCH   8  11
ATOM     11  C   UNL     1       1.086  11.843  19.269  0.00  0.00    +0.000 C 
ATOM     12  C   UNL     1       2.217  12.723  19.761  0.00  0.00    +0.000 C 
ATOM     13  C   UNL     1       1.669  12.914  18.382  0.00  0.00    +0.000 C 
ENDBRANCH   8  11
BRANCH   7  14
ATOM     14  O   UNL     1       0.972   9.860  21.351  0.00  0.00    +0.000 OA
BRANCH  14  15
ATOM     15  C   UNL     1      -0.409   9.727  21.730  0.00  0.00    +0.000 C 
BRANCH  15  16
ATOM     16  C   UNL     1      -1.017  11.074  22.121  0.00  0.00    +0.000 C 
ATOM     17  F   UNL     1      -1.775  11.618  21.147  0.00  0.00    +0.000 F 
ATOM     18  F   UNL     1      -1.804  10.940  23.216  0.00  0.00    +0.000 F 
ATOM     19  F   UNL     1      -0.050  11.970  22.434  0.00  0.00    +0.000 F 
ENDBRANCH  15  16
ENDBRANCH  14  15
ENDBRANCH   7  14
ENDBRANCH   2   5
BRANCH   1  20
ATOM     20  C   UNL     1       4.419   4.699  18.286  0.00  0.00    +0.000 C 
ATOM     21  C   UNL     1       4.421   4.355  16.782  0.00  0.00    +0.000 C 
BRANCH  20  25
ATOM     22  C   UNL     1       1.430   2.689  21.693  0.00  0.00    +0.000 C 
ATOM     23  C   UNL     1       2.302   2.935  20.532  0.00  0.00    +0.000 A 
ATOM     24  N   UNL     1       3.199   3.873  20.349  0.00  0.00    +0.000 NA
ATOM     25  C   UNL     1       3.544   3.701  19.031  0.00  0.00    +0.000 A 
ATOM     26  N   UNL     1       2.979   2.633  18.443  0.00  0.00    +0.000 NA
ATOM     27  O   UNL     1       2.144   2.122  19.447  0.00  0.00    +0.000 OA
ENDBRANCH  20  25
BRANCH  20  28
ATOM     28  C   UNL     1       5.830   4.734  18.909  0.00  0.00    +0.000 C 
BRANCH  28  29
ATOM     29  S   UNL     1       7.074   5.573  17.955  0.00  0.00    +0.000 S 
ATOM     30  C   UNL     1       8.186   6.167  19.211  0.00  0.00    +0.000 C 
ATOM     31  O   UNL     1       7.837   4.618  17.176  0.00  0.00    +0.000 OA
ATOM     32  O   UNL     1       6.488   6.750  17.345  0.00  0.00    +0.000 OA
ENDBRANCH  28  29
ENDBRANCH  20  28
ENDBRANCH   1  20
TORSDOF 9
ENDMDL
MODEL 9
REMARK VINA RESULT:      -6.8      1.919      3.515
REMARK  Name = 
REMARK  12 active torsions:
REMARK  status: ('A' for Active; 'I' for Inactive)
REMARK    1  A    between atoms: C_1  and  C_2
REMARK    2  A    between atoms: C_4  and  C_5
REMARK    3  A    between atoms: C_5  and  C_6
REMARK    4  A    between atoms: C_5  and  C_7
REMARK    5  A    between atoms: C_5  and  N_12
REMARK    6  A    between atoms: C_7  and  S_8
REMARK    7  A    between atoms: S_8  and  C_9
REMARK    8  A    between atoms: C_13  and  C_15
REMARK    9  A    between atoms: C_17  and  O_18
REMARK   10  A    between atoms: O_18  and  C_19
REMARK   11  A    between atoms: C_19  and  C_20
REMARK   12  A    between atoms: C_24  and  C_25
REMARK                            x       y       z     vdW  Elec       q    Type
REMARK                         _______ _______ _______ _____ _____    ______ ____
ROOT
ATOM      1  N   UNL     1       1.204   9.703  19.753  0.00  0.00    +0.000 N 
ATOM      2  C   UNL     1       1.386   8.445  20.292  0.00  0.00    +0.000 C 
ATOM      3  O   UNL     1       0.931   8.094  21.375  0.00  0.00    +0.000 OA
ATOM      4  H   UNL     1       1.648   9.878  18.850  0.00  0.00    +0.000 HD
ENDROOT
BRANCH   2   5
ATOM      5  C   UNL     1       2.199   7.498  19.461  0.00  0.00    +0.000 A 
ATOM      6  C   UNL     1       2.299   6.159  19.825  0.00  0.00    +0.000 A 
ATOM      7  C   UNL     1       3.055   5.305  19.017  0.00  0.00    +0.000 A 
ATOM      8  C   UNL     1       3.655   5.792  17.841  0.00  0.00    +0.000 A 
ATOM      9  C   UNL     1       3.481   7.160  17.591  0.00  0.00    +0.000 A 
ATOM     10  N   UNL     1       2.787   8.027  18.363  0.00  0.00    +0.000 NA
BRANCH   8  11
ATOM     11  C   UNL     1       4.390   4.938  16.830  0.00  0.00    +0.000 C 
ATOM     12  C   UNL     1       5.456   5.587  15.969  0.00  0.00    +0.000 C 
ATOM     13  C   UNL     1       5.839   4.544  16.972  0.00  0.00    +0.000 C 
ENDBRANCH   8  11
BRANCH   7  14
ATOM     14  O   UNL     1       3.219   3.965  19.272  0.00  0.00    +0.000 OA
BRANCH  14  15
ATOM     15  C   UNL     1       2.921   3.512  20.604  0.00  0.00    +0.000 C 
BRANCH  15  16
ATOM     16  C   UNL     1       1.611   2.724  20.650  0.00  0.00    +0.000 C 
ATOM     17  F   UNL     1       0.526   3.484  20.393  0.00  0.00    +0.000 F 
ATOM     18  F   UNL     1       1.627   1.724  19.736  0.00  0.00    +0.000 F 
ATOM     19  F   UNL     1       1.431   2.152  21.863  0.00  0.00    +0.000 F 
ENDBRANCH  15  16
ENDBRANCH  14  15
ENDBRANCH   7  14
ENDBRANCH   2   5
BRANCH   1  20
ATOM     20  C   UNL     1       0.354  10.781  20.347  0.00  0.00    +0.000 C 
ATOM     21  C   UNL     1      -0.100  10.301  21.742  0.00  0.00    +0.000 C 
BRANCH  20  25
ATOM     22  C   UNL     1      -3.093   9.933  16.887  0.00  0.00    +0.000 C 
ATOM     23  C   UNL     1      -2.259  10.514  17.952  0.00  0.00    +0.000 A 
ATOM     24  N   UNL     1      -1.027  10.224  18.297  0.00  0.00    +0.000 NA
ATOM     25  C   UNL     1      -0.863  10.951  19.451  0.00  0.00    +0.000 A 
ATOM     26  N   UNL     1      -1.899  11.751  19.756  0.00  0.00    +0.000 NA
ATOM     27  O   UNL     1      -2.835  11.455  18.755  0.00  0.00    +0.000 OA
ENDBRANCH  20  25
BRANCH  20  28
ATOM     28  C   UNL     1       1.169  12.091  20.386  0.00  0.00    +0.000 C 
BRANCH  28  29
ATOM     29  S   UNL     1       1.738  12.692  18.812  0.00  0.00    +0.000 S 
ATOM     30  C   UNL     1       3.015  13.840  19.277  0.00  0.00    +0.000 C 
ATOM     31  O   UNL     1       2.408  11.633  18.084  0.00  0.00    +0.000 OA
ATOM     32  O   UNL     1       0.688  13.483  18.200  0.00  0.00    +0.000 OA
ENDBRANCH  28  29
ENDBRANCH  20  28
ENDBRANCH   1  20
TORSDOF 9
ENDMDL
