MODEL 1
REMARK VINA RESULT:      -8.8      0.000      0.000
REMARK  Name = 
REMARK  5 active torsions:
REMARK  status: ('A' for Active; 'I' for Inactive)
REMARK    1  A    between atoms: C_1  and  O_2
REMARK    2  A    between atoms: O_2  and  C_3
REMARK    3  A    between atoms: C_9  and  C_10
REMARK    4  A    between atoms: C_16  and  C_17
REMARK    5  A    between atoms: N_20  and  C_21
REMARK                            x       y       z     vdW  Elec       q    Type
REMARK                         _______ _______ _______ _____ _____    ______ ____
ROOT
ATOM      1  C   UNL     1       2.340   6.626  19.747  0.00  0.00    +0.000 A 
ATOM      2  N   UNL     1       1.873   6.070  20.883  0.00  0.00    +0.000 NA
ATOM      3  N   UNL     1       2.442   4.858  20.924  0.00  0.00    +0.000 N 
ATOM      4  C   UNL     1       3.263   4.584  19.868  0.00  0.00    +0.000 A 
ATOM      5  C   UNL     1       4.012   3.452  19.540  0.00  0.00    +0.000 A 
ATOM      6  C   UNL     1       4.777   3.511  18.367  0.00  0.00    +0.000 A 
ATOM      7  C   UNL     1       4.801   4.657  17.560  0.00  0.00    +0.000 A 
ATOM      8  C   UNL     1       4.020   5.765  17.916  0.00  0.00    +0.000 A 
ATOM      9  C   UNL     1       3.239   5.732  19.085  0.00  0.00    +0.000 A 
ATOM     10  H   UNL     1       2.226   4.253  21.706  0.00  0.00    +0.000 HD
ENDROOT
BRANCH   1  17
ATOM     11  C   UNL     1      -1.542  12.894  21.550  0.00  0.00    +0.000 C 
ATOM     12  C   UNL     1      -1.313  12.908  20.034  0.00  0.00    +0.000 C 
ATOM     13  C   UNL     1      -1.273  11.507  19.427  0.00  0.00    +0.000 C 
ATOM     14  N   UNL     1      -0.362  10.663  20.187  0.00  0.00    +0.000 N 
ATOM     15  C   UNL     1       0.563   9.888  19.524  0.00  0.00    +0.000 A 
ATOM     16  C   UNL     1       0.941   8.647  19.994  0.00  0.00    +0.000 A 
ATOM     17  C   UNL     1       1.925   7.967  19.306  0.00  0.00    +0.000 A 
ATOM     18  N   UNL     1       2.524   8.473  18.211  0.00  0.00    +0.000 NA
ATOM     19  C   UNL     1       2.083   9.670  17.819  0.00  0.00    +0.000 A 
ATOM     20  N   UNL     1       1.124  10.392  18.409  0.00  0.00    +0.000 NA
ATOM     21  C   UNL     1      -0.609  10.538  21.618  0.00  0.00    +0.000 C 
ATOM     22  C   UNL     1      -0.578  11.928  22.243  0.00  0.00    +0.000 C 
BRANCH  11  24
ATOM     23  C   UNL     1      -3.103  12.460  23.303  0.00  0.00    +0.000 C 
ATOM     24  O   UNL     1      -2.879  12.512  21.899  0.00  0.00    +0.000 OA
ENDBRANCH  11  24
ENDBRANCH   1  17
BRANCH   7  25
ATOM     25  C   UNL     1       5.636   4.733  16.380  0.00  0.00    +0.000 A 
ATOM     26  C   UNL     1       6.855   5.432  16.159  0.00  0.00    +0.000 A 
ATOM     27  N   UNL     1       7.332   5.259  14.924  0.00  0.00    +0.000 NA
ATOM     28  N   UNL     1       6.421   4.459  14.345  0.00  0.00    +0.000 N 
ATOM     29  C   UNL     1       6.599   4.030  12.981  0.00  0.00    +0.000 C 
ATOM     30  C   UNL     1       5.387   4.127  15.170  0.00  0.00    +0.000 A 
ENDBRANCH   7  25
TORSDOF 3
ENDMDL
MODEL 2
REMARK VINA RESULT:      -8.7      2.938      5.058
REMARK  Name = 
REMARK  5 active torsions:
REMARK  status: ('A' for Active; 'I' for Inactive)
REMARK    1  A    between atoms: C_1  and  O_2
REMARK    2  A    between atoms: O_2  and  C_3
REMARK    3  A    between atoms: C_9  and  C_10
REMARK    4  A    between atoms: C_16  and  C_17
REMARK    5  A    between atoms: N_20  and  C_21
REMARK                            x       y       z     vdW  Elec       q    Type
REMARK                         _______ _______ _______ _____ _____    ______ ____
ROOT
ATOM      1  C   UNL     1       0.897  10.044  19.765  0.00  0.00    +0.000 A 
ATOM      2  N   UNL     1       1.022  10.993  18.817  0.00  0.00    +0.000 NA
ATOM      3  N   UNL     1       1.768  10.420  17.862  0.00  0.00    +0.000 N 
ATOM      4  C   UNL     1       2.144   9.137  18.135  0.00  0.00    +0.000 A 
ATOM      5  C   UNL     1       2.920   8.222  17.420  0.00  0.00    +0.000 A 
ATOM      6  C   UNL     1       3.100   6.954  17.991  0.00  0.00    +0.000 A 
ATOM      7  C   UNL     1       2.520   6.611  19.220  0.00  0.00    +0.000 A 
ATOM      8  C   UNL     1       1.764   7.566  19.914  0.00  0.00    +0.000 A 
ATOM      9  C   UNL     1       1.571   8.847  19.367  0.00  0.00    +0.000 A 
ATOM     10  H   UNL     1       1.993  10.965  17.039  0.00  0.00    +0.000 HD
ENDROOT
BRANCH   1  17
ATOM     11  C   UNL     1      -5.038  13.503  22.994  0.00  0.00    +0.000 C 
ATOM     12  C   UNL     1      -4.062  13.114  24.110  0.00  0.00    +0.000 C 
ATOM     13  C   UNL     1      -2.603  13.138  23.659  0.00  0.00    +0.000 C 
ATOM     14  N   UNL     1      -2.456  12.394  22.415  0.00  0.00    +0.000 N 
ATOM     15  C   UNL     1      -1.436  11.479  22.285  0.00  0.00    +0.000 A 
ATOM     16  C   UNL     1      -0.799  11.269  21.079  0.00  0.00    +0.000 A 
ATOM     17  C   UNL     1       0.165  10.285  21.019  0.00  0.00    +0.000 A 
ATOM     18  N   UNL     1       0.493   9.529  22.084  0.00  0.00    +0.000 NA
ATOM     19  C   UNL     1      -0.160   9.813  23.212  0.00  0.00    +0.000 A 
ATOM     20  N   UNL     1      -1.093  10.759  23.368  0.00  0.00    +0.000 NA
ATOM     21  C   UNL     1      -3.292  12.803  21.294  0.00  0.00    +0.000 C 
ATOM     22  C   UNL     1      -4.755  12.711  21.715  0.00  0.00    +0.000 C 
BRANCH  11  24
ATOM     23  C   UNL     1      -5.589  15.729  23.654  0.00  0.00    +0.000 C 
ATOM     24  O   UNL     1      -4.976  14.899  22.674  0.00  0.00    +0.000 OA
ENDBRANCH  11  24
ENDBRANCH   1  17
BRANCH   7  25
ATOM     25  C   UNL     1       2.662   5.283  19.778  0.00  0.00    +0.000 A 
ATOM     26  C   UNL     1       3.647   4.286  19.540  0.00  0.00    +0.000 A 
ATOM     27  N   UNL     1       3.439   3.174  20.249  0.00  0.00    +0.000 NA
ATOM     28  N   UNL     1       2.317   3.447  20.937  0.00  0.00    +0.000 N 
ATOM     29  C   UNL     1       1.771   2.470  21.845  0.00  0.00    +0.000 C 
ATOM     30  C   UNL     1       1.812   4.688  20.682  0.00  0.00    +0.000 A 
ENDBRANCH   7  25
TORSDOF 3
ENDMDL
MODEL 3
REMARK VINA RESULT:      -8.4      3.484      8.868
REMARK  Name = 
REMARK  5 active torsions:
REMARK  status: ('A' for Active; 'I' for Inactive)
REMARK    1  A    between atoms: C_1  and  O_2
REMARK    2  A    between atoms: O_2  and  C_3
REMARK    3  A    between atoms: C_9  and  C_10
REMARK    4  A    between atoms: C_16  and  C_17
REMARK    5  A    between atoms: N_20  and  C_21
REMARK                            x       y       z     vdW  Elec       q    Type
REMARK                         _______ _______ _______ _____ _____    ______ ____
ROOT
ATOM      1  C   UNL     1       0.934   9.586  20.132  0.00  0.00    +0.000 A 
ATOM      2  N   UNL     1       1.238   9.984  21.384  0.00  0.00    +0.000 NA
ATOM      3  N   UNL     1       0.302  10.895  21.684  0.00  0.00    +0.000 N 
ATOM      4  C   UNL     1      -0.606  11.119  20.690  0.00  0.00    +0.000 A 
ATOM      5  C   UNL     1      -1.701  11.983  20.607  0.00  0.00    +0.000 A 
ATOM      6  C   UNL     1      -2.451  11.948  19.423  0.00  0.00    +0.000 A 
ATOM      7  C   UNL     1      -2.128  11.080  18.371  0.00  0.00    +0.000 A 
ATOM      8  C   UNL     1      -1.010  10.243  18.489  0.00  0.00    +0.000 A 
ATOM      9  C   UNL     1      -0.236  10.260  19.663  0.00  0.00    +0.000 A 
ATOM     10  H   UNL     1       0.339  11.337  22.594  0.00  0.00    +0.000 HD
ENDROOT
BRANCH   1  17
ATOM     11  C   UNL     1       3.391   2.407  19.941  0.00  0.00    +0.000 C 
ATOM     12  C   UNL     1       4.298   3.234  19.022  0.00  0.00    +0.000 C 
ATOM     13  C   UNL     1       4.466   4.676  19.495  0.00  0.00    +0.000 C 
ATOM     14  N   UNL     1       3.162   5.262  19.776  0.00  0.00    +0.000 N 
ATOM     15  C   UNL     1       2.858   6.514  19.290  0.00  0.00    +0.000 A 
ATOM     16  C   UNL     1       2.063   7.392  19.997  0.00  0.00    +0.000 A 
ATOM     17  C   UNL     1       1.751   8.600  19.407  0.00  0.00    +0.000 A 
ATOM     18  N   UNL     1       2.186   8.938  18.178  0.00  0.00    +0.000 NA
ATOM     19  C   UNL     1       2.964   8.035  17.577  0.00  0.00    +0.000 A 
ATOM     20  N   UNL     1       3.333   6.852  18.078  0.00  0.00    +0.000 NA
ATOM     21  C   UNL     1       2.310   4.561  20.728  0.00  0.00    +0.000 C 
ATOM     22  C   UNL     1       2.078   3.140  20.225  0.00  0.00    +0.000 C 
BRANCH  11  24
ATOM     23  C   UNL     1       5.197   1.331  21.071  0.00  0.00    +0.000 C 
ATOM     24  O   UNL     1       4.012   2.109  21.198  0.00  0.00    +0.000 OA
ENDBRANCH  11  24
ENDBRANCH   1  17
BRANCH   7  25
ATOM     25  C   UNL     1      -2.940  11.009  17.174  0.00  0.00    +0.000 A 
ATOM     26  C   UNL     1      -4.246  11.507  16.918  0.00  0.00    +0.000 A 
ATOM     27  N   UNL     1      -4.667  11.240  15.679  0.00  0.00    +0.000 NA
ATOM     28  N   UNL     1      -3.639  10.564  15.138  0.00  0.00    +0.000 N 
ATOM     29  C   UNL     1      -3.713  10.105  13.774  0.00  0.00    +0.000 C 
ATOM     30  C   UNL     1      -2.591  10.392  15.994  0.00  0.00    +0.000 A 
ENDBRANCH   7  25
TORSDOF 3
ENDMDL
MODEL 4
REMARK VINA RESULT:      -8.2      3.355      8.799
REMARK  Name = 
REMARK  5 active torsions:
REMARK  status: ('A' for Active; 'I' for Inactive)
REMARK    1  A    between atoms: C_1  and  O_2
REMARK    2  A    between atoms: O_2  and  C_3
REMARK    3  A    between atoms: C_9  and  C_10
REMARK    4  A    between atoms: C_16  and  C_17
REMARK    5  A    between atoms: N_20  and  C_21
REMARK                            x       y       z     vdW  Elec       q    Type
REMARK                         _______ _______ _______ _____ _____    ______ ____
ROOT
ATOM      1  C   UNL     1       1.256   8.478  21.030  0.00  0.00    +0.000 A 
ATOM      2  N   UNL     1       1.716   8.915  22.219  0.00  0.00    +0.000 NA
ATOM      3  N   UNL     1       1.129  10.108  22.389  0.00  0.00    +0.000 N 
ATOM      4  C   UNL     1       0.304  10.481  21.367  0.00  0.00    +0.000 A 
ATOM      5  C   UNL     1      -0.461  11.632  21.161  0.00  0.00    +0.000 A 
ATOM      6  C   UNL     1      -1.226  11.687  19.988  0.00  0.00    +0.000 A 
ATOM      7  C   UNL     1      -1.234  10.633  19.063  0.00  0.00    +0.000 A 
ATOM      8  C   UNL     1      -0.436   9.505  19.299  0.00  0.00    +0.000 A 
ATOM      9  C   UNL     1       0.344   9.424  20.466  0.00  0.00    +0.000 A 
ATOM     10  H   UNL     1       1.337  10.629  23.232  0.00  0.00    +0.000 HD
ENDROOT
BRANCH   1  17
ATOM     11  C   UNL     1       6.334   5.021  16.571  0.00  0.00    +0.000 C 
ATOM     12  C   UNL     1       5.132   4.081  16.724  0.00  0.00    +0.000 C 
ATOM     13  C   UNL     1       3.811   4.828  16.890  0.00  0.00    +0.000 C 
ATOM     14  N   UNL     1       3.942   5.846  17.924  0.00  0.00    +0.000 N 
ATOM     15  C   UNL     1       2.974   5.959  18.896  0.00  0.00    +0.000 A 
ATOM     16  C   UNL     1       2.621   7.181  19.430  0.00  0.00    +0.000 A 
ATOM     17  C   UNL     1       1.691   7.198  20.449  0.00  0.00    +0.000 A 
ATOM     18  N   UNL     1       1.132   6.074  20.936  0.00  0.00    +0.000 NA
ATOM     19  C   UNL     1       1.519   4.940  20.347  0.00  0.00    +0.000 A 
ATOM     20  N   UNL     1       2.396   4.830  19.344  0.00  0.00    +0.000 NA
ATOM     21  C   UNL     1       5.008   6.826  17.760  0.00  0.00    +0.000 C 
ATOM     22  C   UNL     1       6.340   6.089  17.666  0.00  0.00    +0.000 C 
BRANCH  11  24
ATOM     23  C   UNL     1       6.735   4.842  14.225  0.00  0.00    +0.000 C 
ATOM     24  O   UNL     1       6.348   5.688  15.302  0.00  0.00    +0.000 OA
ENDBRANCH  11  24
ENDBRANCH   1  17
BRANCH   7  25
ATOM     25  C   UNL     1      -2.068  10.672  17.880  0.00  0.00    +0.000 A 
ATOM     26  C   UNL     1      -3.301  11.339  17.646  0.00  0.00    +0.000 A 
ATOM     27  N   UNL     1      -3.775  11.132  16.415  0.00  0.00    +0.000 NA
ATOM     28  N   UNL     1      -2.855  10.327  15.857  0.00  0.00    +0.000 N 
ATOM     29  C   UNL     1      -3.012   9.885  14.495  0.00  0.00    +0.000 C 
ATOM     30  C   UNL     1      -1.824  10.016  16.695  0.00  0.00    +0.000 A 
ENDBRANCH   7  25
TORSDOF 3
ENDMDL
MODEL 5
REMARK VINA RESULT:      -8.2      3.269      9.553
REMARK  Name = 
REMARK  5 active torsions:
REMARK  status: ('A' for Active; 'I' for Inactive)
REMARK    1  A    between atoms: C_1  and  O_2
REMARK    2  A    between atoms: O_2  and  C_3
REMARK    3  A    between atoms: C_9  and  C_10
REMARK    4  A    between atoms: C_16  and  C_17
REMARK    5  A    between atoms: N_20  and  C_21
REMARK                            x       y       z     vdW  Elec       q    Type
REMARK                         _______ _______ _______ _____ _____    ______ ____
ROOT
ATOM      1  C   UNL     1       0.249   9.552  21.192  0.00  0.00    +0.000 A 
ATOM      2  N   UNL     1      -0.086   8.811  22.267  0.00  0.00    +0.000 NA
ATOM      3  N   UNL     1      -0.723   9.665  23.080  0.00  0.00    +0.000 N 
ATOM      4  C   UNL     1      -0.824  10.936  22.594  0.00  0.00    +0.000 A 
ATOM      5  C   UNL     1      -1.388  12.096  23.131  0.00  0.00    +0.000 A 
ATOM      6  C   UNL     1      -1.336  13.254  22.343  0.00  0.00    +0.000 A 
ATOM      7  C   UNL     1      -0.755  13.252  21.067  0.00  0.00    +0.000 A 
ATOM      8  C   UNL     1      -0.184  12.071  20.574  0.00  0.00    +0.000 A 
ATOM      9  C   UNL     1      -0.217  10.895  21.345  0.00  0.00    +0.000 A 
ATOM     10  H   UNL     1      -1.067   9.316  23.966  0.00  0.00    +0.000 HD
ENDROOT
BRANCH   1  17
ATOM     11  C   UNL     1       3.947   3.484  18.522  0.00  0.00    +0.000 C 
ATOM     12  C   UNL     1       4.362   4.693  17.675  0.00  0.00    +0.000 C 
ATOM     13  C   UNL     1       4.364   6.000  18.465  0.00  0.00    +0.000 C 
ATOM     14  N   UNL     1       3.106   6.146  19.186  0.00  0.00    +0.000 N 
ATOM     15  C   UNL     1       2.429   7.344  19.137  0.00  0.00    +0.000 A 
ATOM     16  C   UNL     1       1.711   7.815  20.217  0.00  0.00    +0.000 A 
ATOM     17  C   UNL     1       1.004   8.989  20.061  0.00  0.00    +0.000 A 
ATOM     18  N   UNL     1       0.988   9.675  18.902  0.00  0.00    +0.000 NA
ATOM     19  C   UNL     1       1.724   9.155  17.918  0.00  0.00    +0.000 A 
ATOM     20  N   UNL     1       2.454   8.036  17.984  0.00  0.00    +0.000 NA
ATOM     21  C   UNL     1       2.726   5.064  20.085  0.00  0.00    +0.000 C 
ATOM     22  C   UNL     1       2.651   3.767  19.286  0.00  0.00    +0.000 C 
BRANCH  11  24
ATOM     23  C   UNL     1       4.563   2.026  20.309  0.00  0.00    +0.000 C 
ATOM     24  O   UNL     1       4.951   3.113  19.475  0.00  0.00    +0.000 OA
ENDBRANCH  11  24
ENDBRANCH   1  17
BRANCH   7  25
ATOM     25  C   UNL     1      -0.754  14.437  20.235  0.00  0.00    +0.000 A 
ATOM     26  C   UNL     1      -0.065  14.708  19.022  0.00  0.00    +0.000 A 
ATOM     27  N   UNL     1      -0.318  15.929  18.546  0.00  0.00    +0.000 NA
ATOM     28  N   UNL     1      -1.161  16.450  19.453  0.00  0.00    +0.000 N 
ATOM     29  C   UNL     1      -1.680  17.783  19.276  0.00  0.00    +0.000 C 
ATOM     30  C   UNL     1      -1.442  15.602  20.484  0.00  0.00    +0.000 A 
ENDBRANCH   7  25
TORSDOF 3
ENDMDL
MODEL 6
REMARK VINA RESULT:      -8.2      3.110     10.175
REMARK  Name = 
REMARK  5 active torsions:
REMARK  status: ('A' for Active; 'I' for Inactive)
REMARK    1  A    between atoms: C_1  and  O_2
REMARK    2  A    between atoms: O_2  and  C_3
REMARK    3  A    between atoms: C_9  and  C_10
REMARK    4  A    between atoms: C_16  and  C_17
REMARK    5  A    between atoms: N_20  and  C_21
REMARK                            x       y       z     vdW  Elec       q    Type
REMARK                         _______ _______ _______ _____ _____    ______ ____
ROOT
ATOM      1  C   UNL     1       1.370  10.645  18.942  0.00  0.00    +0.000 A 
ATOM      2  N   UNL     1       2.083  11.259  17.976  0.00  0.00    +0.000 NA
ATOM      3  N   UNL     1       1.542  12.483  17.885  0.00  0.00    +0.000 N 
ATOM      4  C   UNL     1       0.504  12.706  18.744  0.00  0.00    +0.000 A 
ATOM      5  C   UNL     1      -0.316  13.819  18.944  0.00  0.00    +0.000 A 
ATOM      6  C   UNL     1      -1.295  13.718  19.941  0.00  0.00    +0.000 A 
ATOM      7  C   UNL     1      -1.443  12.558  20.715  0.00  0.00    +0.000 A 
ATOM      8  C   UNL     1      -0.611  11.457  20.468  0.00  0.00    +0.000 A 
ATOM      9  C   UNL     1       0.377  11.528  19.471  0.00  0.00    +0.000 A 
ATOM     10  H   UNL     1       1.928  13.127  17.207  0.00  0.00    +0.000 HD
ENDROOT
BRANCH   1  17
ATOM     11  C   UNL     1       5.233   4.304  17.367  0.00  0.00    +0.000 C 
ATOM     12  C   UNL     1       4.066   3.922  18.287  0.00  0.00    +0.000 C 
ATOM     13  C   UNL     1       2.837   4.806  18.085  0.00  0.00    +0.000 C 
ATOM     14  N   UNL     1       3.224   6.210  18.117  0.00  0.00    +0.000 N 
ATOM     15  C   UNL     1       2.498   7.099  18.877  0.00  0.00    +0.000 A 
ATOM     16  C   UNL     1       2.309   8.407  18.480  0.00  0.00    +0.000 A 
ATOM     17  C   UNL     1       1.627   9.250  19.333  0.00  0.00    +0.000 A 
ATOM     18  N   UNL     1       1.155   8.843  20.527  0.00  0.00    +0.000 NA
ATOM     19  C   UNL     1       1.368   7.559  20.820  0.00  0.00    +0.000 A 
ATOM     20  N   UNL     1       1.999   6.667  20.049  0.00  0.00    +0.000 NA
ATOM     21  C   UNL     1       4.257   6.637  17.183  0.00  0.00    +0.000 C 
ATOM     22  C   UNL     1       5.513   5.807  17.428  0.00  0.00    +0.000 C 
BRANCH  11  24
ATOM     23  C   UNL     1       6.155   4.005  15.186  0.00  0.00    +0.000 C 
ATOM     24  O   UNL     1       4.987   3.954  15.999  0.00  0.00    +0.000 OA
ENDBRANCH  11  24
ENDBRANCH   1  17
BRANCH   7  25
ATOM     25  C   UNL     1      -2.419  12.480  21.781  0.00  0.00    +0.000 A 
ATOM     26  C   UNL     1      -2.324  11.895  23.073  0.00  0.00    +0.000 A 
ATOM     27  N   UNL     1      -3.449  12.023  23.782  0.00  0.00    +0.000 NA
ATOM     28  N   UNL     1      -4.271  12.681  22.947  0.00  0.00    +0.000 N 
ATOM     29  C   UNL     1      -5.606  13.022  23.369  0.00  0.00    +0.000 C 
ATOM     30  C   UNL     1      -3.706  12.965  21.739  0.00  0.00    +0.000 A 
ENDBRANCH   7  25
TORSDOF 3
ENDMDL
MODEL 7
REMARK VINA RESULT:      -8.1      3.411      9.465
REMARK  Name = 
REMARK  5 active torsions:
REMARK  status: ('A' for Active; 'I' for Inactive)
REMARK    1  A    between atoms: C_1  and  O_2
REMARK    2  A    between atoms: O_2  and  C_3
REMARK    3  A    between atoms: C_9  and  C_10
REMARK    4  A    between atoms: C_16  and  C_17
REMARK    5  A    between atoms: N_20  and  C_21
REMARK                            x       y       z     vdW  Elec       q    Type
REMARK                         _______ _______ _______ _____ _____    ______ ____
ROOT
ATOM      1  C   UNL     1       0.474  10.267  20.729  0.00  0.00    +0.000 A 
ATOM      2  N   UNL     1       0.979  10.564  21.943  0.00  0.00    +0.000 NA
ATOM      3  N   UNL     1       0.116  11.450  22.459  0.00  0.00    +0.000 N 
ATOM      4  C   UNL     1      -0.935  11.754  21.643  0.00  0.00    +0.000 A 
ATOM      5  C   UNL     1      -2.016  12.625  21.802  0.00  0.00    +0.000 A 
ATOM      6  C   UNL     1      -2.945  12.686  20.754  0.00  0.00    +0.000 A 
ATOM      7  C   UNL     1      -2.806  11.904  19.599  0.00  0.00    +0.000 A 
ATOM      8  C   UNL     1      -1.696  11.058  19.472  0.00  0.00    +0.000 A 
ATOM      9  C   UNL     1      -0.746  10.979  20.505  0.00  0.00    +0.000 A 
ATOM     10  H   UNL     1       0.303  11.818  23.383  0.00  0.00    +0.000 HD
ENDROOT
BRANCH   1  17
ATOM     11  C   UNL     1       2.618   3.087  19.515  0.00  0.00    +0.000 C 
ATOM     12  C   UNL     1       3.425   3.981  18.565  0.00  0.00    +0.000 C 
ATOM     13  C   UNL     1       3.707   5.364  19.148  0.00  0.00    +0.000 C 
ATOM     14  N   UNL     1       2.474   5.949  19.658  0.00  0.00    +0.000 N 
ATOM     15  C   UNL     1       2.156   7.251  19.341  0.00  0.00    +0.000 A 
ATOM     16  C   UNL     1       1.494   8.072  20.231  0.00  0.00    +0.000 A 
ATOM     17  C   UNL     1       1.151   9.340  19.808  0.00  0.00    +0.000 A 
ATOM     18  N   UNL     1       1.432   9.790  18.570  0.00  0.00    +0.000 NA
ATOM     19  C   UNL     1       2.089   8.934  17.784  0.00  0.00    +0.000 A 
ATOM     20  N   UNL     1       2.477   7.697  18.114  0.00  0.00    +0.000 NA
ATOM     21  C   UNL     1       1.731   5.177  20.645  0.00  0.00    +0.000 C 
ATOM     22  C   UNL     1       1.382   3.819  20.043  0.00  0.00    +0.000 C 
BRANCH  11  24
ATOM     23  C   UNL     1       4.600   1.998  20.276  0.00  0.00    +0.000 C 
ATOM     24  O   UNL     1       3.389   2.650  20.642  0.00  0.00    +0.000 OA
ENDBRANCH  11  24
ENDBRANCH   1  17
BRANCH   7  25
ATOM     25  C   UNL     1      -3.798  11.930  18.545  0.00  0.00    +0.000 A 
ATOM     26  C   UNL     1      -3.737  11.436  17.213  0.00  0.00    +0.000 A 
ATOM     27  N   UNL     1      -4.865  11.651  16.531  0.00  0.00    +0.000 NA
ATOM     28  N   UNL     1      -5.649  12.289  17.416  0.00  0.00    +0.000 N 
ATOM     29  C   UNL     1      -6.984  12.685  17.045  0.00  0.00    +0.000 C 
ATOM     30  C   UNL     1      -5.053  12.488  18.627  0.00  0.00    +0.000 A 
ENDBRANCH   7  25
TORSDOF 3
ENDMDL
MODEL 8
REMARK VINA RESULT:      -8.1      3.530      9.341
REMARK  Name = 
REMARK  5 active torsions:
REMARK  status: ('A' for Active; 'I' for Inactive)
REMARK    1  A    between atoms: C_1  and  O_2
REMARK    2  A    between atoms: O_2  and  C_3
REMARK    3  A    between atoms: C_9  and  C_10
REMARK    4  A    between atoms: C_16  and  C_17
REMARK    5  A    between atoms: N_20  and  C_21
REMARK                            x       y       z     vdW  Elec       q    Type
REMARK                         _______ _______ _______ _____ _____    ______ ____
ROOT
ATOM      1  C   UNL     1       0.114   9.794  21.530  0.00  0.00    +0.000 A 
ATOM      2  N   UNL     1      -0.463   9.198  22.593  0.00  0.00    +0.000 NA
ATOM      3  N   UNL     1      -1.028  10.203  23.277  0.00  0.00    +0.000 N 
ATOM      4  C   UNL     1      -0.850  11.435  22.718  0.00  0.00    +0.000 A 
ATOM      5  C   UNL     1      -1.259  12.708  23.123  0.00  0.00    +0.000 A 
ATOM      6  C   UNL     1      -0.918  13.782  22.289  0.00  0.00    +0.000 A 
ATOM      7  C   UNL     1      -0.207  13.592  21.096  0.00  0.00    +0.000 A 
ATOM      8  C   UNL     1       0.201  12.300  20.738  0.00  0.00    +0.000 A 
ATOM      9  C   UNL     1      -0.124  11.204  21.557  0.00  0.00    +0.000 A 
ATOM     10  H   UNL     1      -1.525   9.981  24.131  0.00  0.00    +0.000 HD
ENDROOT
BRANCH   1  17
ATOM     11  C   UNL     1       2.833   2.985  19.567  0.00  0.00    +0.000 C 
ATOM     12  C   UNL     1       3.589   4.041  18.752  0.00  0.00    +0.000 C 
ATOM     13  C   UNL     1       3.751   5.364  19.498  0.00  0.00    +0.000 C 
ATOM     14  N   UNL     1       2.465   5.792  20.034  0.00  0.00    +0.000 N 
ATOM     15  C   UNL     1       2.054   7.094  19.859  0.00  0.00    +0.000 A 
ATOM     16  C   UNL     1       1.311   7.755  20.815  0.00  0.00    +0.000 A 
ATOM     17  C   UNL     1       0.881   9.034  20.531  0.00  0.00    +0.000 A 
ATOM     18  N   UNL     1       1.154   9.645  19.362  0.00  0.00    +0.000 NA
ATOM     19  C   UNL     1       1.892   8.938  18.504  0.00  0.00    +0.000 A 
ATOM     20  N   UNL     1       2.368   7.704  18.702  0.00  0.00    +0.000 NA
ATOM     21  C   UNL     1       1.762   4.856  20.901  0.00  0.00    +0.000 C 
ATOM     22  C   UNL     1       1.533   3.557  20.136  0.00  0.00    +0.000 C 
BRANCH  11  24
ATOM     23  C   UNL     1       4.762   1.752  20.242  0.00  0.00    +0.000 C 
ATOM     24  O   UNL     1       3.610   2.477  20.659  0.00  0.00    +0.000 OA
ENDBRANCH  11  24
ENDBRANCH   1  17
BRANCH   7  25
ATOM     25  C   UNL     1       0.094  14.698  20.211  0.00  0.00    +0.000 A 
ATOM     26  C   UNL     1      -0.759  15.688  19.653  0.00  0.00    +0.000 A 
ATOM     27  N   UNL     1      -0.107  16.552  18.872  0.00  0.00    +0.000 NA
ATOM     28  N   UNL     1       1.164  16.116  18.917  0.00  0.00    +0.000 N 
ATOM     29  C   UNL     1       2.193  16.816  18.191  0.00  0.00    +0.000 C 
ATOM     30  C   UNL     1       1.331  15.008  19.694  0.00  0.00    +0.000 A 
ENDBRANCH   7  25
TORSDOF 3
ENDMDL
MODEL 9
REMARK VINA RESULT:      -8.0      3.268      9.496
REMARK  Name = 
REMARK  5 active torsions:
REMARK  status: ('A' for Active; 'I' for Inactive)
REMARK    1  A    between atoms: C_1  and  O_2
REMARK    2  A    between atoms: O_2  and  C_3
REMARK    3  A    between atoms: C_9  and  C_10
REMARK    4  A    between atoms: C_16  and  C_17
REMARK    5  A    between atoms: N_20  and  C_21
REMARK                            x       y       z     vdW  Elec       q    Type
REMARK                         _______ _______ _______ _____ _____    ______ ____
ROOT
ATOM      1  C   UNL     1       0.310   9.561  21.129  0.00  0.00    +0.000 A 
ATOM      2  N   UNL     1      -0.025   8.719  22.128  0.00  0.00    +0.000 NA
ATOM      3  N   UNL     1      -0.698   9.482  23.000  0.00  0.00    +0.000 N 
ATOM      4  C   UNL     1      -0.822  10.790  22.627  0.00  0.00    +0.000 A 
ATOM      5  C   UNL     1      -1.424  11.883  23.253  0.00  0.00    +0.000 A 
ATOM      6  C   UNL     1      -1.387  13.108  22.572  0.00  0.00    +0.000 A 
ATOM      7  C   UNL     1      -0.782  13.233  21.313  0.00  0.00    +0.000 A 
ATOM      8  C   UNL     1      -0.173  12.114  20.729  0.00  0.00    +0.000 A 
ATOM      9  C   UNL     1      -0.191  10.874  21.391  0.00  0.00    +0.000 A 
ATOM     10  H   UNL     1      -1.050   9.048  23.844  0.00  0.00    +0.000 HD
ENDROOT
BRANCH   1  17
ATOM     11  C   UNL     1       3.311   3.617  17.486  0.00  0.00    +0.000 C 
ATOM     12  C   UNL     1       4.011   4.881  16.970  0.00  0.00    +0.000 C 
ATOM     13  C   UNL     1       4.120   5.973  18.032  0.00  0.00    +0.000 C 
ATOM     14  N   UNL     1       2.823   6.189  18.658  0.00  0.00    +0.000 N 
ATOM     15  C   UNL     1       2.352   7.473  18.822  0.00  0.00    +0.000 A 
ATOM     16  C   UNL     1       1.590   7.830  19.916  0.00  0.00    +0.000 A 
ATOM     17  C   UNL     1       1.100   9.119  19.969  0.00  0.00    +0.000 A 
ATOM     18  N   UNL     1       1.332  10.021  18.997  0.00  0.00    +0.000 NA
ATOM     19  C   UNL     1       2.093   9.593  17.987  0.00  0.00    +0.000 A 
ATOM     20  N   UNL     1       2.625   8.373  17.861  0.00  0.00    +0.000 NA
ATOM     21  C   UNL     1       2.172   5.031  19.254  0.00  0.00    +0.000 C 
ATOM     22  C   UNL     1       1.993   3.962  18.181  0.00  0.00    +0.000 C 
BRANCH  11  24
ATOM     23  C   UNL     1       3.665   1.551  18.628  0.00  0.00    +0.000 C 
ATOM     24  O   UNL     1       4.122   2.882  18.412  0.00  0.00    +0.000 OA
ENDBRANCH  11  24
ENDBRANCH   1  17
BRANCH   7  25
ATOM     25  C   UNL     1      -0.795  14.487  20.590  0.00  0.00    +0.000 A 
ATOM     26  C   UNL     1      -1.777  15.514  20.547  0.00  0.00    +0.000 A 
ATOM     27  N   UNL     1      -1.428  16.530  19.754  0.00  0.00    +0.000 NA
ATOM     28  N   UNL     1      -0.228  16.157  19.279  0.00  0.00    +0.000 N 
ATOM     29  C   UNL     1       0.492  17.021  18.377  0.00  0.00    +0.000 C 
ATOM     30  C   UNL     1       0.186  14.943  19.740  0.00  0.00    +0.000 A 
ENDBRANCH   7  25
TORSDOF 3
ENDMDL
