MODEL 1
REMARK VINA RESULT:      -8.1      0.000      0.000
REMARK  Name = 
REMARK  8 active torsions:
REMARK  status: ('A' for Active; 'I' for Inactive)
REMARK    1  A    between atoms: C_1  and  O_2
REMARK    2  A    between atoms: O_2  and  C_3
REMARK    3  A    between atoms: C_6  and  C_7
REMARK    4  A    between atoms: N_8  and  N_9
REMARK    5  A    between atoms: C_10  and  C_12
REMARK    6  A    between atoms: C_13  and  C_14
REMARK    7  A    between atoms: C_23  and  O_24
REMARK    8  A    between atoms: O_24  and  C_25
REMARK                            x       y       z     vdW  Elec       q    Type
REMARK                         _______ _______ _______ _____ _____    ______ ____
ROOT
ATOM      1  N   UNL     1       7.377   7.453  17.705  0.00  0.00    +0.000 N 
ATOM      2  C   UNL     1       7.162   6.188  18.235  0.00  0.00    +0.000 C 
ATOM      3  O   UNL     1       7.770   5.755  19.212  0.00  0.00    +0.000 OA
ATOM      4  H   UNL     1       6.783   7.812  16.969  0.00  0.00    +0.000 HD
ENDROOT
BRANCH   2   5
ATOM      5  C   UNL     1       6.134   5.429  17.561  0.00  0.00    +0.000 A 
ATOM      6  C   UNL     1       6.107   4.826  16.306  0.00  0.00    +0.000 A 
ATOM      7  C   UNL     1       7.142   4.739  15.246  0.00  0.00    +0.000 C 
ATOM      8  N   UNL     1       4.904   4.199  16.082  0.00  0.00    +0.000 NA
ATOM      9  C   UNL     1       4.204   4.376  17.177  0.00  0.00    +0.000 A 
ATOM     10  C   UNL     1       2.892   3.941  17.519  0.00  0.00    +0.000 A 
ATOM     11  C   UNL     1       2.365   4.268  18.715  0.00  0.00    +0.000 A 
ATOM     12  C   UNL     1       3.115   5.053  19.681  0.00  0.00    +0.000 A 
ATOM     13  C   UNL     1       4.359   5.455  19.369  0.00  0.00    +0.000 A 
ATOM     14  N   UNL     1       4.907   5.114  18.126  0.00  0.00    +0.000 N 
ENDBRANCH   2   5
BRANCH   1  16
ATOM     15  C   UNL     1       8.209   9.524  18.044  0.00  0.00    +0.000 C 
ATOM     16  N   UNL     1       8.341   8.252  18.235  0.00  0.00    +0.000 NA
BRANCH  15  20
ATOM     17  C   UNL     1      11.273  12.094  19.544  0.00  0.00    +0.000 A 
ATOM     18  C   UNL     1      10.341  11.512  20.418  0.00  0.00    +0.000 A 
ATOM     19  C   UNL     1       9.332  10.684  19.933  0.00  0.00    +0.000 A 
ATOM     20  C   UNL     1       9.219  10.466  18.562  0.00  0.00    +0.000 A 
ATOM     21  C   UNL     1      10.078  11.117  17.677  0.00  0.00    +0.000 A 
ATOM     22  C   UNL     1      11.107  11.943  18.156  0.00  0.00    +0.000 A 
BRANCH  17  24
ATOM     23  C   UNL     1      12.196  14.239  19.908  0.00  0.00    +0.000 C 
ATOM     24  O   UNL     1      12.326  12.821  20.034  0.00  0.00    +0.000 OA
ENDBRANCH  17  24
BRANCH  22  25
ATOM     25  O   UNL     1      11.849  12.480  17.138  0.00  0.00    +0.000 OA
ATOM     26  C   UNL     1      11.331  13.587  16.418  0.00  0.00    +0.000 C 
ENDBRANCH  22  25
ENDBRANCH  15  20
ENDBRANCH   1  16
TORSDOF 5
ENDMDL
MODEL 2
REMARK VINA RESULT:      -8.1      0.831      1.917
REMARK  Name = 
REMARK  8 active torsions:
REMARK  status: ('A' for Active; 'I' for Inactive)
REMARK    1  A    between atoms: C_1  and  O_2
REMARK    2  A    between atoms: O_2  and  C_3
REMARK    3  A    between atoms: C_6  and  C_7
REMARK    4  A    between atoms: N_8  and  N_9
REMARK    5  A    between atoms: C_10  and  C_12
REMARK    6  A    between atoms: C_13  and  C_14
REMARK    7  A    between atoms: C_23  and  O_24
REMARK    8  A    between atoms: O_24  and  C_25
REMARK                            x       y       z     vdW  Elec       q    Type
REMARK                         _______ _______ _______ _____ _____    ______ ____
ROOT
ATOM      1  N   UNL     1       7.392   7.487  17.742  0.00  0.00    +0.000 N 
ATOM      2  C   UNL     1       7.234   6.187  18.203  0.00  0.00    +0.000 C 
ATOM      3  O   UNL     1       7.899   5.713  19.123  0.00  0.00    +0.000 OA
ATOM      4  H   UNL     1       6.755   7.872  17.058  0.00  0.00    +0.000 HD
ENDROOT
BRANCH   2   5
ATOM      5  C   UNL     1       6.194   5.441  17.533  0.00  0.00    +0.000 A 
ATOM      6  C   UNL     1       6.145   4.863  16.267  0.00  0.00    +0.000 A 
ATOM      7  C   UNL     1       7.161   4.794  15.188  0.00  0.00    +0.000 C 
ATOM      8  N   UNL     1       4.937   4.241  16.052  0.00  0.00    +0.000 NA
ATOM      9  C   UNL     1       4.256   4.398  17.162  0.00  0.00    +0.000 A 
ATOM     10  C   UNL     1       2.950   3.958  17.519  0.00  0.00    +0.000 A 
ATOM     11  C   UNL     1       2.444   4.264  18.729  0.00  0.00    +0.000 A 
ATOM     12  C   UNL     1       3.212   5.029  19.696  0.00  0.00    +0.000 A 
ATOM     13  C   UNL     1       4.451   5.435  19.371  0.00  0.00    +0.000 A 
ATOM     14  N   UNL     1       4.976   5.117  18.113  0.00  0.00    +0.000 N 
ENDBRANCH   2   5
BRANCH   1  16
ATOM     15  C   UNL     1       8.272   9.546  18.031  0.00  0.00    +0.000 C 
ATOM     16  N   UNL     1       8.361   8.278  18.274  0.00  0.00    +0.000 NA
BRANCH  15  20
ATOM     17  C   UNL     1      11.087  12.404  19.498  0.00  0.00    +0.000 A 
ATOM     18  C   UNL     1      11.143  11.969  18.165  0.00  0.00    +0.000 A 
ATOM     19  C   UNL     1      10.236  11.028  17.684  0.00  0.00    +0.000 A 
ATOM     20  C   UNL     1       9.291  10.478  18.548  0.00  0.00    +0.000 A 
ATOM     21  C   UNL     1       9.289  10.828  19.898  0.00  0.00    +0.000 A 
ATOM     22  C   UNL     1      10.190  11.787  20.389  0.00  0.00    +0.000 A 
BRANCH  17  24
ATOM     23  C   UNL     1      11.316  14.704  19.986  0.00  0.00    +0.000 C 
ATOM     24  O   UNL     1      11.910  13.405  19.939  0.00  0.00    +0.000 OA
ENDBRANCH  17  24
BRANCH  22  25
ATOM     25  O   UNL     1      10.026  12.004  21.732  0.00  0.00    +0.000 OA
ATOM     26  C   UNL     1       8.735  12.326  22.225  0.00  0.00    +0.000 C 
ENDBRANCH  22  25
ENDBRANCH  15  20
ENDBRANCH   1  16
TORSDOF 5
ENDMDL
MODEL 3
REMARK VINA RESULT:      -7.8      1.073      1.073
REMARK  Name = 
REMARK  8 active torsions:
REMARK  status: ('A' for Active; 'I' for Inactive)
REMARK    1  A    between atoms: C_1  and  O_2
REMARK    2  A    between atoms: O_2  and  C_3
REMARK    3  A    between atoms: C_6  and  C_7
REMARK    4  A    between atoms: N_8  and  N_9
REMARK    5  A    between atoms: C_10  and  C_12
REMARK    6  A    between atoms: C_13  and  C_14
REMARK    7  A    between atoms: C_23  and  O_24
REMARK    8  A    between atoms: O_24  and  C_25
REMARK                            x       y       z     vdW  Elec       q    Type
REMARK                         _______ _______ _______ _____ _____    ______ ____
ROOT
ATOM      1  N   UNL     1       7.352   7.643  17.298  0.00  0.00    +0.000 N 
ATOM      2  C   UNL     1       7.198   6.412  17.921  0.00  0.00    +0.000 C 
ATOM      3  O   UNL     1       7.834   6.079  18.920  0.00  0.00    +0.000 OA
ATOM      4  H   UNL     1       6.736   7.920  16.545  0.00  0.00    +0.000 HD
ENDROOT
BRANCH   2   5
ATOM      5  C   UNL     1       6.199   5.561  17.318  0.00  0.00    +0.000 A 
ATOM      6  C   UNL     1       6.158   4.923  16.080  0.00  0.00    +0.000 A 
ATOM      7  C   UNL     1       7.145   4.881  14.974  0.00  0.00    +0.000 C 
ATOM      8  N   UNL     1       4.995   4.204  15.931  0.00  0.00    +0.000 NA
ATOM      9  C   UNL     1       4.336   4.360  17.054  0.00  0.00    +0.000 A 
ATOM     10  C   UNL     1       3.078   3.841  17.471  0.00  0.00    +0.000 A 
ATOM     11  C   UNL     1       2.585   4.163  18.682  0.00  0.00    +0.000 A 
ATOM     12  C   UNL     1       3.319   5.026  19.590  0.00  0.00    +0.000 A 
ATOM     13  C   UNL     1       4.514   5.509  19.208  0.00  0.00    +0.000 A 
ATOM     14  N   UNL     1       5.026   5.174  17.949  0.00  0.00    +0.000 N 
ENDBRANCH   2   5
BRANCH   1  16
ATOM     15  C   UNL     1       7.888   9.734  17.959  0.00  0.00    +0.000 C 
ATOM     16  N   UNL     1       8.285   8.519  17.757  0.00  0.00    +0.000 NA
BRANCH  15  20
ATOM     17  C   UNL     1      10.768  12.641  19.186  0.00  0.00    +0.000 A 
ATOM     18  C   UNL     1      10.661  11.415  19.862  0.00  0.00    +0.000 A 
ATOM     19  C   UNL     1       9.716  10.469  19.475  0.00  0.00    +0.000 A 
ATOM     20  C   UNL     1       8.836  10.759  18.434  0.00  0.00    +0.000 A 
ATOM     21  C   UNL     1       8.867  12.011  17.821  0.00  0.00    +0.000 A 
ATOM     22  C   UNL     1       9.826  12.967  18.194  0.00  0.00    +0.000 A 
BRANCH  17  24
ATOM     23  C   UNL     1      11.413  14.527  20.455  0.00  0.00    +0.000 C 
ATOM     24  O   UNL     1      11.766  13.523  19.500  0.00  0.00    +0.000 OA
ENDBRANCH  17  24
BRANCH  22  25
ATOM     25  O   UNL     1       9.704  14.124  17.471  0.00  0.00    +0.000 OA
ATOM     26  C   UNL     1       8.837  15.144  17.944  0.00  0.00    +0.000 C 
ENDBRANCH  22  25
ENDBRANCH  15  20
ENDBRANCH   1  16
TORSDOF 5
ENDMDL
MODEL 4
REMARK VINA RESULT:      -7.6      5.958      8.435
REMARK  Name = 
REMARK  8 active torsions:
REMARK  status: ('A' for Active; 'I' for Inactive)
REMARK    1  A    between atoms: C_1  and  O_2
REMARK    2  A    between atoms: O_2  and  C_3
REMARK    3  A    between atoms: C_6  and  C_7
REMARK    4  A    between atoms: N_8  and  N_9
REMARK    5  A    between atoms: C_10  and  C_12
REMARK    6  A    between atoms: C_13  and  C_14
REMARK    7  A    between atoms: C_23  and  O_24
REMARK    8  A    between atoms: O_24  and  C_25
REMARK                            x       y       z     vdW  Elec       q    Type
REMARK                         _______ _______ _______ _____ _____    ______ ____
ROOT
ATOM      1  N   UNL     1       2.390   6.893  20.260  0.00  0.00    +0.000 N 
ATOM      2  C   UNL     1       3.030   6.605  19.062  0.00  0.00    +0.000 C 
ATOM      3  O   UNL     1       3.118   7.409  18.135  0.00  0.00    +0.000 OA
ATOM      4  H   UNL     1       2.432   6.245  21.035  0.00  0.00    +0.000 HD
ENDROOT
BRANCH   2   5
ATOM      5  C   UNL     1       3.619   5.287  19.005  0.00  0.00    +0.000 A 
ATOM      6  C   UNL     1       4.945   4.868  19.069  0.00  0.00    +0.000 A 
ATOM      7  C   UNL     1       6.202   5.637  19.250  0.00  0.00    +0.000 C 
ATOM      8  N   UNL     1       5.038   3.499  18.975  0.00  0.00    +0.000 NA
ATOM      9  C   UNL     1       3.803   3.066  18.883  0.00  0.00    +0.000 A 
ATOM     10  C   UNL     1       3.290   1.743  18.771  0.00  0.00    +0.000 A 
ATOM     11  C   UNL     1       1.963   1.542  18.665  0.00  0.00    +0.000 A 
ATOM     12  C   UNL     1       1.029   2.655  18.676  0.00  0.00    +0.000 A 
ATOM     13  C   UNL     1       1.506   3.906  18.795  0.00  0.00    +0.000 A 
ATOM     14  N   UNL     1       2.886   4.114  18.906  0.00  0.00    +0.000 N 
ENDBRANCH   2   5
BRANCH   1  16
ATOM     15  C   UNL     1       0.919   8.177  21.393  0.00  0.00    +0.000 C 
ATOM     16  N   UNL     1       1.770   8.092  20.422  0.00  0.00    +0.000 NA
BRANCH  15  20
ATOM     17  C   UNL     1      -1.041  11.896  22.151  0.00  0.00    +0.000 A 
ATOM     18  C   UNL     1      -1.110  10.851  23.086  0.00  0.00    +0.000 A 
ATOM     19  C   UNL     1      -0.483   9.632  22.839  0.00  0.00    +0.000 A 
ATOM     20  C   UNL     1       0.181   9.431  21.631  0.00  0.00    +0.000 A 
ATOM     21  C   UNL     1       0.171  10.426  20.654  0.00  0.00    +0.000 A 
ATOM     22  C   UNL     1      -0.445  11.664  20.899  0.00  0.00    +0.000 A 
BRANCH  17  24
ATOM     23  C   UNL     1      -2.981  13.240  22.266  0.00  0.00    +0.000 C 
ATOM     24  O   UNL     1      -1.567  13.126  22.443  0.00  0.00    +0.000 OA
ENDBRANCH  17  24
BRANCH  22  25
ATOM     25  O   UNL     1      -0.338  12.510  19.827  0.00  0.00    +0.000 OA
ATOM     26  C   UNL     1      -1.182  12.311  18.704  0.00  0.00    +0.000 C 
ENDBRANCH  22  25
ENDBRANCH  15  20
ENDBRANCH   1  16
TORSDOF 5
ENDMDL
MODEL 5
REMARK VINA RESULT:      -7.5      5.839      8.753
REMARK  Name = 
REMARK  8 active torsions:
REMARK  status: ('A' for Active; 'I' for Inactive)
REMARK    1  A    between atoms: C_1  and  O_2
REMARK    2  A    between atoms: O_2  and  C_3
REMARK    3  A    between atoms: C_6  and  C_7
REMARK    4  A    between atoms: N_8  and  N_9
REMARK    5  A    between atoms: C_10  and  C_12
REMARK    6  A    between atoms: C_13  and  C_14
REMARK    7  A    between atoms: C_23  and  O_24
REMARK    8  A    between atoms: O_24  and  C_25
REMARK                            x       y       z     vdW  Elec       q    Type
REMARK                         _______ _______ _______ _____ _____    ______ ____
ROOT
ATOM      1  N   UNL     1       2.471   7.112  19.580  0.00  0.00    +0.000 N 
ATOM      2  C   UNL     1       2.870   7.122  18.250  0.00  0.00    +0.000 C 
ATOM      3  O   UNL     1       2.770   8.110  17.524  0.00  0.00    +0.000 OA
ATOM      4  H   UNL     1       2.667   6.316  20.171  0.00  0.00    +0.000 HD
ENDROOT
BRANCH   2   5
ATOM      5  C   UNL     1       3.450   5.880  17.795  0.00  0.00    +0.000 A 
ATOM      6  C   UNL     1       2.897   4.613  17.624  0.00  0.00    +0.000 A 
ATOM      7  C   UNL     1       1.512   4.120  17.828  0.00  0.00    +0.000 C 
ATOM      8  N   UNL     1       3.834   3.720  17.160  0.00  0.00    +0.000 NA
ATOM      9  C   UNL     1       4.939   4.412  17.013  0.00  0.00    +0.000 A 
ATOM     10  C   UNL     1       6.228   4.016  16.557  0.00  0.00    +0.000 A 
ATOM     11  C   UNL     1       7.232   4.912  16.513  0.00  0.00    +0.000 A 
ATOM     12  C   UNL     1       7.027   6.294  16.913  0.00  0.00    +0.000 A 
ATOM     13  C   UNL     1       5.809   6.678  17.332  0.00  0.00    +0.000 A 
ATOM     14  N   UNL     1       4.766   5.745  17.377  0.00  0.00    +0.000 N 
ENDBRANCH   2   5
BRANCH   1  16
ATOM     15  C   UNL     1       0.807   8.018  20.808  0.00  0.00    +0.000 C 
ATOM     16  N   UNL     1       1.882   8.215  20.115  0.00  0.00    +0.000 NA
BRANCH  15  20
ATOM     17  C   UNL     1      -1.096  11.413  22.566  0.00  0.00    +0.000 A 
ATOM     18  C   UNL     1      -0.787  10.288  23.346  0.00  0.00    +0.000 A 
ATOM     19  C   UNL     1      -0.178   9.173  22.776  0.00  0.00    +0.000 A 
ATOM     20  C   UNL     1       0.087   9.156  21.408  0.00  0.00    +0.000 A 
ATOM     21  C   UNL     1      -0.305  10.228  20.607  0.00  0.00    +0.000 A 
ATOM     22  C   UNL     1      -0.907  11.363  21.174  0.00  0.00    +0.000 A 
BRANCH  17  24
ATOM     23  C   UNL     1      -3.009  12.545  23.369  0.00  0.00    +0.000 C 
ATOM     24  O   UNL     1      -1.596  12.547  23.149  0.00  0.00    +0.000 OA
ENDBRANCH  17  24
BRANCH  22  25
ATOM     25  O   UNL     1      -1.207  12.309  20.230  0.00  0.00    +0.000 OA
ATOM     26  C   UNL     1      -2.347  12.124  19.406  0.00  0.00    +0.000 C 
ENDBRANCH  22  25
ENDBRANCH  15  20
ENDBRANCH   1  16
TORSDOF 5
ENDMDL
MODEL 6
REMARK VINA RESULT:      -7.4      5.496      8.619
REMARK  Name = 
REMARK  8 active torsions:
REMARK  status: ('A' for Active; 'I' for Inactive)
REMARK    1  A    between atoms: C_1  and  O_2
REMARK    2  A    between atoms: O_2  and  C_3
REMARK    3  A    between atoms: C_6  and  C_7
REMARK    4  A    between atoms: N_8  and  N_9
REMARK    5  A    between atoms: C_10  and  C_12
REMARK    6  A    between atoms: C_13  and  C_14
REMARK    7  A    between atoms: C_23  and  O_24
REMARK    8  A    between atoms: O_24  and  C_25
REMARK                            x       y       z     vdW  Elec       q    Type
REMARK                         _______ _______ _______ _____ _____    ______ ____
ROOT
ATOM      1  N   UNL     1       1.450   8.916  18.679  0.00  0.00    +0.000 N 
ATOM      2  C   UNL     1       1.495  10.303  18.661  0.00  0.00    +0.000 C 
ATOM      3  O   UNL     1       2.293  10.942  17.977  0.00  0.00    +0.000 OA
ATOM      4  H   UNL     1       0.711   8.430  19.170  0.00  0.00    +0.000 HD
ENDROOT
BRANCH   2   5
ATOM      5  C   UNL     1       0.497  10.941  19.487  0.00  0.00    +0.000 A 
ATOM      6  C   UNL     1      -0.381  11.990  19.227  0.00  0.00    +0.000 A 
ATOM      7  C   UNL     1      -0.606  12.789  17.997  0.00  0.00    +0.000 C 
ATOM      8  N   UNL     1      -1.165  12.266  20.323  0.00  0.00    +0.000 NA
ATOM      9  C   UNL     1      -0.811  11.395  21.238  0.00  0.00    +0.000 A 
ATOM     10  C   UNL     1      -1.288  11.199  22.565  0.00  0.00    +0.000 A 
ATOM     11  C   UNL     1      -0.748  10.239  23.339  0.00  0.00    +0.000 A 
ATOM     12  C   UNL     1       0.314   9.379  22.845  0.00  0.00    +0.000 A 
ATOM     13  C   UNL     1       0.759   9.550  21.588  0.00  0.00    +0.000 A 
ATOM     14  N   UNL     1       0.197  10.548  20.783  0.00  0.00    +0.000 N 
ENDBRANCH   2   5
BRANCH   1  16
ATOM     15  C   UNL     1       2.780   7.100  18.498  0.00  0.00    +0.000 C 
ATOM     16  N   UNL     1       2.360   8.202  17.965  0.00  0.00    +0.000 NA
BRANCH  15  20
ATOM     17  C   UNL     1       5.620   4.775  16.314  0.00  0.00    +0.000 A 
ATOM     18  C   UNL     1       4.415   4.202  16.749  0.00  0.00    +0.000 A 
ATOM     19  C   UNL     1       3.491   4.951  17.473  0.00  0.00    +0.000 A 
ATOM     20  C   UNL     1       3.785   6.272  17.807  0.00  0.00    +0.000 A 
ATOM     21  C   UNL     1       5.020   6.821  17.466  0.00  0.00    +0.000 A 
ATOM     22  C   UNL     1       5.953   6.079  16.724  0.00  0.00    +0.000 A 
BRANCH  17  24
ATOM     23  C   UNL     1       6.141   4.058  14.123  0.00  0.00    +0.000 C 
ATOM     24  O   UNL     1       6.477   4.069  15.513  0.00  0.00    +0.000 OA
ENDBRANCH  17  24
BRANCH  22  25
ATOM     25  O   UNL     1       7.096   6.792  16.478  0.00  0.00    +0.000 OA
ATOM     26  C   UNL     1       7.598   7.658  17.483  0.00  0.00    +0.000 C 
ENDBRANCH  22  25
ENDBRANCH  15  20
ENDBRANCH   1  16
TORSDOF 5
ENDMDL
MODEL 7
REMARK VINA RESULT:      -7.3      5.906      8.360
REMARK  Name = 
REMARK  8 active torsions:
REMARK  status: ('A' for Active; 'I' for Inactive)
REMARK    1  A    between atoms: C_1  and  O_2
REMARK    2  A    between atoms: O_2  and  C_3
REMARK    3  A    between atoms: C_6  and  C_7
REMARK    4  A    between atoms: N_8  and  N_9
REMARK    5  A    between atoms: C_10  and  C_12
REMARK    6  A    between atoms: C_13  and  C_14
REMARK    7  A    between atoms: C_23  and  O_24
REMARK    8  A    between atoms: O_24  and  C_25
REMARK                            x       y       z     vdW  Elec       q    Type
REMARK                         _______ _______ _______ _____ _____    ______ ____
ROOT
ATOM      1  N   UNL     1       2.244   7.408  19.382  0.00  0.00    +0.000 N 
ATOM      2  C   UNL     1       2.786   7.369  18.105  0.00  0.00    +0.000 C 
ATOM      3  O   UNL     1       2.741   8.319  17.325  0.00  0.00    +0.000 OA
ATOM      4  H   UNL     1       2.394   6.646  20.029  0.00  0.00    +0.000 HD
ENDROOT
BRANCH   2   5
ATOM      5  C   UNL     1       3.445   6.126  17.776  0.00  0.00    +0.000 A 
ATOM      6  C   UNL     1       2.951   4.831  17.637  0.00  0.00    +0.000 A 
ATOM      7  C   UNL     1       1.572   4.297  17.753  0.00  0.00    +0.000 C 
ATOM      8  N   UNL     1       3.955   3.950  17.309  0.00  0.00    +0.000 NA
ATOM      9  C   UNL     1       5.044   4.674  17.213  0.00  0.00    +0.000 A 
ATOM     10  C   UNL     1       6.380   4.302  16.892  0.00  0.00    +0.000 A 
ATOM     11  C   UNL     1       7.353   5.233  16.877  0.00  0.00    +0.000 A 
ATOM     12  C   UNL     1       7.068   6.627  17.174  0.00  0.00    +0.000 A 
ATOM     13  C   UNL     1       5.807   6.987  17.465  0.00  0.00    +0.000 A 
ATOM     14  N   UNL     1       4.795   6.019  17.479  0.00  0.00    +0.000 N 
ENDBRANCH   2   5
BRANCH   1  16
ATOM     15  C   UNL     1       1.182   8.528  21.030  0.00  0.00    +0.000 C 
ATOM     16  N   UNL     1       1.571   8.514  19.796  0.00  0.00    +0.000 NA
BRANCH  15  20
ATOM     17  C   UNL     1      -0.849  11.895  22.697  0.00  0.00    +0.000 A 
ATOM     18  C   UNL     1      -1.124  10.598  23.158  0.00  0.00    +0.000 A 
ATOM     19  C   UNL     1      -0.475   9.495  22.609  0.00  0.00    +0.000 A 
ATOM     20  C   UNL     1       0.425   9.676  21.561  0.00  0.00    +0.000 A 
ATOM     21  C   UNL     1       0.632  10.949  21.029  0.00  0.00    +0.000 A 
ATOM     22  C   UNL     1      -0.007  12.069  21.585  0.00  0.00    +0.000 A 
BRANCH  17  24
ATOM     23  C   UNL     1      -2.803  13.174  23.055  0.00  0.00    +0.000 C 
ATOM     24  O   UNL     1      -1.409  12.984  23.310  0.00  0.00    +0.000 OA
ENDBRANCH  17  24
BRANCH  22  25
ATOM     25  O   UNL     1       0.332  13.226  20.936  0.00  0.00    +0.000 OA
ATOM     26  C   UNL     1       1.400  13.205  20.001  0.00  0.00    +0.000 C 
ENDBRANCH  22  25
ENDBRANCH  15  20
ENDBRANCH   1  16
TORSDOF 5
ENDMDL
MODEL 8
REMARK VINA RESULT:      -7.3      5.897      8.719
REMARK  Name = 
REMARK  8 active torsions:
REMARK  status: ('A' for Active; 'I' for Inactive)
REMARK    1  A    between atoms: C_1  and  O_2
REMARK    2  A    between atoms: O_2  and  C_3
REMARK    3  A    between atoms: C_6  and  C_7
REMARK    4  A    between atoms: N_8  and  N_9
REMARK    5  A    between atoms: C_10  and  C_12
REMARK    6  A    between atoms: C_13  and  C_14
REMARK    7  A    between atoms: C_23  and  O_24
REMARK    8  A    between atoms: O_24  and  C_25
REMARK                            x       y       z     vdW  Elec       q    Type
REMARK                         _______ _______ _______ _____ _____    ______ ____
ROOT
ATOM      1  N   UNL     1       2.377   6.556  20.584  0.00  0.00    +0.000 N 
ATOM      2  C   UNL     1       2.648   6.213  19.266  0.00  0.00    +0.000 C 
ATOM      3  O   UNL     1       2.008   6.652  18.311  0.00  0.00    +0.000 OA
ATOM      4  H   UNL     1       2.992   6.259  21.330  0.00  0.00    +0.000 HD
ENDROOT
BRANCH   2   5
ATOM      5  C   UNL     1       3.773   5.322  19.102  0.00  0.00    +0.000 A 
ATOM      6  C   UNL     1       3.989   4.020  19.546  0.00  0.00    +0.000 A 
ATOM      7  C   UNL     1       3.117   3.097  20.314  0.00  0.00    +0.000 C 
ATOM      8  N   UNL     1       5.221   3.557  19.148  0.00  0.00    +0.000 NA
ATOM      9  C   UNL     1       5.754   4.530  18.448  0.00  0.00    +0.000 A 
ATOM     10  C   UNL     1       7.011   4.613  17.783  0.00  0.00    +0.000 A 
ATOM     11  C   UNL     1       7.356   5.742  17.136  0.00  0.00    +0.000 A 
ATOM     12  C   UNL     1       6.464   6.888  17.089  0.00  0.00    +0.000 A 
ATOM     13  C   UNL     1       5.271   6.811  17.703  0.00  0.00    +0.000 A 
ATOM     14  N   UNL     1       4.912   5.636  18.375  0.00  0.00    +0.000 N 
ENDBRANCH   2   5
BRANCH   1  16
ATOM     15  C   UNL     1       1.600   8.585  21.197  0.00  0.00    +0.000 C 
ATOM     16  N   UNL     1       1.322   7.365  20.868  0.00  0.00    +0.000 NA
BRANCH  15  20
ATOM     17  C   UNL     1      -1.377  11.459  22.253  0.00  0.00    +0.000 A 
ATOM     18  C   UNL     1      -0.991  10.466  23.167  0.00  0.00    +0.000 A 
ATOM     19  C   UNL     1      -0.031   9.518  22.823  0.00  0.00    +0.000 A 
ATOM     20  C   UNL     1       0.522   9.529  21.544  0.00  0.00    +0.000 A 
ATOM     21  C   UNL     1       0.074  10.449  20.597  0.00  0.00    +0.000 A 
ATOM     22  C   UNL     1      -0.884  11.417  20.937  0.00  0.00    +0.000 A 
BRANCH  17  24
ATOM     23  C   UNL     1      -1.661  13.505  23.400  0.00  0.00    +0.000 C 
ATOM     24  O   UNL     1      -2.242  12.451  22.629  0.00  0.00    +0.000 OA
ENDBRANCH  17  24
BRANCH  22  25
ATOM     25  O   UNL     1      -1.184  12.235  19.880  0.00  0.00    +0.000 OA
ATOM     26  C   UNL     1      -2.205  11.845  18.975  0.00  0.00    +0.000 C 
ENDBRANCH  22  25
ENDBRANCH  15  20
ENDBRANCH   1  16
TORSDOF 5
ENDMDL
MODEL 9
REMARK VINA RESULT:      -7.3      1.263      3.208
REMARK  Name = 
REMARK  8 active torsions:
REMARK  status: ('A' for Active; 'I' for Inactive)
REMARK    1  A    between atoms: C_1  and  O_2
REMARK    2  A    between atoms: O_2  and  C_3
REMARK    3  A    between atoms: C_6  and  C_7
REMARK    4  A    between atoms: N_8  and  N_9
REMARK    5  A    between atoms: C_10  and  C_12
REMARK    6  A    between atoms: C_13  and  C_14
REMARK    7  A    between atoms: C_23  and  O_24
REMARK    8  A    between atoms: O_24  and  C_25
REMARK                            x       y       z     vdW  Elec       q    Type
REMARK                         _______ _______ _______ _____ _____    ______ ____
ROOT
ATOM      1  N   UNL     1       7.577   7.656  17.558  0.00  0.00    +0.000 N 
ATOM      2  C   UNL     1       7.369   6.412  18.139  0.00  0.00    +0.000 C 
ATOM      3  O   UNL     1       8.005   6.009  19.111  0.00  0.00    +0.000 OA
ATOM      4  H   UNL     1       6.963   7.994  16.829  0.00  0.00    +0.000 HD
ENDROOT
BRANCH   2   5
ATOM      5  C   UNL     1       6.315   5.639  17.526  0.00  0.00    +0.000 A 
ATOM      6  C   UNL     1       5.077   5.223  18.010  0.00  0.00    +0.000 A 
ATOM      7  C   UNL     1       4.412   5.461  19.315  0.00  0.00    +0.000 C 
ATOM      8  N   UNL     1       4.391   4.499  17.063  0.00  0.00    +0.000 NA
ATOM      9  C   UNL     1       5.162   4.485  16.002  0.00  0.00    +0.000 A 
ATOM     10  C   UNL     1       4.966   3.895  14.721  0.00  0.00    +0.000 A 
ATOM     11  C   UNL     1       5.925   3.994  13.781  0.00  0.00    +0.000 A 
ATOM     12  C   UNL     1       7.164   4.708  14.039  0.00  0.00    +0.000 A 
ATOM     13  C   UNL     1       7.350   5.278  15.242  0.00  0.00    +0.000 A 
ATOM     14  N   UNL     1       6.352   5.175  16.219  0.00  0.00    +0.000 N 
ENDBRANCH   2   5
BRANCH   1  16
ATOM     15  C   UNL     1       8.266   9.713  18.183  0.00  0.00    +0.000 C 
ATOM     16  N   UNL     1       8.564   8.464  18.028  0.00  0.00    +0.000 NA
BRANCH  15  20
ATOM     17  C   UNL     1      11.068  12.636  19.541  0.00  0.00    +0.000 A 
ATOM     18  C   UNL     1      11.148  12.127  18.235  0.00  0.00    +0.000 A 
ATOM     19  C   UNL     1      10.245  11.164  17.791  0.00  0.00    +0.000 A 
ATOM     20  C   UNL     1       9.280  10.669  18.665  0.00  0.00    +0.000 A 
ATOM     21  C   UNL     1       9.254  11.095  19.993  0.00  0.00    +0.000 A 
ATOM     22  C   UNL     1      10.151  12.075  20.447  0.00  0.00    +0.000 A 
BRANCH  17  24
ATOM     23  C   UNL     1      11.294  14.957  19.924  0.00  0.00    +0.000 C 
ATOM     24  O   UNL     1      11.889  13.657  19.940  0.00  0.00    +0.000 OA
ENDBRANCH  17  24
BRANCH  22  25
ATOM     25  O   UNL     1       9.962  12.369  21.772  0.00  0.00    +0.000 OA
ATOM     26  C   UNL     1       8.655  12.277  22.318  0.00  0.00    +0.000 C 
ENDBRANCH  22  25
ENDBRANCH  15  20
ENDBRANCH   1  16
TORSDOF 5
ENDMDL
