MODEL 1
REMARK VINA RESULT:      -7.2      0.000      0.000
REMARK  Name = 
REMARK  4 active torsions:
REMARK  status: ('A' for Active; 'I' for Inactive)
REMARK    1  A    between atoms: C_1  and  C_2
REMARK    2  A    between atoms: C_2  and  C_4
REMARK    3  A    between atoms: C_15  and  C_16
REMARK    4  A    between atoms: C_16  and  C_17
REMARK                            x       y       z     vdW  Elec       q    Type
REMARK                         _______ _______ _______ _____ _____    ______ ____
ROOT
ATOM      1  C   UNL     1       6.306   4.630  14.882  0.00  0.00    +0.000 A 
ATOM      2  C   UNL     1       5.960   3.296  15.134  0.00  0.00    +0.000 A 
ATOM      3  C   UNL     1       5.039   2.984  16.143  0.00  0.00    +0.000 A 
ATOM      4  C   UNL     1       4.450   3.999  16.914  0.00  0.00    +0.000 A 
ATOM      5  C   UNL     1       4.797   5.334  16.664  0.00  0.00    +0.000 A 
ATOM      6  C   UNL     1       5.722   5.644  15.653  0.00  0.00    +0.000 A 
ATOM      7  C   UNL     1       4.189   6.437  17.449  0.00  0.00    +0.000 C 
ATOM      8  O   UNL     1       4.496   7.596  17.195  0.00  0.00    +0.000 OA
ATOM      9  C   UNL     1       3.258   6.030  18.478  0.00  0.00    +0.000 A 
ATOM     10  S   UNL     1       2.490   7.178  19.459  0.00  0.00    +0.000 S 
ATOM     11  C   UNL     1       1.654   5.963  20.308  0.00  0.00    +0.000 A 
ATOM     12  C   UNL     1       1.937   4.681  19.860  0.00  0.00    +0.000 A 
ATOM     13  C   UNL     1       2.890   4.727  18.763  0.00  0.00    +0.000 A 
ATOM     14  C   UNL     1       3.441   3.636  17.958  0.00  0.00    +0.000 C 
ATOM     15  O   UNL     1       3.087   2.468  18.055  0.00  0.00    +0.000 OA
ENDROOT
BRANCH   1  17
ATOM     16  C   UNL     1       7.052   4.536  12.405  0.00  0.00    +0.000 C 
ATOM     17  C   UNL     1       7.273   5.025  13.814  0.00  0.00    +0.000 C 
ATOM     18  O   UNL     1       8.230   5.745  14.092  0.00  0.00    +0.000 OA
ENDBRANCH   1  17
BRANCH  12  19
ATOM     19  C   UNL     1       1.343   3.489  20.487  0.00  0.00    +0.000 C 
ATOM     20  C   UNL     1       1.927   2.964  21.781  0.00  0.00    +0.000 C 
ATOM     21  O   UNL     1       0.415   2.881  19.959  0.00  0.00    +0.000 OA
ENDBRANCH  12  19
TORSDOF 2
ENDMDL
MODEL 2
REMARK VINA RESULT:      -7.1      2.787      7.223
REMARK  Name = 
REMARK  4 active torsions:
REMARK  status: ('A' for Active; 'I' for Inactive)
REMARK    1  A    between atoms: C_1  and  C_2
REMARK    2  A    between atoms: C_2  and  C_4
REMARK    3  A    between atoms: C_15  and  C_16
REMARK    4  A    between atoms: C_16  and  C_17
REMARK                            x       y       z     vdW  Elec       q    Type
REMARK                         _______ _______ _______ _____ _____    ______ ____
ROOT
ATOM      1  C   UNL     1       0.736   8.728  20.671  0.00  0.00    +0.000 A 
ATOM      2  C   UNL     1       1.064   9.471  19.529  0.00  0.00    +0.000 A 
ATOM      3  C   UNL     1       1.939   8.941  18.570  0.00  0.00    +0.000 A 
ATOM      4  C   UNL     1       2.496   7.664  18.736  0.00  0.00    +0.000 A 
ATOM      5  C   UNL     1       2.169   6.921  19.880  0.00  0.00    +0.000 A 
ATOM      6  C   UNL     1       1.294   7.454  20.840  0.00  0.00    +0.000 A 
ATOM      7  C   UNL     1       2.729   5.562  20.088  0.00  0.00    +0.000 C 
ATOM      8  O   UNL     1       2.410   4.927  21.086  0.00  0.00    +0.000 OA
ATOM      9  C   UNL     1       3.630   5.095  19.058  0.00  0.00    +0.000 A 
ATOM     10  S   UNL     1       4.351   3.565  19.163  0.00  0.00    +0.000 S 
ATOM     11  C   UNL     1       5.175   3.800  17.692  0.00  0.00    +0.000 A 
ATOM     12  C   UNL     1       4.912   5.028  17.102  0.00  0.00    +0.000 A 
ATOM     13  C   UNL     1       3.985   5.794  17.918  0.00  0.00    +0.000 A 
ATOM     14  C   UNL     1       3.396   7.111  17.675  0.00  0.00    +0.000 C 
ATOM     15  O   UNL     1       3.554   7.752  16.644  0.00  0.00    +0.000 OA
ENDROOT
BRANCH   1  17
ATOM     16  C   UNL     1      -0.306  10.720  21.954  0.00  0.00    +0.000 C 
ATOM     17  C   UNL     1      -0.197   9.234  21.722  0.00  0.00    +0.000 C 
ATOM     18  O   UNL     1      -0.865   8.439  22.380  0.00  0.00    +0.000 OA
ENDBRANCH   1  17
BRANCH  12  19
ATOM     19  C   UNL     1       5.555   5.439  15.843  0.00  0.00    +0.000 C 
ATOM     20  C   UNL     1       5.422   4.556  14.621  0.00  0.00    +0.000 C 
ATOM     21  O   UNL     1       6.238   6.458  15.773  0.00  0.00    +0.000 OA
ENDBRANCH  12  19
TORSDOF 2
ENDMDL
MODEL 3
REMARK VINA RESULT:      -6.9      2.870      6.867
REMARK  Name = 
REMARK  4 active torsions:
REMARK  status: ('A' for Active; 'I' for Inactive)
REMARK    1  A    between atoms: C_1  and  C_2
REMARK    2  A    between atoms: C_2  and  C_4
REMARK    3  A    between atoms: C_15  and  C_16
REMARK    4  A    between atoms: C_16  and  C_17
REMARK                            x       y       z     vdW  Elec       q    Type
REMARK                         _______ _______ _______ _____ _____    ______ ____
ROOT
ATOM      1  C   UNL     1       0.994   8.969  20.152  0.00  0.00    +0.000 A 
ATOM      2  C   UNL     1       1.563   9.486  18.981  0.00  0.00    +0.000 A 
ATOM      3  C   UNL     1       2.428   8.697  18.209  0.00  0.00    +0.000 A 
ATOM      4  C   UNL     1       2.734   7.382  18.594  0.00  0.00    +0.000 A 
ATOM      5  C   UNL     1       2.167   6.866  19.767  0.00  0.00    +0.000 A 
ATOM      6  C   UNL     1       1.302   7.658  20.541  0.00  0.00    +0.000 A 
ATOM      7  C   UNL     1       2.457   5.477  20.204  0.00  0.00    +0.000 C 
ATOM      8  O   UNL     1       1.931   5.045  21.223  0.00  0.00    +0.000 OA
ATOM      9  C   UNL     1       3.366   4.735  19.358  0.00  0.00    +0.000 A 
ATOM     10  S   UNL     1       3.796   3.140  19.733  0.00  0.00    +0.000 S 
ATOM     11  C   UNL     1       4.797   3.037  18.360  0.00  0.00    +0.000 A 
ATOM     12  C   UNL     1       4.813   4.197  17.601  0.00  0.00    +0.000 A 
ATOM     13  C   UNL     1       3.953   5.206  18.197  0.00  0.00    +0.000 A 
ATOM     14  C   UNL     1       3.630   6.553  17.728  0.00  0.00    +0.000 C 
ATOM     15  O   UNL     1       4.003   7.013  16.656  0.00  0.00    +0.000 OA
ENDROOT
BRANCH   1  17
ATOM     16  C   UNL     1      -0.137   9.349  22.449  0.00  0.00    +0.000 C 
ATOM     17  C   UNL     1       0.059   9.756  21.011  0.00  0.00    +0.000 C 
ATOM     18  O   UNL     1      -0.535  10.724  20.540  0.00  0.00    +0.000 OA
ENDBRANCH   1  17
BRANCH  12  19
ATOM     19  C   UNL     1       5.645   4.323  16.392  0.00  0.00    +0.000 C 
ATOM     20  C   UNL     1       7.118   4.640  16.536  0.00  0.00    +0.000 C 
ATOM     21  O   UNL     1       5.160   4.226  15.267  0.00  0.00    +0.000 OA
ENDBRANCH  12  19
TORSDOF 2
ENDMDL
MODEL 4
REMARK VINA RESULT:      -6.9      3.002      6.375
REMARK  Name = 
REMARK  4 active torsions:
REMARK  status: ('A' for Active; 'I' for Inactive)
REMARK    1  A    between atoms: C_1  and  C_2
REMARK    2  A    between atoms: C_2  and  C_4
REMARK    3  A    between atoms: C_15  and  C_16
REMARK    4  A    between atoms: C_16  and  C_17
REMARK                            x       y       z     vdW  Elec       q    Type
REMARK                         _______ _______ _______ _____ _____    ______ ____
ROOT
ATOM      1  C   UNL     1       0.785   9.343  20.247  0.00  0.00    +0.000 A 
ATOM      2  C   UNL     1       0.565   8.364  21.223  0.00  0.00    +0.000 A 
ATOM      3  C   UNL     1       1.175   7.106  21.111  0.00  0.00    +0.000 A 
ATOM      4  C   UNL     1       2.013   6.810  20.024  0.00  0.00    +0.000 A 
ATOM      5  C   UNL     1       2.231   7.790  19.045  0.00  0.00    +0.000 A 
ATOM      6  C   UNL     1       1.618   9.049  19.159  0.00  0.00    +0.000 A 
ATOM      7  C   UNL     1       3.118   7.521  17.886  0.00  0.00    +0.000 C 
ATOM      8  O   UNL     1       3.308   8.403  17.057  0.00  0.00    +0.000 OA
ATOM      9  C   UNL     1       3.698   6.197  17.840  0.00  0.00    +0.000 A 
ATOM     10  S   UNL     1       4.727   5.743  16.572  0.00  0.00    +0.000 S 
ATOM     11  C   UNL     1       4.932   4.188  17.232  0.00  0.00    +0.000 A 
ATOM     12  C   UNL     1       4.236   3.994  18.416  0.00  0.00    +0.000 A 
ATOM     13  C   UNL     1       3.506   5.199  18.778  0.00  0.00    +0.000 A 
ATOM     14  C   UNL     1       2.679   5.472  19.953  0.00  0.00    +0.000 C 
ATOM     15  O   UNL     1       2.547   4.698  20.892  0.00  0.00    +0.000 OA
ENDROOT
BRANCH   1  17
ATOM     16  C   UNL     1      -1.059  10.998  19.498  0.00  0.00    +0.000 C 
ATOM     17  C   UNL     1       0.173  10.704  20.316  0.00  0.00    +0.000 C 
ATOM     18  O   UNL     1       0.674  11.564  21.039  0.00  0.00    +0.000 OA
ENDBRANCH   1  17
BRANCH  12  19
ATOM     19  C   UNL     1       4.254   2.706  19.127  0.00  0.00    +0.000 C 
ATOM     20  C   UNL     1       3.328   1.597  18.675  0.00  0.00    +0.000 C 
ATOM     21  O   UNL     1       4.968   2.524  20.111  0.00  0.00    +0.000 OA
ENDBRANCH  12  19
TORSDOF 2
ENDMDL
MODEL 5
REMARK VINA RESULT:      -6.7      4.256      6.135
REMARK  Name = 
REMARK  4 active torsions:
REMARK  status: ('A' for Active; 'I' for Inactive)
REMARK    1  A    between atoms: C_1  and  C_2
REMARK    2  A    between atoms: C_2  and  C_4
REMARK    3  A    between atoms: C_15  and  C_16
REMARK    4  A    between atoms: C_16  and  C_17
REMARK                            x       y       z     vdW  Elec       q    Type
REMARK                         _______ _______ _______ _____ _____    ______ ____
ROOT
ATOM      1  C   UNL     1       3.049   5.974  18.443  0.00  0.00    +0.000 A 
ATOM      2  C   UNL     1       2.591   5.528  19.689  0.00  0.00    +0.000 A 
ATOM      3  C   UNL     1       1.869   6.390  20.527  0.00  0.00    +0.000 A 
ATOM      4  C   UNL     1       1.592   7.708  20.131  0.00  0.00    +0.000 A 
ATOM      5  C   UNL     1       2.052   8.156  18.884  0.00  0.00    +0.000 A 
ATOM      6  C   UNL     1       2.777   7.291  18.048  0.00  0.00    +0.000 A 
ATOM      7  C   UNL     1       1.772   9.539  18.424  0.00  0.00    +0.000 C 
ATOM      8  O   UNL     1       2.168   9.897  17.322  0.00  0.00    +0.000 OA
ATOM      9  C   UNL     1       1.031  10.366  19.351  0.00  0.00    +0.000 A 
ATOM     10  S   UNL     1       0.644  11.970  18.966  0.00  0.00    +0.000 S 
ATOM     11  C   UNL     1      -0.148  12.186  20.457  0.00  0.00    +0.000 A 
ATOM     12  C   UNL     1      -0.136  11.054  21.258  0.00  0.00    +0.000 A 
ATOM     13  C   UNL     1       0.564   9.968  20.591  0.00  0.00    +0.000 A 
ATOM     14  C   UNL     1       0.786   8.591  21.031  0.00  0.00    +0.000 C 
ATOM     15  O   UNL     1       0.310   8.114  22.053  0.00  0.00    +0.000 OA
ENDROOT
BRANCH   1  17
ATOM     16  C   UNL     1       4.823   5.728  16.575  0.00  0.00    +0.000 C 
ATOM     17  C   UNL     1       3.814   5.101  17.504  0.00  0.00    +0.000 C 
ATOM     18  O   UNL     1       3.617   3.887  17.500  0.00  0.00    +0.000 OA
ENDBRANCH   1  17
BRANCH  12  19
ATOM     19  C   UNL     1      -0.736  11.046  22.602  0.00  0.00    +0.000 C 
ATOM     20  C   UNL     1      -2.046  11.768  22.833  0.00  0.00    +0.000 C 
ATOM     21  O   UNL     1      -0.174  10.508  23.554  0.00  0.00    +0.000 OA
ENDBRANCH  12  19
TORSDOF 2
ENDMDL
MODEL 6
REMARK VINA RESULT:      -6.6      3.758      6.100
REMARK  Name = 
REMARK  4 active torsions:
REMARK  status: ('A' for Active; 'I' for Inactive)
REMARK    1  A    between atoms: C_1  and  C_2
REMARK    2  A    between atoms: C_2  and  C_4
REMARK    3  A    between atoms: C_15  and  C_16
REMARK    4  A    between atoms: C_16  and  C_17
REMARK                            x       y       z     vdW  Elec       q    Type
REMARK                         _______ _______ _______ _____ _____    ______ ____
ROOT
ATOM      1  C   UNL     1       3.909   5.505  18.367  0.00  0.00    +0.000 A 
ATOM      2  C   UNL     1       4.065   6.389  17.293  0.00  0.00    +0.000 A 
ATOM      3  C   UNL     1       3.393   7.620  17.287  0.00  0.00    +0.000 A 
ATOM      4  C   UNL     1       2.557   7.984  18.355  0.00  0.00    +0.000 A 
ATOM      5  C   UNL     1       2.398   7.098  19.429  0.00  0.00    +0.000 A 
ATOM      6  C   UNL     1       3.071   5.865  19.432  0.00  0.00    +0.000 A 
ATOM      7  C   UNL     1       1.532   7.450  20.582  0.00  0.00    +0.000 C 
ATOM      8  O   UNL     1       1.428   6.665  21.517  0.00  0.00    +0.000 OA
ATOM      9  C   UNL     1       0.867   8.731  20.493  0.00  0.00    +0.000 A 
ATOM     10  S   UNL     1      -0.159   9.265  21.732  0.00  0.00    +0.000 S 
ATOM     11  C   UNL     1      -0.485  10.714  20.901  0.00  0.00    +0.000 A 
ATOM     12  C   UNL     1       0.178  10.817  19.688  0.00  0.00    +0.000 A 
ATOM     13  C   UNL     1       0.989   9.633  19.452  0.00  0.00    +0.000 A 
ATOM     14  C   UNL     1       1.884   9.321  18.337  0.00  0.00    +0.000 C 
ATOM     15  O   UNL     1       2.149  10.102  17.433  0.00  0.00    +0.000 OA
ENDROOT
BRANCH   1  17
ATOM     16  C   UNL     1       4.008   3.001  17.718  0.00  0.00    +0.000 C 
ATOM     17  C   UNL     1       4.606   4.186  18.435  0.00  0.00    +0.000 C 
ATOM     18  O   UNL     1       5.655   4.080  19.067  0.00  0.00    +0.000 OA
ENDBRANCH   1  17
BRANCH  12  19
ATOM     19  C   UNL     1       0.003  11.978  18.801  0.00  0.00    +0.000 C 
ATOM     20  C   UNL     1      -1.296  12.140  18.040  0.00  0.00    +0.000 C 
ATOM     21  O   UNL     1       0.904  12.795  18.626  0.00  0.00    +0.000 OA
ENDBRANCH  12  19
TORSDOF 2
ENDMDL
MODEL 7
REMARK VINA RESULT:      -6.5      3.116      5.984
REMARK  Name = 
REMARK  4 active torsions:
REMARK  status: ('A' for Active; 'I' for Inactive)
REMARK    1  A    between atoms: C_1  and  C_2
REMARK    2  A    between atoms: C_2  and  C_4
REMARK    3  A    between atoms: C_15  and  C_16
REMARK    4  A    between atoms: C_16  and  C_17
REMARK                            x       y       z     vdW  Elec       q    Type
REMARK                         _______ _______ _______ _____ _____    ______ ____
ROOT
ATOM      1  C   UNL     1       1.306   9.644  19.346  0.00  0.00    +0.000 A 
ATOM      2  C   UNL     1       0.956   8.875  20.463  0.00  0.00    +0.000 A 
ATOM      3  C   UNL     1       1.421   7.558  20.588  0.00  0.00    +0.000 A 
ATOM      4  C   UNL     1       2.243   6.993  19.600  0.00  0.00    +0.000 A 
ATOM      5  C   UNL     1       2.592   7.761  18.481  0.00  0.00    +0.000 A 
ATOM      6  C   UNL     1       2.123   9.080  18.357  0.00  0.00    +0.000 A 
ATOM      7  C   UNL     1       3.467   7.203  17.420  0.00  0.00    +0.000 C 
ATOM      8  O   UNL     1       3.773   7.905  16.462  0.00  0.00    +0.000 OA
ATOM      9  C   UNL     1       3.894   5.836  17.619  0.00  0.00    +0.000 A 
ATOM     10  S   UNL     1       4.891   5.064  16.487  0.00  0.00    +0.000 S 
ATOM     11  C   UNL     1       4.905   3.631  17.407  0.00  0.00    +0.000 A 
ATOM     12  C   UNL     1       4.167   3.720  18.578  0.00  0.00    +0.000 A 
ATOM     13  C   UNL     1       3.571   5.040  18.703  0.00  0.00    +0.000 A 
ATOM     14  C   UNL     1       2.755   5.598  19.782  0.00  0.00    +0.000 C 
ATOM     15  O   UNL     1       2.516   5.014  20.831  0.00  0.00    +0.000 OA
ENDROOT
BRANCH   1  17
ATOM     16  C   UNL     1       1.828  12.081  18.649  0.00  0.00    +0.000 C 
ATOM     17  C   UNL     1       0.851  11.054  19.162  0.00  0.00    +0.000 C 
ATOM     18  O   UNL     1      -0.310  11.361  19.425  0.00  0.00    +0.000 OA
ENDBRANCH   1  17
BRANCH  12  19
ATOM     19  C   UNL     1       4.024   2.577  19.495  0.00  0.00    +0.000 C 
ATOM     20  C   UNL     1       2.712   1.823  19.540  0.00  0.00    +0.000 C 
ATOM     21  O   UNL     1       4.928   2.251  20.261  0.00  0.00    +0.000 OA
ENDBRANCH  12  19
TORSDOF 2
ENDMDL
MODEL 8
REMARK VINA RESULT:      -6.4      3.758      5.704
REMARK  Name = 
REMARK  4 active torsions:
REMARK  status: ('A' for Active; 'I' for Inactive)
REMARK    1  A    between atoms: C_1  and  C_2
REMARK    2  A    between atoms: C_2  and  C_4
REMARK    3  A    between atoms: C_15  and  C_16
REMARK    4  A    between atoms: C_16  and  C_17
REMARK                            x       y       z     vdW  Elec       q    Type
REMARK                         _______ _______ _______ _____ _____    ______ ____
ROOT
ATOM      1  C   UNL     1       2.981   4.998  18.442  0.00  0.00    +0.000 A 
ATOM      2  C   UNL     1       2.496   4.660  19.712  0.00  0.00    +0.000 A 
ATOM      3  C   UNL     1       1.878   5.631  20.512  0.00  0.00    +0.000 A 
ATOM      4  C   UNL     1       1.734   6.951  20.055  0.00  0.00    +0.000 A 
ATOM      5  C   UNL     1       2.221   7.289  18.785  0.00  0.00    +0.000 A 
ATOM      6  C   UNL     1       2.842   6.315  17.985  0.00  0.00    +0.000 A 
ATOM      7  C   UNL     1       2.079   8.671  18.261  0.00  0.00    +0.000 C 
ATOM      8  O   UNL     1       2.495   8.933  17.139  0.00  0.00    +0.000 OA
ATOM      9  C   UNL     1       1.440   9.613  19.153  0.00  0.00    +0.000 A 
ATOM     10  S   UNL     1       1.214  11.228  18.693  0.00  0.00    +0.000 S 
ATOM     11  C   UNL     1       0.469  11.596  20.179  0.00  0.00    +0.000 A 
ATOM     12  C   UNL     1       0.375  10.508  21.034  0.00  0.00    +0.000 A 
ATOM     13  C   UNL     1       0.950   9.325  20.414  0.00  0.00    +0.000 A 
ATOM     14  C   UNL     1       1.034   7.954  20.918  0.00  0.00    +0.000 C 
ATOM     15  O   UNL     1       0.525   7.578  21.966  0.00  0.00    +0.000 OA
ENDROOT
BRANCH   1  17
ATOM     16  C   UNL     1       3.485   2.534  17.828  0.00  0.00    +0.000 C 
ATOM     17  C   UNL     1       3.639   4.006  17.539  0.00  0.00    +0.000 C 
ATOM     18  O   UNL     1       4.292   4.398  16.574  0.00  0.00    +0.000 OA
ENDBRANCH   1  17
BRANCH  12  19
ATOM     19  C   UNL     1      -0.206  10.625  22.381  0.00  0.00    +0.000 C 
ATOM     20  C   UNL     1      -1.421  11.503  22.591  0.00  0.00    +0.000 C 
ATOM     21  O   UNL     1       0.302  10.066  23.350  0.00  0.00    +0.000 OA
ENDBRANCH  12  19
TORSDOF 2
ENDMDL
MODEL 9
REMARK VINA RESULT:      -6.3      2.548      6.932
REMARK  Name = 
REMARK  4 active torsions:
REMARK  status: ('A' for Active; 'I' for Inactive)
REMARK    1  A    between atoms: C_1  and  C_2
REMARK    2  A    between atoms: C_2  and  C_4
REMARK    3  A    between atoms: C_15  and  C_16
REMARK    4  A    between atoms: C_16  and  C_17
REMARK                            x       y       z     vdW  Elec       q    Type
REMARK                         _______ _______ _______ _____ _____    ______ ____
ROOT
ATOM      1  C   UNL     1       1.098   8.008  20.724  0.00  0.00    +0.000 A 
ATOM      2  C   UNL     1       1.691   8.774  19.713  0.00  0.00    +0.000 A 
ATOM      3  C   UNL     1       2.519   8.164  18.759  0.00  0.00    +0.000 A 
ATOM      4  C   UNL     1       2.764   6.783  18.802  0.00  0.00    +0.000 A 
ATOM      5  C   UNL     1       2.172   6.016  19.816  0.00  0.00    +0.000 A 
ATOM      6  C   UNL     1       1.345   6.629  20.771  0.00  0.00    +0.000 A 
ATOM      7  C   UNL     1       2.398   4.551  19.889  0.00  0.00    +0.000 C 
ATOM      8  O   UNL     1       1.851   3.903  20.774  0.00  0.00    +0.000 OA
ATOM      9  C   UNL     1       3.272   4.003  18.876  0.00  0.00    +0.000 A 
ATOM     10  S   UNL     1       3.627   2.347  18.838  0.00  0.00    +0.000 S 
ATOM     11  C   UNL     1       4.623   2.544  17.472  0.00  0.00    +0.000 A 
ATOM     12  C   UNL     1       4.695   3.855  17.025  0.00  0.00    +0.000 A 
ATOM     13  C   UNL     1       3.881   4.721  17.862  0.00  0.00    +0.000 A 
ATOM     14  C   UNL     1       3.621   6.156  17.747  0.00  0.00    +0.000 C 
ATOM     15  O   UNL     1       4.016   6.851  16.819  0.00  0.00    +0.000 OA
ENDROOT
BRANCH   1  17
ATOM     16  C   UNL     1       0.745   9.650  22.694  0.00  0.00    +0.000 C 
ATOM     17  C   UNL     1       0.199   8.598  21.761  0.00  0.00    +0.000 C 
ATOM     18  O   UNL     1      -0.969   8.225  21.841  0.00  0.00    +0.000 OA
ENDBRANCH   1  17
BRANCH  12  19
ATOM     19  C   UNL     1       5.532   4.241  15.877  0.00  0.00    +0.000 C 
ATOM     20  C   UNL     1       6.982   4.608  16.108  0.00  0.00    +0.000 C 
ATOM     21  O   UNL     1       5.069   4.319  14.742  0.00  0.00    +0.000 OA
ENDBRANCH  12  19
TORSDOF 2
ENDMDL
