MODEL 1
REMARK VINA RESULT:      -7.2      0.000      0.000
REMARK  Name = 
REMARK  9 active torsions:
REMARK  status: ('A' for Active; 'I' for Inactive)
REMARK    1  A    between atoms: C_1  and  N_2
REMARK    2  A    between atoms: C_4  and  C_5
REMARK    3  A    between atoms: C_5  and  C_6
REMARK    4  A    between atoms: C_5  and  C_7
REMARK    5  A    between atoms: C_5  and  C_8
REMARK    6  A    between atoms: C_10  and  N_11
REMARK    7  A    between atoms: N_11  and  C_12
REMARK    8  A    between atoms: C_12  and  C_13
REMARK    9  A    between atoms: C_16  and  C_17
REMARK                            x       y       z     vdW  Elec       q    Type
REMARK                         _______ _______ _______ _____ _____    ______ ____
ROOT
ATOM      1  N   UNL     1       7.407   4.456  18.083  0.00  0.00    +0.000 N 
ATOM      2  H   UNL     1       8.097   4.070  17.445  0.00  0.00    +0.000 HD
ENDROOT
BRANCH   1   8
ATOM      3  C   UNL     1       6.054   3.930  15.425  0.00  0.00    +0.000 C 
ATOM      4  N   UNL     1       5.458   3.966  16.741  0.00  0.00    +0.000 N 
ATOM      5  N   UNL     1       4.131   3.750  16.849  0.00  0.00    +0.000 NA
ATOM      6  C   UNL     1       3.875   3.879  18.157  0.00  0.00    +0.000 A 
ATOM      7  C   UNL     1       5.066   4.148  18.879  0.00  0.00    +0.000 A 
ATOM      8  C   UNL     1       6.076   4.216  17.946  0.00  0.00    +0.000 A 
BRANCH   6   9
ATOM      9  C   UNL     1       2.465   3.719  18.698  0.00  0.00    +0.000 C 
ATOM     10  C   UNL     1       1.458   4.373  17.736  0.00  0.00    +0.000 C 
ATOM     11  C   UNL     1       2.105   2.225  18.850  0.00  0.00    +0.000 C 
ATOM     12  C   UNL     1       2.319   4.378  20.087  0.00  0.00    +0.000 C 
ENDBRANCH   6   9
ENDBRANCH   1   8
BRANCH   1  13
ATOM     13  C   UNL     1       7.915   5.540  18.929  0.00  0.00    +0.000 C 
BRANCH  13  14
ATOM     14  C   UNL     1       7.899   6.926  18.369  0.00  0.00    +0.000 A 
ATOM     15  C   UNL     1       7.247   7.403  17.256  0.00  0.00    +0.000 A 
ATOM     16  O   UNL     1       7.505   8.731  17.144  0.00  0.00    +0.000 OA
ATOM     17  C   UNL     1       8.319   9.026  18.215  0.00  0.00    +0.000 A 
ATOM     18  N   UNL     1       8.575   7.970  18.972  0.00  0.00    +0.000 NA
BRANCH  17  19
ATOM     19  C   UNL     1       8.841  10.341  18.476  0.00  0.00    +0.000 A 
ATOM     20  C   UNL     1       8.706  11.469  17.686  0.00  0.00    +0.000 A 
ATOM     21  C   UNL     1       9.343  12.614  18.249  0.00  0.00    +0.000 A 
ATOM     22  C   UNL     1       9.952  12.324  19.450  0.00  0.00    +0.000 A 
ATOM     23  S   UNL     1       9.752  10.684  19.889  0.00  0.00    +0.000 S 
ENDBRANCH  17  19
ENDBRANCH  13  14
ENDBRANCH   1  13
TORSDOF 5
ENDMDL
MODEL 2
REMARK VINA RESULT:      -7.0      3.929      5.880
REMARK  Name = 
REMARK  9 active torsions:
REMARK  status: ('A' for Active; 'I' for Inactive)
REMARK    1  A    between atoms: C_1  and  N_2
REMARK    2  A    between atoms: C_4  and  C_5
REMARK    3  A    between atoms: C_5  and  C_6
REMARK    4  A    between atoms: C_5  and  C_7
REMARK    5  A    between atoms: C_5  and  C_8
REMARK    6  A    between atoms: C_10  and  N_11
REMARK    7  A    between atoms: N_11  and  C_12
REMARK    8  A    between atoms: C_12  and  C_13
REMARK    9  A    between atoms: C_16  and  C_17
REMARK                            x       y       z     vdW  Elec       q    Type
REMARK                         _______ _______ _______ _____ _____    ______ ____
ROOT
ATOM      1  N   UNL     1       3.651   7.217  17.711  0.00  0.00    +0.000 N 
ATOM      2  H   UNL     1       3.138   7.997  17.309  0.00  0.00    +0.000 HD
ENDROOT
BRANCH   1   8
ATOM      3  C   UNL     1       1.961   7.763  20.165  0.00  0.00    +0.000 C 
ATOM      4  N   UNL     1       2.264   6.491  19.551  0.00  0.00    +0.000 N 
ATOM      5  N   UNL     1       1.756   5.373  20.112  0.00  0.00    +0.000 NA
ATOM      6  C   UNL     1       2.229   4.374  19.357  0.00  0.00    +0.000 A 
ATOM      7  C   UNL     1       3.017   4.878  18.291  0.00  0.00    +0.000 A 
ATOM      8  C   UNL     1       3.042   6.246  18.442  0.00  0.00    +0.000 A 
BRANCH   6   9
ATOM      9  C   UNL     1       1.891   2.927  19.672  0.00  0.00    +0.000 C 
ATOM     10  C   UNL     1       1.443   2.801  21.139  0.00  0.00    +0.000 C 
ATOM     11  C   UNL     1       0.751   2.423  18.762  0.00  0.00    +0.000 C 
ATOM     12  C   UNL     1       3.109   2.005  19.448  0.00  0.00    +0.000 C 
ENDBRANCH   6   9
ENDBRANCH   1   8
BRANCH   1  13
ATOM     13  C   UNL     1       5.104   7.405  17.733  0.00  0.00    +0.000 C 
BRANCH  13  14
ATOM     14  C   UNL     1       5.940   6.461  16.929  0.00  0.00    +0.000 A 
ATOM     15  C   UNL     1       7.106   5.822  17.281  0.00  0.00    +0.000 A 
ATOM     16  O   UNL     1       7.500   5.046  16.239  0.00  0.00    +0.000 OA
ATOM     17  C   UNL     1       6.541   5.239  15.269  0.00  0.00    +0.000 A 
ATOM     18  N   UNL     1       5.589   6.079  15.648  0.00  0.00    +0.000 NA
BRANCH  17  19
ATOM     19  C   UNL     1       6.576   4.601  13.980  0.00  0.00    +0.000 A 
ATOM     20  C   UNL     1       5.730   3.611  13.511  0.00  0.00    +0.000 A 
ATOM     21  C   UNL     1       6.041   3.209  12.178  0.00  0.00    +0.000 A 
ATOM     22  C   UNL     1       7.121   3.898  11.672  0.00  0.00    +0.000 A 
ATOM     23  S   UNL     1       7.748   5.021  12.800  0.00  0.00    +0.000 S 
ENDBRANCH  17  19
ENDBRANCH  13  14
ENDBRANCH   1  13
TORSDOF 5
ENDMDL
MODEL 3
REMARK VINA RESULT:      -6.9      0.514      1.114
REMARK  Name = 
REMARK  9 active torsions:
REMARK  status: ('A' for Active; 'I' for Inactive)
REMARK    1  A    between atoms: C_1  and  N_2
REMARK    2  A    between atoms: C_4  and  C_5
REMARK    3  A    between atoms: C_5  and  C_6
REMARK    4  A    between atoms: C_5  and  C_7
REMARK    5  A    between atoms: C_5  and  C_8
REMARK    6  A    between atoms: C_10  and  N_11
REMARK    7  A    between atoms: N_11  and  C_12
REMARK    8  A    between atoms: C_12  and  C_13
REMARK    9  A    between atoms: C_16  and  C_17
REMARK                            x       y       z     vdW  Elec       q    Type
REMARK                         _______ _______ _______ _____ _____    ______ ____
ROOT
ATOM      1  N   UNL     1       7.658   4.729  18.304  0.00  0.00    +0.000 N 
ATOM      2  H   UNL     1       8.440   4.343  17.782  0.00  0.00    +0.000 HD
ENDROOT
BRANCH   1   8
ATOM      3  C   UNL     1       6.578   4.341  15.501  0.00  0.00    +0.000 C 
ATOM      4  N   UNL     1       5.876   4.212  16.757  0.00  0.00    +0.000 N 
ATOM      5  N   UNL     1       4.567   3.885  16.727  0.00  0.00    +0.000 NA
ATOM      6  C   UNL     1       4.194   3.876  18.013  0.00  0.00    +0.000 A 
ATOM      7  C   UNL     1       5.294   4.169  18.858  0.00  0.00    +0.000 A 
ATOM      8  C   UNL     1       6.368   4.400  18.029  0.00  0.00    +0.000 A 
BRANCH   6   9
ATOM      9  C   UNL     1       2.763   3.559  18.410  0.00  0.00    +0.000 C 
ATOM     10  C   UNL     1       2.634   3.559  19.944  0.00  0.00    +0.000 C 
ATOM     11  C   UNL     1       1.791   4.608  17.832  0.00  0.00    +0.000 C 
ATOM     12  C   UNL     1       2.327   2.176  17.880  0.00  0.00    +0.000 C 
ENDBRANCH   6   9
ENDBRANCH   1   8
BRANCH   1  13
ATOM     13  C   UNL     1       8.003   5.895  19.121  0.00  0.00    +0.000 C 
BRANCH  13  14
ATOM     14  C   UNL     1       7.972   7.238  18.464  0.00  0.00    +0.000 A 
ATOM     15  C   UNL     1       7.269   7.643  17.353  0.00  0.00    +0.000 A 
ATOM     16  O   UNL     1       7.535   8.956  17.134  0.00  0.00    +0.000 OA
ATOM     17  C   UNL     1       8.406   9.316  18.137  0.00  0.00    +0.000 A 
ATOM     18  N   UNL     1       8.690   8.312  18.955  0.00  0.00    +0.000 NA
BRANCH  17  19
ATOM     19  C   UNL     1       8.956  10.638  18.276  0.00  0.00    +0.000 A 
ATOM     20  C   UNL     1       8.530  11.793  17.645  0.00  0.00    +0.000 A 
ATOM     21  C   UNL     1       9.294  12.938  18.018  0.00  0.00    +0.000 A 
ATOM     22  C   UNL     1      10.287  12.621  18.919  0.00  0.00    +0.000 A 
ATOM     23  S   UNL     1      10.289  10.955  19.307  0.00  0.00    +0.000 S 
ENDBRANCH  17  19
ENDBRANCH  13  14
ENDBRANCH   1  13
TORSDOF 5
ENDMDL
MODEL 4
REMARK VINA RESULT:      -6.8      1.806      2.433
REMARK  Name = 
REMARK  9 active torsions:
REMARK  status: ('A' for Active; 'I' for Inactive)
REMARK    1  A    between atoms: C_1  and  N_2
REMARK    2  A    between atoms: C_4  and  C_5
REMARK    3  A    between atoms: C_5  and  C_6
REMARK    4  A    between atoms: C_5  and  C_7
REMARK    5  A    between atoms: C_5  and  C_8
REMARK    6  A    between atoms: C_10  and  N_11
REMARK    7  A    between atoms: N_11  and  C_12
REMARK    8  A    between atoms: C_12  and  C_13
REMARK    9  A    between atoms: C_16  and  C_17
REMARK                            x       y       z     vdW  Elec       q    Type
REMARK                         _______ _______ _______ _____ _____    ______ ____
ROOT
ATOM      1  N   UNL     1       4.590   6.831  16.870  0.00  0.00    +0.000 N 
ATOM      2  H   UNL     1       4.300   7.794  16.721  0.00  0.00    +0.000 HD
ENDROOT
BRANCH   1   8
ATOM      3  C   UNL     1       2.429   7.649  18.828  0.00  0.00    +0.000 C 
ATOM      4  N   UNL     1       2.849   6.315  18.464  0.00  0.00    +0.000 N 
ATOM      5  N   UNL     1       2.233   5.268  19.050  0.00  0.00    +0.000 NA
ATOM      6  C   UNL     1       2.850   4.191  18.548  0.00  0.00    +0.000 A 
ATOM      7  C   UNL     1       3.844   4.572  17.610  0.00  0.00    +0.000 A 
ATOM      8  C   UNL     1       3.840   5.948  17.581  0.00  0.00    +0.000 A 
BRANCH   6   9
ATOM      9  C   UNL     1       2.450   2.789  18.974  0.00  0.00    +0.000 C 
ATOM     10  C   UNL     1       0.962   2.551  18.659  0.00  0.00    +0.000 C 
ATOM     11  C   UNL     1       3.289   1.731  18.227  0.00  0.00    +0.000 C 
ATOM     12  C   UNL     1       2.672   2.578  20.487  0.00  0.00    +0.000 C 
ENDBRANCH   6   9
ENDBRANCH   1   8
BRANCH   1  13
ATOM     13  C   UNL     1       6.000   6.577  16.563  0.00  0.00    +0.000 C 
BRANCH  13  14
ATOM     14  C   UNL     1       7.029   7.191  17.458  0.00  0.00    +0.000 A 
ATOM     15  C   UNL     1       7.780   6.599  18.447  0.00  0.00    +0.000 A 
ATOM     16  O   UNL     1       8.599   7.541  18.983  0.00  0.00    +0.000 OA
ATOM     17  C   UNL     1       8.316   8.696  18.289  0.00  0.00    +0.000 A 
ATOM     18  N   UNL     1       7.381   8.524  17.365  0.00  0.00    +0.000 NA
BRANCH  17  19
ATOM     19  C   UNL     1       8.961   9.955  18.546  0.00  0.00    +0.000 A 
ATOM     20  C   UNL     1       9.388  10.885  17.614  0.00  0.00    +0.000 A 
ATOM     21  C   UNL     1       9.982  12.034  18.216  0.00  0.00    +0.000 A 
ATOM     22  C   UNL     1       9.999  11.943  19.590  0.00  0.00    +0.000 A 
ATOM     23  S   UNL     1       9.300  10.483  20.143  0.00  0.00    +0.000 S 
ENDBRANCH  17  19
ENDBRANCH  13  14
ENDBRANCH   1  13
TORSDOF 5
ENDMDL
MODEL 5
REMARK VINA RESULT:      -6.6      6.157      8.199
REMARK  Name = 
REMARK  9 active torsions:
REMARK  status: ('A' for Active; 'I' for Inactive)
REMARK    1  A    between atoms: C_1  and  N_2
REMARK    2  A    between atoms: C_4  and  C_5
REMARK    3  A    between atoms: C_5  and  C_6
REMARK    4  A    between atoms: C_5  and  C_7
REMARK    5  A    between atoms: C_5  and  C_8
REMARK    6  A    between atoms: C_10  and  N_11
REMARK    7  A    between atoms: N_11  and  C_12
REMARK    8  A    between atoms: C_12  and  C_13
REMARK    9  A    between atoms: C_16  and  C_17
REMARK                            x       y       z     vdW  Elec       q    Type
REMARK                         _______ _______ _______ _____ _____    ______ ____
ROOT
ATOM      1  N   UNL     1       1.946   8.335  21.050  0.00  0.00    +0.000 N 
ATOM      2  H   UNL     1       2.754   8.932  21.204  0.00  0.00    +0.000 HD
ENDROOT
BRANCH   1   8
ATOM      3  C   UNL     1       2.582   8.114  18.097  0.00  0.00    +0.000 C 
ATOM      4  N   UNL     1       2.332   7.049  19.041  0.00  0.00    +0.000 N 
ATOM      5  N   UNL     1       2.369   5.777  18.594  0.00  0.00    +0.000 NA
ATOM      6  C   UNL     1       2.070   5.035  19.668  0.00  0.00    +0.000 A 
ATOM      7  C   UNL     1       1.876   5.856  20.808  0.00  0.00    +0.000 A 
ATOM      8  C   UNL     1       2.033   7.155  20.381  0.00  0.00    +0.000 A 
BRANCH   6   9
ATOM      9  C   UNL     1       1.996   3.521  19.578  0.00  0.00    +0.000 C 
ATOM     10  C   UNL     1       1.179   2.965  20.759  0.00  0.00    +0.000 C 
ATOM     11  C   UNL     1       1.319   3.086  18.261  0.00  0.00    +0.000 C 
ATOM     12  C   UNL     1       3.403   2.887  19.611  0.00  0.00    +0.000 C 
ENDBRANCH   6   9
ENDBRANCH   1   8
BRANCH   1  13
ATOM     13  C   UNL     1       0.660   8.993  21.296  0.00  0.00    +0.000 C 
BRANCH  13  14
ATOM     14  C   UNL     1       0.133   9.907  20.237  0.00  0.00    +0.000 A 
ATOM     15  C   UNL     1       0.628  11.117  19.811  0.00  0.00    +0.000 A 
ATOM     16  O   UNL     1      -0.168  11.579  18.813  0.00  0.00    +0.000 OA
ATOM     17  C   UNL     1      -1.140  10.615  18.659  0.00  0.00    +0.000 A 
ATOM     18  N   UNL     1      -0.991   9.597  19.494  0.00  0.00    +0.000 NA
BRANCH  17  19
ATOM     19  C   UNL     1      -2.207  10.711  17.699  0.00  0.00    +0.000 A 
ATOM     20  C   UNL     1      -2.251  10.148  16.435  0.00  0.00    +0.000 A 
ATOM     21  C   UNL     1      -3.467  10.434  15.748  0.00  0.00    +0.000 A 
ATOM     22  C   UNL     1      -4.314  11.213  16.505  0.00  0.00    +0.000 A 
ATOM     23  S   UNL     1      -3.641  11.591  18.031  0.00  0.00    +0.000 S 
ENDBRANCH  17  19
ENDBRANCH  13  14
ENDBRANCH   1  13
TORSDOF 5
ENDMDL
MODEL 6
REMARK VINA RESULT:      -6.6      6.860      8.333
REMARK  Name = 
REMARK  9 active torsions:
REMARK  status: ('A' for Active; 'I' for Inactive)
REMARK    1  A    between atoms: C_1  and  N_2
REMARK    2  A    between atoms: C_4  and  C_5
REMARK    3  A    between atoms: C_5  and  C_6
REMARK    4  A    between atoms: C_5  and  C_7
REMARK    5  A    between atoms: C_5  and  C_8
REMARK    6  A    between atoms: C_10  and  N_11
REMARK    7  A    between atoms: N_11  and  C_12
REMARK    8  A    between atoms: C_12  and  C_13
REMARK    9  A    between atoms: C_16  and  C_17
REMARK                            x       y       z     vdW  Elec       q    Type
REMARK                         _______ _______ _______ _____ _____    ______ ____
ROOT
ATOM      1  N   UNL     1       1.885   8.030  20.678  0.00  0.00    +0.000 N 
ATOM      2  H   UNL     1       2.281   8.836  20.202  0.00  0.00    +0.000 HD
ENDROOT
BRANCH   1   8
ATOM      3  C   UNL     1       3.018   7.378  17.946  0.00  0.00    +0.000 C 
ATOM      4  N   UNL     1       2.531   6.465  18.954  0.00  0.00    +0.000 N 
ATOM      5  N   UNL     1       2.559   5.143  18.687  0.00  0.00    +0.000 NA
ATOM      6  C   UNL     1       2.024   4.570  19.773  0.00  0.00    +0.000 A 
ATOM      7  C   UNL     1       1.687   5.547  20.744  0.00  0.00    +0.000 A 
ATOM      8  C   UNL     1       2.007   6.767  20.191  0.00  0.00    +0.000 A 
BRANCH   6   9
ATOM      9  C   UNL     1       1.862   3.062  19.863  0.00  0.00    +0.000 C 
ATOM     10  C   UNL     1       1.454   2.664  21.292  0.00  0.00    +0.000 C 
ATOM     11  C   UNL     1       0.775   2.571  18.883  0.00  0.00    +0.000 C 
ATOM     12  C   UNL     1       3.176   2.335  19.505  0.00  0.00    +0.000 C 
ENDBRANCH   6   9
ENDBRANCH   1   8
BRANCH   1  13
ATOM     13  C   UNL     1       0.907   8.369  21.715  0.00  0.00    +0.000 C 
BRANCH  13  14
ATOM     14  C   UNL     1       0.134   9.639  21.553  0.00  0.00    +0.000 A 
ATOM     15  C   UNL     1      -0.134  10.350  20.406  0.00  0.00    +0.000 A 
ATOM     16  O   UNL     1      -0.888  11.429  20.738  0.00  0.00    +0.000 OA
ATOM     17  C   UNL     1      -1.060  11.338  22.101  0.00  0.00    +0.000 A 
ATOM     18  N   UNL     1      -0.464  10.276  22.624  0.00  0.00    +0.000 NA
BRANCH  17  19
ATOM     19  C   UNL     1      -1.802  12.297  22.874  0.00  0.00    +0.000 A 
ATOM     20  C   UNL     1      -3.063  12.138  23.423  0.00  0.00    +0.000 A 
ATOM     21  C   UNL     1      -3.500  13.290  24.140  0.00  0.00    +0.000 A 
ATOM     22  C   UNL     1      -2.563  14.299  24.112  0.00  0.00    +0.000 A 
ATOM     23  S   UNL     1      -1.169  13.852  23.227  0.00  0.00    +0.000 S 
ENDBRANCH  17  19
ENDBRANCH  13  14
ENDBRANCH   1  13
TORSDOF 5
ENDMDL
MODEL 7
REMARK VINA RESULT:      -6.5      4.747      6.844
REMARK  Name = 
REMARK  9 active torsions:
REMARK  status: ('A' for Active; 'I' for Inactive)
REMARK    1  A    between atoms: C_1  and  N_2
REMARK    2  A    between atoms: C_4  and  C_5
REMARK    3  A    between atoms: C_5  and  C_6
REMARK    4  A    between atoms: C_5  and  C_7
REMARK    5  A    between atoms: C_5  and  C_8
REMARK    6  A    between atoms: C_10  and  N_11
REMARK    7  A    between atoms: N_11  and  C_12
REMARK    8  A    between atoms: C_12  and  C_13
REMARK    9  A    between atoms: C_16  and  C_17
REMARK                            x       y       z     vdW  Elec       q    Type
REMARK                         _______ _______ _______ _____ _____    ______ ____
ROOT
ATOM      1  N   UNL     1       2.087   4.611  19.313  0.00  0.00    +0.000 N 
ATOM      2  H   UNL     1       1.280   4.003  19.424  0.00  0.00    +0.000 HD
ENDROOT
BRANCH   1   8
ATOM      3  C   UNL     1       3.009   1.849  18.479  0.00  0.00    +0.000 C 
ATOM      4  N   UNL     1       3.458   3.131  17.985  0.00  0.00    +0.000 N 
ATOM      5  N   UNL     1       4.415   3.150  17.034  0.00  0.00    +0.000 NA
ATOM      6  C   UNL     1       4.641   4.451  16.811  0.00  0.00    +0.000 A 
ATOM      7  C   UNL     1       3.789   5.254  17.611  0.00  0.00    +0.000 A 
ATOM      8  C   UNL     1       3.044   4.384  18.375  0.00  0.00    +0.000 A 
BRANCH   6   9
ATOM      9  C   UNL     1       5.679   4.903  15.798  0.00  0.00    +0.000 C 
ATOM     10  C   UNL     1       5.574   4.045  14.524  0.00  0.00    +0.000 C 
ATOM     11  C   UNL     1       5.461   6.382  15.418  0.00  0.00    +0.000 C 
ATOM     12  C   UNL     1       7.109   4.771  16.364  0.00  0.00    +0.000 C 
ENDBRANCH   6   9
ENDBRANCH   1   8
BRANCH   1  13
ATOM     13  C   UNL     1       2.306   5.524  20.439  0.00  0.00    +0.000 C 
BRANCH  13  14
ATOM     14  C   UNL     1       1.853   6.940  20.284  0.00  0.00    +0.000 A 
ATOM     15  C   UNL     1       2.108   7.824  19.261  0.00  0.00    +0.000 A 
ATOM     16  O   UNL     1       1.476   8.993  19.538  0.00  0.00    +0.000 OA
ATOM     17  C   UNL     1       0.842   8.778  20.742  0.00  0.00    +0.000 A 
ATOM     18  N   UNL     1       1.044   7.559  21.218  0.00  0.00    +0.000 NA
BRANCH  17  19
ATOM     19  C   UNL     1       0.053   9.776  21.412  0.00  0.00    +0.000 A 
ATOM     20  C   UNL     1      -0.499  10.920  20.861  0.00  0.00    +0.000 A 
ATOM     21  C   UNL     1      -1.234  11.688  21.810  0.00  0.00    +0.000 A 
ATOM     22  C   UNL     1      -1.217  11.113  23.061  0.00  0.00    +0.000 A 
ATOM     23  S   UNL     1      -0.320   9.657  23.083  0.00  0.00    +0.000 S 
ENDBRANCH  17  19
ENDBRANCH  13  14
ENDBRANCH   1  13
TORSDOF 5
ENDMDL
MODEL 8
REMARK VINA RESULT:      -6.5      4.762      6.802
REMARK  Name = 
REMARK  9 active torsions:
REMARK  status: ('A' for Active; 'I' for Inactive)
REMARK    1  A    between atoms: C_1  and  N_2
REMARK    2  A    between atoms: C_4  and  C_5
REMARK    3  A    between atoms: C_5  and  C_6
REMARK    4  A    between atoms: C_5  and  C_7
REMARK    5  A    between atoms: C_5  and  C_8
REMARK    6  A    between atoms: C_10  and  N_11
REMARK    7  A    between atoms: N_11  and  C_12
REMARK    8  A    between atoms: C_12  and  C_13
REMARK    9  A    between atoms: C_16  and  C_17
REMARK                            x       y       z     vdW  Elec       q    Type
REMARK                         _______ _______ _______ _____ _____    ______ ____
ROOT
ATOM      1  N   UNL     1       3.262   5.133  20.455  0.00  0.00    +0.000 N 
ATOM      2  H   UNL     1       3.799   5.294  21.302  0.00  0.00    +0.000 HD
ENDROOT
BRANCH   1   8
ATOM      3  C   UNL     1       3.088   2.397  19.167  0.00  0.00    +0.000 C 
ATOM      4  N   UNL     1       3.764   3.576  18.677  0.00  0.00    +0.000 N 
ATOM      5  N   UNL     1       4.422   3.494  17.502  0.00  0.00    +0.000 NA
ATOM      6  C   UNL     1       4.963   4.707  17.335  0.00  0.00    +0.000 A 
ATOM      7  C   UNL     1       4.611   5.567  18.405  0.00  0.00    +0.000 A 
ATOM      8  C   UNL     1       3.849   4.815  19.271  0.00  0.00    +0.000 A 
BRANCH   6   9
ATOM      9  C   UNL     1       5.809   5.025  16.114  0.00  0.00    +0.000 C 
ATOM     10  C   UNL     1       5.299   6.315  15.446  0.00  0.00    +0.000 C 
ATOM     11  C   UNL     1       7.287   5.225  16.511  0.00  0.00    +0.000 C 
ATOM     12  C   UNL     1       5.754   3.880  15.080  0.00  0.00    +0.000 C 
ENDBRANCH   6   9
ENDBRANCH   1   8
BRANCH   1  13
ATOM     13  C   UNL     1       1.874   5.597  20.531  0.00  0.00    +0.000 C 
BRANCH  13  14
ATOM     14  C   UNL     1       1.622   7.064  20.388  0.00  0.00    +0.000 A 
ATOM     15  C   UNL     1       2.026   7.919  19.391  0.00  0.00    +0.000 A 
ATOM     16  O   UNL     1       1.549   9.159  19.670  0.00  0.00    +0.000 OA
ATOM     17  C   UNL     1       0.853   9.015  20.850  0.00  0.00    +0.000 A 
ATOM     18  N   UNL     1       0.873   7.773  21.310  0.00  0.00    +0.000 NA
BRANCH  17  19
ATOM     19  C   UNL     1       0.185  10.101  21.515  0.00  0.00    +0.000 A 
ATOM     20  C   UNL     1      -0.594  10.033  22.657  0.00  0.00    +0.000 A 
ATOM     21  C   UNL     1      -1.100  11.306  23.054  0.00  0.00    +0.000 A 
ATOM     22  C   UNL     1      -0.700  12.308  22.197  0.00  0.00    +0.000 A 
ATOM     23  S   UNL     1       0.280  11.711  20.930  0.00  0.00    +0.000 S 
ENDBRANCH  17  19
ENDBRANCH  13  14
ENDBRANCH   1  13
TORSDOF 5
ENDMDL
MODEL 9
REMARK VINA RESULT:      -6.5      5.678      7.645
REMARK  Name = 
REMARK  9 active torsions:
REMARK  status: ('A' for Active; 'I' for Inactive)
REMARK    1  A    between atoms: C_1  and  N_2
REMARK    2  A    between atoms: C_4  and  C_5
REMARK    3  A    between atoms: C_5  and  C_6
REMARK    4  A    between atoms: C_5  and  C_7
REMARK    5  A    between atoms: C_5  and  C_8
REMARK    6  A    between atoms: C_10  and  N_11
REMARK    7  A    between atoms: N_11  and  C_12
REMARK    8  A    between atoms: C_12  and  C_13
REMARK    9  A    between atoms: C_16  and  C_17
REMARK                            x       y       z     vdW  Elec       q    Type
REMARK                         _______ _______ _______ _____ _____    ______ ____
ROOT
ATOM      1  N   UNL     1       2.179   7.035  18.179  0.00  0.00    +0.000 N 
ATOM      2  H   UNL     1       1.341   6.464  18.249  0.00  0.00    +0.000 HD
ENDROOT
BRANCH   1   8
ATOM      3  C   UNL     1       3.081   4.836  20.057  0.00  0.00    +0.000 C 
ATOM      4  N   UNL     1       3.837   5.487  19.012  0.00  0.00    +0.000 N 
ATOM      5  N   UNL     1       5.116   5.106  18.815  0.00  0.00    +0.000 NA
ATOM      6  C   UNL     1       5.554   5.896  17.827  0.00  0.00    +0.000 A 
ATOM      7  C   UNL     1       4.523   6.761  17.380  0.00  0.00    +0.000 A 
ATOM      8  C   UNL     1       3.426   6.494  18.168  0.00  0.00    +0.000 A 
BRANCH   6   9
ATOM      9  C   UNL     1       6.978   5.787  17.310  0.00  0.00    +0.000 C 
ATOM     10  C   UNL     1       7.659   7.167  17.356  0.00  0.00    +0.000 C 
ATOM     11  C   UNL     1       7.797   4.802  18.171  0.00  0.00    +0.000 C 
ATOM     12  C   UNL     1       7.008   5.271  15.855  0.00  0.00    +0.000 C 
ENDBRANCH   6   9
ENDBRANCH   1   8
BRANCH   1  13
ATOM     13  C   UNL     1       1.955   8.460  18.434  0.00  0.00    +0.000 C 
BRANCH  13  14
ATOM     14  C   UNL     1       1.323   8.843  19.734  0.00  0.00    +0.000 A 
ATOM     15  C   UNL     1       1.454   8.252  20.969  0.00  0.00    +0.000 A 
ATOM     16  O   UNL     1       0.710   8.954  21.861  0.00  0.00    +0.000 OA
ATOM     17  C   UNL     1       0.141   9.971  21.128  0.00  0.00    +0.000 A 
ATOM     18  N   UNL     1       0.487   9.938  19.849  0.00  0.00    +0.000 NA
BRANCH  17  19
ATOM     19  C   UNL     1      -0.741  10.957  21.691  0.00  0.00    +0.000 A 
ATOM     20  C   UNL     1      -1.236  11.001  22.983  0.00  0.00    +0.000 A 
ATOM     21  C   UNL     1      -2.081  12.126  23.210  0.00  0.00    +0.000 A 
ATOM     22  C   UNL     1      -2.214  12.906  22.082  0.00  0.00    +0.000 A 
ATOM     23  S   UNL     1      -1.321  12.280  20.765  0.00  0.00    +0.000 S 
ENDBRANCH  17  19
ENDBRANCH  13  14
ENDBRANCH   1  13
TORSDOF 5
ENDMDL
