MODEL 1
REMARK VINA RESULT:      -8.5      0.000      0.000
REMARK  Name = 
REMARK  8 active torsions:
REMARK  status: ('A' for Active; 'I' for Inactive)
REMARK    1  A    between atoms: C_1  and  O_2
REMARK    2  A    between atoms: O_2  and  C_3
REMARK    3  A    between atoms: C_8  and  O_9
REMARK    4  A    between atoms: O_9  and  C_10
REMARK    5  A    between atoms: C_11  and  N_12
REMARK    6  A    between atoms: C_13  and  C_15
REMARK    7  A    between atoms: C_18  and  C_19
REMARK    8  A    between atoms: C_19  and  C_20
REMARK                            x       y       z     vdW  Elec       q    Type
REMARK                         _______ _______ _______ _____ _____    ______ ____
ROOT
ATOM      1  C   UNL     1       5.362   4.129  16.736  0.00  0.00    +0.000 A 
ATOM      2  C   UNL     1       3.971   3.950  16.772  0.00  0.00    +0.000 A 
ATOM      3  C   UNL     1       3.180   4.413  17.841  0.00  0.00    +0.000 A 
ATOM      4  C   UNL     1       3.803   5.072  18.911  0.00  0.00    +0.000 A 
ATOM      5  C   UNL     1       5.202   5.226  18.882  0.00  0.00    +0.000 A 
ATOM      6  C   UNL     1       5.990   4.757  17.819  0.00  0.00    +0.000 A 
ATOM      7  C   UNL     1       3.027   5.638  20.089  0.00  0.00    +0.000 C 
ATOM      8  C   UNL     1       2.314   4.522  20.869  0.00  0.00    +0.000 C 
ATOM      9  C   UNL     1       1.041   3.925  20.269  0.00  0.00    +0.000 C 
ATOM     10  C   UNL     1       1.138   3.301  18.878  0.00  0.00    +0.000 C 
ATOM     11  C   UNL     1       1.686   4.203  17.777  0.00  0.00    +0.000 C 
ENDROOT
BRANCH   7  12
ATOM     12  N   UNL     1       2.209   6.750  19.631  0.00  0.00    +0.000 N 
ATOM     13  C   UNL     1       1.732   7.760  20.437  0.00  0.00    +0.000 C 
ATOM     14  O   UNL     1       1.816   7.717  21.658  0.00  0.00    +0.000 OA
ATOM     15  H   UNL     1       2.286   6.981  18.648  0.00  0.00    +0.000 HD
BRANCH  13  16
ATOM     16  C   UNL     1       1.123   8.878  19.729  0.00  0.00    +0.000 A 
ATOM     17  C   UNL     1       1.507   9.420  18.520  0.00  0.00    +0.000 A 
ATOM     18  N   UNL     1       0.787  10.518  18.087  0.00  0.00    +0.000 NA
ATOM     19  C   UNL     1      -0.150  10.826  18.970  0.00  0.00    +0.000 A 
ATOM     20  S   UNL     1      -0.234   9.746  20.321  0.00  0.00    +0.000 S 
BRANCH  19  21
ATOM     21  C   UNL     1      -1.072  12.033  18.895  0.00  0.00    +0.000 C 
ATOM     22  C   UNL     1      -0.378  13.269  18.326  0.00  0.00    +0.000 C 
ATOM     23  O   UNL     1      -2.186  11.735  18.050  0.00  0.00    +0.000 OA
ATOM     24  C   UNL     1      -3.359  12.056  18.793  0.00  0.00    +0.000 C 
ATOM     25  C   UNL     1      -2.894  12.705  20.073  0.00  0.00    +0.000 C 
ATOM     26  O   UNL     1      -1.536  12.319  20.227  0.00  0.00    +0.000 OA
ENDBRANCH  19  21
ENDBRANCH  13  16
ENDBRANCH   7  12
BRANCH   1  28
ATOM     27  C   UNL     1       6.347   4.585  14.621  0.00  0.00    +0.000 C 
ATOM     28  O   UNL     1       6.122   3.671  15.691  0.00  0.00    +0.000 OA
ENDBRANCH   1  28
BRANCH   6  29
ATOM     29  O   UNL     1       7.322   5.009  18.015  0.00  0.00    +0.000 OA
ATOM     30  C   UNL     1       7.715   5.817  19.114  0.00  0.00    +0.000 C 
ENDBRANCH   6  29
TORSDOF 5
ENDMDL
MODEL 2
REMARK VINA RESULT:      -8.4      0.768      1.258
REMARK  Name = 
REMARK  8 active torsions:
REMARK  status: ('A' for Active; 'I' for Inactive)
REMARK    1  A    between atoms: C_1  and  O_2
REMARK    2  A    between atoms: O_2  and  C_3
REMARK    3  A    between atoms: C_8  and  O_9
REMARK    4  A    between atoms: O_9  and  C_10
REMARK    5  A    between atoms: C_11  and  N_12
REMARK    6  A    between atoms: C_13  and  C_15
REMARK    7  A    between atoms: C_18  and  C_19
REMARK    8  A    between atoms: C_19  and  C_20
REMARK                            x       y       z     vdW  Elec       q    Type
REMARK                         _______ _______ _______ _____ _____    ______ ____
ROOT
ATOM      1  C   UNL     1       5.526   4.086  16.833  0.00  0.00    +0.000 A 
ATOM      2  C   UNL     1       4.130   3.964  16.770  0.00  0.00    +0.000 A 
ATOM      3  C   UNL     1       3.286   4.436  17.793  0.00  0.00    +0.000 A 
ATOM      4  C   UNL     1       3.859   5.045  18.919  0.00  0.00    +0.000 A 
ATOM      5  C   UNL     1       5.262   5.142  18.989  0.00  0.00    +0.000 A 
ATOM      6  C   UNL     1       6.102   4.664  17.971  0.00  0.00    +0.000 A 
ATOM      7  C   UNL     1       3.026   5.618  20.054  0.00  0.00    +0.000 C 
ATOM      8  C   UNL     1       2.217   4.516  20.757  0.00  0.00    +0.000 C 
ATOM      9  C   UNL     1       0.966   3.985  20.057  0.00  0.00    +0.000 C 
ATOM     10  C   UNL     1       1.134   3.388  18.660  0.00  0.00    +0.000 C 
ATOM     11  C   UNL     1       1.792   4.290  17.622  0.00  0.00    +0.000 C 
ENDROOT
BRANCH   7  12
ATOM     12  N   UNL     1       2.287   6.772  19.569  0.00  0.00    +0.000 N 
ATOM     13  C   UNL     1       1.691   7.720  20.373  0.00  0.00    +0.000 C 
ATOM     14  O   UNL     1       1.587   7.577  21.584  0.00  0.00    +0.000 OA
ATOM     15  H   UNL     1       2.513   7.081  18.631  0.00  0.00    +0.000 HD
BRANCH  13  16
ATOM     16  C   UNL     1       1.197   8.898  19.673  0.00  0.00    +0.000 A 
ATOM     17  C   UNL     1       1.652   9.423  18.482  0.00  0.00    +0.000 A 
ATOM     18  N   UNL     1       1.039  10.588  18.055  0.00  0.00    +0.000 NA
ATOM     19  C   UNL     1       0.114  10.961  18.925  0.00  0.00    +0.000 A 
ATOM     20  S   UNL     1      -0.092   9.872  20.255  0.00  0.00    +0.000 S 
BRANCH  19  21
ATOM     21  C   UNL     1      -0.698  12.246  18.854  0.00  0.00    +0.000 C 
ATOM     22  C   UNL     1      -2.026  12.063  18.124  0.00  0.00    +0.000 C 
ATOM     23  O   UNL     1      -0.990  12.703  20.177  0.00  0.00    +0.000 OA
ATOM     24  C   UNL     1      -0.578  14.067  20.238  0.00  0.00    +0.000 C 
ATOM     25  C   UNL     1      -0.163  14.453  18.840  0.00  0.00    +0.000 C 
ATOM     26  O   UNL     1       0.093  13.231  18.163  0.00  0.00    +0.000 OA
ENDBRANCH  19  21
ENDBRANCH  13  16
ENDBRANCH   7  12
BRANCH   1  28
ATOM     27  C   UNL     1       6.653   4.539  14.790  0.00  0.00    +0.000 C 
ATOM     28  O   UNL     1       6.338   3.620  15.832  0.00  0.00    +0.000 OA
ENDBRANCH   1  28
BRANCH   6  29
ATOM     29  O   UNL     1       7.426   4.856  18.265  0.00  0.00    +0.000 OA
ATOM     30  C   UNL     1       7.786   5.868  19.194  0.00  0.00    +0.000 C 
ENDBRANCH   6  29
TORSDOF 5
ENDMDL
MODEL 3
REMARK VINA RESULT:      -7.6      1.191      1.385
REMARK  Name = 
REMARK  8 active torsions:
REMARK  status: ('A' for Active; 'I' for Inactive)
REMARK    1  A    between atoms: C_1  and  O_2
REMARK    2  A    between atoms: O_2  and  C_3
REMARK    3  A    between atoms: C_8  and  O_9
REMARK    4  A    between atoms: O_9  and  C_10
REMARK    5  A    between atoms: C_11  and  N_12
REMARK    6  A    between atoms: C_13  and  C_15
REMARK    7  A    between atoms: C_18  and  C_19
REMARK    8  A    between atoms: C_19  and  C_20
REMARK                            x       y       z     vdW  Elec       q    Type
REMARK                         _______ _______ _______ _____ _____    ______ ____
ROOT
ATOM      1  C   UNL     1       5.694   4.269  16.984  0.00  0.00    +0.000 A 
ATOM      2  C   UNL     1       4.302   4.273  16.810  0.00  0.00    +0.000 A 
ATOM      3  C   UNL     1       3.417   4.676  17.828  0.00  0.00    +0.000 A 
ATOM      4  C   UNL     1       3.943   5.083  19.062  0.00  0.00    +0.000 A 
ATOM      5  C   UNL     1       5.339   5.054  19.241  0.00  0.00    +0.000 A 
ATOM      6  C   UNL     1       6.219   4.644  18.227  0.00  0.00    +0.000 A 
ATOM      7  C   UNL     1       3.067   5.570  20.206  0.00  0.00    +0.000 C 
ATOM      8  C   UNL     1       2.127   4.457  20.695  0.00  0.00    +0.000 C 
ATOM      9  C   UNL     1       0.899   4.128  19.845  0.00  0.00    +0.000 C 
ATOM     10  C   UNL     1       1.133   3.707  18.395  0.00  0.00    +0.000 C 
ATOM     11  C   UNL     1       1.935   4.678  17.537  0.00  0.00    +0.000 C 
ENDROOT
BRANCH   7  12
ATOM     12  N   UNL     1       2.455   6.835  19.832  0.00  0.00    +0.000 N 
ATOM     13  C   UNL     1       1.629   7.580  20.647  0.00  0.00    +0.000 C 
ATOM     14  O   UNL     1       1.198   7.150  21.709  0.00  0.00    +0.000 OA
ATOM     15  H   UNL     1       2.922   7.355  19.099  0.00  0.00    +0.000 HD
BRANCH  13  16
ATOM     16  C   UNL     1       1.311   8.912  20.148  0.00  0.00    +0.000 A 
ATOM     17  C   UNL     1       1.263   9.330  18.835  0.00  0.00    +0.000 A 
ATOM     18  N   UNL     1       0.983  10.670  18.632  0.00  0.00    +0.000 NA
ATOM     19  C   UNL     1       0.821  11.283  19.793  0.00  0.00    +0.000 A 
ATOM     20  S   UNL     1       0.933  10.238  21.170  0.00  0.00    +0.000 S 
BRANCH  19  21
ATOM     21  C   UNL     1       0.604  12.777  19.981  0.00  0.00    +0.000 C 
ATOM     22  C   UNL     1       1.639  13.410  20.909  0.00  0.00    +0.000 C 
ATOM     23  O   UNL     1       0.696  13.438  18.716  0.00  0.00    +0.000 OA
ATOM     24  C   UNL     1      -0.482  14.229  18.583  0.00  0.00    +0.000 C 
ATOM     25  C   UNL     1      -1.217  14.131  19.897  0.00  0.00    +0.000 C 
ATOM     26  O   UNL     1      -0.711  12.967  20.534  0.00  0.00    +0.000 OA
ENDBRANCH  19  21
ENDBRANCH  13  16
ENDBRANCH   7  12
BRANCH   1  28
ATOM     27  C   UNL     1       6.001   3.814  14.672  0.00  0.00    +0.000 C 
ATOM     28  O   UNL     1       6.546   3.872  15.987  0.00  0.00    +0.000 OA
ENDBRANCH   1  28
BRANCH   6  29
ATOM     29  O   UNL     1       7.527   4.685  18.634  0.00  0.00    +0.000 OA
ATOM     30  C   UNL     1       8.063   5.912  19.106  0.00  0.00    +0.000 C 
ENDBRANCH   6  29
TORSDOF 5
ENDMDL
MODEL 4
REMARK VINA RESULT:      -7.4      1.259      1.541
REMARK  Name = 
REMARK  8 active torsions:
REMARK  status: ('A' for Active; 'I' for Inactive)
REMARK    1  A    between atoms: C_1  and  O_2
REMARK    2  A    between atoms: O_2  and  C_3
REMARK    3  A    between atoms: C_8  and  O_9
REMARK    4  A    between atoms: O_9  and  C_10
REMARK    5  A    between atoms: C_11  and  N_12
REMARK    6  A    between atoms: C_13  and  C_15
REMARK    7  A    between atoms: C_18  and  C_19
REMARK    8  A    between atoms: C_19  and  C_20
REMARK                            x       y       z     vdW  Elec       q    Type
REMARK                         _______ _______ _______ _____ _____    ______ ____
ROOT
ATOM      1  C   UNL     1       5.239   3.982  16.794  0.00  0.00    +0.000 A 
ATOM      2  C   UNL     1       3.837   3.937  16.776  0.00  0.00    +0.000 A 
ATOM      3  C   UNL     1       3.060   4.231  17.912  0.00  0.00    +0.000 A 
ATOM      4  C   UNL     1       3.708   4.574  19.107  0.00  0.00    +0.000 A 
ATOM      5  C   UNL     1       5.115   4.593  19.127  0.00  0.00    +0.000 A 
ATOM      6  C   UNL     1       5.889   4.292  17.995  0.00  0.00    +0.000 A 
ATOM      7  C   UNL     1       2.951   4.943  20.373  0.00  0.00    +0.000 C 
ATOM      8  C   UNL     1       2.112   3.759  20.881  0.00  0.00    +0.000 C 
ATOM      9  C   UNL     1       0.809   3.436  20.150  0.00  0.00    +0.000 C 
ATOM     10  C   UNL     1       0.890   3.126  18.657  0.00  0.00    +0.000 C 
ATOM     11  C   UNL     1       1.555   4.188  17.788  0.00  0.00    +0.000 C 
ENDROOT
BRANCH   7  12
ATOM     12  N   UNL     1       2.257   6.203  20.164  0.00  0.00    +0.000 N 
ATOM     13  C   UNL     1       2.706   7.224  19.355  0.00  0.00    +0.000 C 
ATOM     14  O   UNL     1       3.830   7.227  18.869  0.00  0.00    +0.000 OA
ATOM     15  H   UNL     1       1.258   6.192  20.331  0.00  0.00    +0.000 HD
BRANCH  13  16
ATOM     16  C   UNL     1       1.746   8.296  19.125  0.00  0.00    +0.000 A 
ATOM     17  C   UNL     1       1.347   8.824  17.915  0.00  0.00    +0.000 A 
ATOM     18  N   UNL     1       0.453   9.878  17.975  0.00  0.00    +0.000 NA
ATOM     19  C   UNL     1       0.170  10.164  19.236  0.00  0.00    +0.000 A 
ATOM     20  S   UNL     1       0.924   9.116  20.389  0.00  0.00    +0.000 S 
BRANCH  19  21
ATOM     21  C   UNL     1      -0.692  11.327  19.706  0.00  0.00    +0.000 C 
ATOM     22  C   UNL     1      -2.000  11.442  18.927  0.00  0.00    +0.000 C 
ATOM     23  O   UNL     1      -1.024  11.152  21.085  0.00  0.00    +0.000 OA
ATOM     24  C   UNL     1      -0.669  12.364  21.747  0.00  0.00    +0.000 C 
ATOM     25  C   UNL     1      -0.246  13.334  20.671  0.00  0.00    +0.000 C 
ATOM     26  O   UNL     1       0.069  12.537  19.538  0.00  0.00    +0.000 OA
ENDBRANCH  19  21
ENDBRANCH  13  16
ENDBRANCH   7  12
BRANCH   1  28
ATOM     27  C   UNL     1       6.328   4.790  14.842  0.00  0.00    +0.000 C 
ATOM     28  O   UNL     1       5.986   3.691  15.682  0.00  0.00    +0.000 OA
ENDBRANCH   1  28
BRANCH   6  29
ATOM     29  O   UNL     1       7.232   4.362  18.256  0.00  0.00    +0.000 OA
ATOM     30  C   UNL     1       7.779   5.585  18.724  0.00  0.00    +0.000 C 
ENDBRANCH   6  29
TORSDOF 5
ENDMDL
MODEL 5
REMARK VINA RESULT:      -7.2      1.202      1.464
REMARK  Name = 
REMARK  8 active torsions:
REMARK  status: ('A' for Active; 'I' for Inactive)
REMARK    1  A    between atoms: C_1  and  O_2
REMARK    2  A    between atoms: O_2  and  C_3
REMARK    3  A    between atoms: C_8  and  O_9
REMARK    4  A    between atoms: O_9  and  C_10
REMARK    5  A    between atoms: C_11  and  N_12
REMARK    6  A    between atoms: C_13  and  C_15
REMARK    7  A    between atoms: C_18  and  C_19
REMARK    8  A    between atoms: C_19  and  C_20
REMARK                            x       y       z     vdW  Elec       q    Type
REMARK                         _______ _______ _______ _____ _____    ______ ____
ROOT
ATOM      1  C   UNL     1       5.439   4.064  16.729  0.00  0.00    +0.000 A 
ATOM      2  C   UNL     1       4.037   4.012  16.694  0.00  0.00    +0.000 A 
ATOM      3  C   UNL     1       3.247   4.241  17.837  0.00  0.00    +0.000 A 
ATOM      4  C   UNL     1       3.881   4.525  19.055  0.00  0.00    +0.000 A 
ATOM      5  C   UNL     1       5.288   4.551  19.090  0.00  0.00    +0.000 A 
ATOM      6  C   UNL     1       6.074   4.315  17.951  0.00  0.00    +0.000 A 
ATOM      7  C   UNL     1       3.110   4.822  20.330  0.00  0.00    +0.000 C 
ATOM      8  C   UNL     1       2.274   3.608  20.766  0.00  0.00    +0.000 C 
ATOM      9  C   UNL     1       0.979   3.316  20.007  0.00  0.00    +0.000 C 
ATOM     10  C   UNL     1       1.078   3.085  18.500  0.00  0.00    +0.000 C 
ATOM     11  C   UNL     1       1.743   4.196  17.696  0.00  0.00    +0.000 C 
ENDROOT
BRANCH   7  12
ATOM     12  N   UNL     1       2.408   6.087  20.181  0.00  0.00    +0.000 N 
ATOM     13  C   UNL     1       2.820   7.123  19.371  0.00  0.00    +0.000 C 
ATOM     14  O   UNL     1       3.919   7.134  18.830  0.00  0.00    +0.000 OA
ATOM     15  H   UNL     1       1.419   6.073  20.397  0.00  0.00    +0.000 HD
BRANCH  13  16
ATOM     16  C   UNL     1       1.853   8.201  19.210  0.00  0.00    +0.000 A 
ATOM     17  C   UNL     1       1.461   8.813  18.039  0.00  0.00    +0.000 A 
ATOM     18  N   UNL     1       0.557   9.852  18.166  0.00  0.00    +0.000 NA
ATOM     19  C   UNL     1       0.258  10.043  19.441  0.00  0.00    +0.000 A 
ATOM     20  S   UNL     1       1.011   8.919  20.523  0.00  0.00    +0.000 S 
BRANCH  19  21
ATOM     21  C   UNL     1      -0.619  11.160  19.986  0.00  0.00    +0.000 C 
ATOM     22  C   UNL     1      -0.797  11.083  21.500  0.00  0.00    +0.000 C 
ATOM     23  O   UNL     1      -0.026  12.426  19.684  0.00  0.00    +0.000 OA
ATOM     24  C   UNL     1      -1.035  13.208  19.049  0.00  0.00    +0.000 C 
ATOM     25  C   UNL     1      -2.309  12.405  19.120  0.00  0.00    +0.000 C 
ATOM     26  O   UNL     1      -1.905  11.062  19.349  0.00  0.00    +0.000 OA
ENDBRANCH  19  21
ENDBRANCH  13  16
ENDBRANCH   7  12
BRANCH   1  28
ATOM     27  C   UNL     1       5.655   4.289  14.372  0.00  0.00    +0.000 C 
ATOM     28  O   UNL     1       6.198   3.837  15.610  0.00  0.00    +0.000 OA
ENDBRANCH   1  28
BRANCH   6  29
ATOM     29  O   UNL     1       7.414   4.379  18.229  0.00  0.00    +0.000 OA
ATOM     30  C   UNL     1       7.912   5.485  18.967  0.00  0.00    +0.000 C 
ENDBRANCH   6  29
TORSDOF 5
ENDMDL
MODEL 6
REMARK VINA RESULT:      -7.2      1.300      1.447
REMARK  Name = 
REMARK  8 active torsions:
REMARK  status: ('A' for Active; 'I' for Inactive)
REMARK    1  A    between atoms: C_1  and  O_2
REMARK    2  A    between atoms: O_2  and  C_3
REMARK    3  A    between atoms: C_8  and  O_9
REMARK    4  A    between atoms: O_9  and  C_10
REMARK    5  A    between atoms: C_11  and  N_12
REMARK    6  A    between atoms: C_13  and  C_15
REMARK    7  A    between atoms: C_18  and  C_19
REMARK    8  A    between atoms: C_19  and  C_20
REMARK                            x       y       z     vdW  Elec       q    Type
REMARK                         _______ _______ _______ _____ _____    ______ ____
ROOT
ATOM      1  C   UNL     1       5.044   4.156  16.903  0.00  0.00    +0.000 A 
ATOM      2  C   UNL     1       3.641   4.115  16.914  0.00  0.00    +0.000 A 
ATOM      3  C   UNL     1       2.894   4.220  18.103  0.00  0.00    +0.000 A 
ATOM      4  C   UNL     1       3.574   4.366  19.321  0.00  0.00    +0.000 A 
ATOM      5  C   UNL     1       4.982   4.382  19.307  0.00  0.00    +0.000 A 
ATOM      6  C   UNL     1       5.725   4.269  18.122  0.00  0.00    +0.000 A 
ATOM      7  C   UNL     1       2.851   4.525  20.649  0.00  0.00    +0.000 C 
ATOM      8  C   UNL     1       2.021   3.275  20.980  0.00  0.00    +0.000 C 
ATOM      9  C   UNL     1       0.698   3.074  20.241  0.00  0.00    +0.000 C 
ATOM     10  C   UNL     1       0.740   3.009  18.715  0.00  0.00    +0.000 C 
ATOM     11  C   UNL     1       1.386   4.198  18.013  0.00  0.00    +0.000 C 
ENDROOT
BRANCH   7  12
ATOM     12  N   UNL     1       2.156   5.802  20.664  0.00  0.00    +0.000 N 
ATOM     13  C   UNL     1       2.576   6.934  20.000  0.00  0.00    +0.000 C 
ATOM     14  O   UNL     1       3.677   7.010  19.469  0.00  0.00    +0.000 OA
ATOM     15  H   UNL     1       1.166   5.765  20.873  0.00  0.00    +0.000 HD
BRANCH  13  16
ATOM     16  C   UNL     1       1.614   8.028  19.978  0.00  0.00    +0.000 A 
ATOM     17  C   UNL     1       0.713   8.377  20.962  0.00  0.00    +0.000 A 
ATOM     18  N   UNL     1      -0.130   9.434  20.670  0.00  0.00    +0.000 NA
ATOM     19  C   UNL     1       0.120   9.894  19.454  0.00  0.00    +0.000 A 
ATOM     20  S   UNL     1       1.436   9.105  18.653  0.00  0.00    +0.000 S 
BRANCH  19  21
ATOM     21  C   UNL     1      -0.670  10.981  18.741  0.00  0.00    +0.000 C 
ATOM     22  C   UNL     1       0.161  12.234  18.474  0.00  0.00    +0.000 C 
ATOM     23  O   UNL     1      -1.131  10.491  17.480  0.00  0.00    +0.000 OA
ATOM     24  C   UNL     1      -2.534  10.741  17.433  0.00  0.00    +0.000 C 
ATOM     25  C   UNL     1      -2.869  11.543  18.666  0.00  0.00    +0.000 C 
ATOM     26  O   UNL     1      -1.796  11.325  19.570  0.00  0.00    +0.000 OA
ENDBRANCH  19  21
ENDBRANCH  13  16
ENDBRANCH   7  12
BRANCH   1  28
ATOM     27  C   UNL     1       5.864   5.230  14.947  0.00  0.00    +0.000 C 
ATOM     28  O   UNL     1       5.760   4.050  15.740  0.00  0.00    +0.000 OA
ENDBRANCH   1  28
BRANCH   6  29
ATOM     29  O   UNL     1       7.074   4.296  18.356  0.00  0.00    +0.000 OA
ATOM     30  C   UNL     1       7.708   5.545  18.584  0.00  0.00    +0.000 C 
ENDBRANCH   6  29
TORSDOF 5
ENDMDL
MODEL 7
REMARK VINA RESULT:      -7.2      1.325      1.671
REMARK  Name = 
REMARK  8 active torsions:
REMARK  status: ('A' for Active; 'I' for Inactive)
REMARK    1  A    between atoms: C_1  and  O_2
REMARK    2  A    between atoms: O_2  and  C_3
REMARK    3  A    between atoms: C_8  and  O_9
REMARK    4  A    between atoms: O_9  and  C_10
REMARK    5  A    between atoms: C_11  and  N_12
REMARK    6  A    between atoms: C_13  and  C_15
REMARK    7  A    between atoms: C_18  and  C_19
REMARK    8  A    between atoms: C_19  and  C_20
REMARK                            x       y       z     vdW  Elec       q    Type
REMARK                         _______ _______ _______ _____ _____    ______ ____
ROOT
ATOM      1  C   UNL     1       5.294   4.332  16.859  0.00  0.00    +0.000 A 
ATOM      2  C   UNL     1       3.893   4.263  16.822  0.00  0.00    +0.000 A 
ATOM      3  C   UNL     1       3.107   4.301  17.990  0.00  0.00    +0.000 A 
ATOM      4  C   UNL     1       3.744   4.406  19.234  0.00  0.00    +0.000 A 
ATOM      5  C   UNL     1       5.151   4.449  19.267  0.00  0.00    +0.000 A 
ATOM      6  C   UNL     1       5.934   4.403  18.102  0.00  0.00    +0.000 A 
ATOM      7  C   UNL     1       2.977   4.491  20.544  0.00  0.00    +0.000 C 
ATOM      8  C   UNL     1       2.163   3.211  20.792  0.00  0.00    +0.000 C 
ATOM      9  C   UNL     1       0.869   3.017  20.002  0.00  0.00    +0.000 C 
ATOM     10  C   UNL     1       0.961   3.022  18.477  0.00  0.00    +0.000 C 
ATOM     11  C   UNL     1       1.604   4.253  17.850  0.00  0.00    +0.000 C 
ENDROOT
BRANCH   7  12
ATOM     12  N   UNL     1       2.255   5.753  20.592  0.00  0.00    +0.000 N 
ATOM     13  C   UNL     1       2.642   6.906  19.944  0.00  0.00    +0.000 C 
ATOM     14  O   UNL     1       3.734   7.015  19.401  0.00  0.00    +0.000 OA
ATOM     15  H   UNL     1       1.269   5.690  20.813  0.00  0.00    +0.000 HD
BRANCH  13  16
ATOM     16  C   UNL     1       1.656   7.979  19.956  0.00  0.00    +0.000 A 
ATOM     17  C   UNL     1       0.783   8.310  20.970  0.00  0.00    +0.000 A 
ATOM     18  N   UNL     1      -0.092   9.348  20.707  0.00  0.00    +0.000 NA
ATOM     19  C   UNL     1       0.106   9.812  19.483  0.00  0.00    +0.000 A 
ATOM     20  S   UNL     1       1.410   9.049  18.637  0.00  0.00    +0.000 S 
BRANCH  19  21
ATOM     21  C   UNL     1      -0.732  10.881  18.798  0.00  0.00    +0.000 C 
ATOM     22  C   UNL     1      -1.527  10.336  17.614  0.00  0.00    +0.000 C 
ATOM     23  O   UNL     1      -1.666  11.430  19.731  0.00  0.00    +0.000 OA
ATOM     24  C   UNL     1      -1.508  12.845  19.683  0.00  0.00    +0.000 C 
ATOM     25  C   UNL     1      -0.536  13.131  18.564  0.00  0.00    +0.000 C 
ATOM     26  O   UNL     1       0.159  11.914  18.338  0.00  0.00    +0.000 OA
ENDBRANCH  19  21
ENDBRANCH  13  16
ENDBRANCH   7  12
BRANCH   1  28
ATOM     27  C   UNL     1       5.349   4.455  14.486  0.00  0.00    +0.000 C 
ATOM     28  O   UNL     1       6.049   4.291  15.716  0.00  0.00    +0.000 OA
ENDBRANCH   1  28
BRANCH   6  29
ATOM     29  O   UNL     1       7.274   4.447  18.382  0.00  0.00    +0.000 OA
ATOM     30  C   UNL     1       7.814   5.612  18.986  0.00  0.00    +0.000 C 
ENDBRANCH   6  29
TORSDOF 5
ENDMDL
MODEL 8
REMARK VINA RESULT:      -6.7      1.582      2.089
REMARK  Name = 
REMARK  8 active torsions:
REMARK  status: ('A' for Active; 'I' for Inactive)
REMARK    1  A    between atoms: C_1  and  O_2
REMARK    2  A    between atoms: O_2  and  C_3
REMARK    3  A    between atoms: C_8  and  O_9
REMARK    4  A    between atoms: O_9  and  C_10
REMARK    5  A    between atoms: C_11  and  N_12
REMARK    6  A    between atoms: C_13  and  C_15
REMARK    7  A    between atoms: C_18  and  C_19
REMARK    8  A    between atoms: C_19  and  C_20
REMARK                            x       y       z     vdW  Elec       q    Type
REMARK                         _______ _______ _______ _____ _____    ______ ____
ROOT
ATOM      1  C   UNL     1       6.309   4.739  16.689  0.00  0.00    +0.000 A 
ATOM      2  C   UNL     1       4.930   4.760  16.429  0.00  0.00    +0.000 A 
ATOM      3  C   UNL     1       3.972   4.863  17.456  0.00  0.00    +0.000 A 
ATOM      4  C   UNL     1       4.409   4.943  18.786  0.00  0.00    +0.000 A 
ATOM      5  C   UNL     1       5.792   4.896  19.043  0.00  0.00    +0.000 A 
ATOM      6  C   UNL     1       6.746   4.784  18.018  0.00  0.00    +0.000 A 
ATOM      7  C   UNL     1       3.450   5.094  19.956  0.00  0.00    +0.000 C 
ATOM      8  C   UNL     1       2.525   3.873  20.075  0.00  0.00    +0.000 C 
ATOM      9  C   UNL     1       1.363   3.753  19.089  0.00  0.00    +0.000 C 
ATOM     10  C   UNL     1       1.696   3.732  17.598  0.00  0.00    +0.000 C 
ATOM     11  C   UNL     1       2.510   4.911  17.078  0.00  0.00    +0.000 C 
ENDROOT
BRANCH   7  12
ATOM     12  N   UNL     1       2.815   6.400  19.886  0.00  0.00    +0.000 N 
ATOM     13  C   UNL     1       1.799   6.826  20.715  0.00  0.00    +0.000 C 
ATOM     14  O   UNL     1       1.220   6.068  21.483  0.00  0.00    +0.000 OA
ATOM     15  H   UNL     1       3.362   7.137  19.459  0.00  0.00    +0.000 HD
BRANCH  13  16
ATOM     16  C   UNL     1       1.468   8.241  20.606  0.00  0.00    +0.000 A 
ATOM     17  C   UNL     1       1.128   9.107  21.624  0.00  0.00    +0.000 A 
ATOM     18  N   UNL     1       0.808  10.398  21.245  0.00  0.00    +0.000 NA
ATOM     19  C   UNL     1       0.898  10.522  19.931  0.00  0.00    +0.000 A 
ATOM     20  S   UNL     1       1.443   9.094  19.117  0.00  0.00    +0.000 S 
BRANCH  19  21
ATOM     21  C   UNL     1       0.523  11.763  19.133  0.00  0.00    +0.000 C 
ATOM     22  C   UNL     1      -0.664  11.527  18.202  0.00  0.00    +0.000 C 
ATOM     23  O   UNL     1       0.167  12.819  20.028  0.00  0.00    +0.000 OA
ATOM     24  C   UNL     1       0.946  13.952  19.652  0.00  0.00    +0.000 C 
ATOM     25  C   UNL     1       1.678  13.571  18.389  0.00  0.00    +0.000 C 
ATOM     26  O   UNL     1       1.669  12.151  18.354  0.00  0.00    +0.000 OA
ENDBRANCH  19  21
ENDBRANCH  13  16
ENDBRANCH   7  12
BRANCH   1  28
ATOM     27  C   UNL     1       6.719   4.406  14.371  0.00  0.00    +0.000 C 
ATOM     28  O   UNL     1       7.232   4.635  15.681  0.00  0.00    +0.000 OA
ENDBRANCH   1  28
BRANCH   6  29
ATOM     29  O   UNL     1       8.025   4.745  18.508  0.00  0.00    +0.000 OA
ATOM     30  C   UNL     1       8.342   5.498  19.668  0.00  0.00    +0.000 C 
ENDBRANCH   6  29
TORSDOF 5
ENDMDL
MODEL 9
REMARK VINA RESULT:      -6.7      1.323      1.524
REMARK  Name = 
REMARK  8 active torsions:
REMARK  status: ('A' for Active; 'I' for Inactive)
REMARK    1  A    between atoms: C_1  and  O_2
REMARK    2  A    between atoms: O_2  and  C_3
REMARK    3  A    between atoms: C_8  and  O_9
REMARK    4  A    between atoms: O_9  and  C_10
REMARK    5  A    between atoms: C_11  and  N_12
REMARK    6  A    between atoms: C_13  and  C_15
REMARK    7  A    between atoms: C_18  and  C_19
REMARK    8  A    between atoms: C_19  and  C_20
REMARK                            x       y       z     vdW  Elec       q    Type
REMARK                         _______ _______ _______ _____ _____    ______ ____
ROOT
ATOM      1  C   UNL     1       5.745   4.183  16.443  0.00  0.00    +0.000 A 
ATOM      2  C   UNL     1       4.342   4.194  16.405  0.00  0.00    +0.000 A 
ATOM      3  C   UNL     1       3.560   4.438  17.549  0.00  0.00    +0.000 A 
ATOM      4  C   UNL     1       4.203   4.673  18.773  0.00  0.00    +0.000 A 
ATOM      5  C   UNL     1       5.609   4.636  18.811  0.00  0.00    +0.000 A 
ATOM      6  C   UNL     1       6.388   4.384  17.670  0.00  0.00    +0.000 A 
ATOM      7  C   UNL     1       3.442   4.983  20.052  0.00  0.00    +0.000 C 
ATOM      8  C   UNL     1       2.552   3.800  20.466  0.00  0.00    +0.000 C 
ATOM      9  C   UNL     1       1.248   3.579  19.700  0.00  0.00    +0.000 C 
ATOM     10  C   UNL     1       1.339   3.370  18.189  0.00  0.00    +0.000 C 
ATOM     11  C   UNL     1       2.056   4.463  17.405  0.00  0.00    +0.000 C 
ENDROOT
BRANCH   7  12
ATOM     12  N   UNL     1       2.799   6.281  19.923  0.00  0.00    +0.000 N 
ATOM     13  C   UNL     1       1.786   6.741  20.736  0.00  0.00    +0.000 C 
ATOM     14  O   UNL     1       1.216   6.018  21.544  0.00  0.00    +0.000 OA
ATOM     15  H   UNL     1       3.339   6.999  19.457  0.00  0.00    +0.000 HD
BRANCH  13  16
ATOM     16  C   UNL     1       1.447   8.147  20.561  0.00  0.00    +0.000 A 
ATOM     17  C   UNL     1       0.914   9.008  21.497  0.00  0.00    +0.000 A 
ATOM     18  N   UNL     1       0.635  10.290  21.059  0.00  0.00    +0.000 NA
ATOM     19  C   UNL     1       0.950  10.412  19.779  0.00  0.00    +0.000 A 
ATOM     20  S   UNL     1       1.662   8.994  19.084  0.00  0.00    +0.000 S 
BRANCH  19  21
ATOM     21  C   UNL     1       0.691  11.640  18.919  0.00  0.00    +0.000 C 
ATOM     22  C   UNL     1       1.920  12.067  18.119  0.00  0.00    +0.000 C 
ATOM     23  O   UNL     1      -0.356  11.361  17.987  0.00  0.00    +0.000 OA
ATOM     24  C   UNL     1      -1.315  12.407  18.125  0.00  0.00    +0.000 C 
ATOM     25  C   UNL     1      -0.720  13.412  19.080  0.00  0.00    +0.000 C 
ATOM     26  O   UNL     1       0.294  12.714  19.790  0.00  0.00    +0.000 OA
ENDBRANCH  19  21
ENDBRANCH  13  16
ENDBRANCH   7  12
BRANCH   1  28
ATOM     27  C   UNL     1       6.912   5.083  14.578  0.00  0.00    +0.000 C 
ATOM     28  O   UNL     1       6.496   3.941  15.322  0.00  0.00    +0.000 OA
ENDBRANCH   1  28
BRANCH   6  29
ATOM     29  O   UNL     1       7.729   4.384  17.952  0.00  0.00    +0.000 OA
ATOM     30  C   UNL     1       8.220   5.252  18.962  0.00  0.00    +0.000 C 
ENDBRANCH   6  29
TORSDOF 5
ENDMDL
