MODEL 1
REMARK VINA RESULT:      -7.3      0.000      0.000
REMARK  Name = 
REMARK  10 active torsions:
REMARK  status: ('A' for Active; 'I' for Inactive)
REMARK    1  A    between atoms: C_1  and  C_2
REMARK    2  A    between atoms: C_2  and  N_3
REMARK    3  A    between atoms: C_5  and  C_6
REMARK    4  A    between atoms: C_6  and  N_7
REMARK    5  A    between atoms: N_7  and  C_8
REMARK    6  A    between atoms: C_8  and  C_9
REMARK    7  A    between atoms: C_8  and  C_10
REMARK    8  A    between atoms: N_14  and  C_15
REMARK    9  A    between atoms: N_14  and  C_16
REMARK   10  A    between atoms: C_23  and  C_24
REMARK                            x       y       z     vdW  Elec       q    Type
REMARK                         _______ _______ _______ _____ _____    ______ ____
ROOT
ATOM      1  C   UNL     1       1.163   9.599  19.061  0.00  0.00    +0.000 A 
ATOM      2  C   UNL     1       1.710   9.203  17.858  0.00  0.00    +0.000 A 
ATOM      3  N   UNL     1       2.437   8.092  17.675  0.00  0.00    +0.000 NA
ATOM      4  C   UNL     1       2.637   7.288  18.730  0.00  0.00    +0.000 A 
ATOM      5  N   UNL     1       3.506   6.221  18.584  0.00  0.00    +0.000 N 
ATOM      6  C   UNL     1       4.471   6.329  17.508  0.00  0.00    +0.000 C 
ATOM      7  N   UNL     1       2.084   7.545  19.926  0.00  0.00    +0.000 NA
ATOM      8  C   UNL     1       1.379   8.697  20.097  0.00  0.00    +0.000 A 
ATOM      9  C   UNL     1       0.848   8.909  21.484  0.00  0.00    +0.000 C 
ENDROOT
BRANCH   5  10
ATOM     10  C   UNL     1       3.301   4.989  19.361  0.00  0.00    +0.000 C 
ATOM     11  C   UNL     1       1.848   4.488  19.308  0.00  0.00    +0.000 C 
ATOM     12  C   UNL     1       1.466   3.771  18.014  0.00  0.00    +0.000 C 
ATOM     13  C   UNL     1       2.459   2.698  17.582  0.00  0.00    +0.000 C 
ATOM     14  C   UNL     1       3.927   3.089  17.708  0.00  0.00    +0.000 C 
ATOM     15  C   UNL     1       4.267   3.853  18.988  0.00  0.00    +0.000 C 
ENDBRANCH   5  10
BRANCH   1  16
ATOM     16  C   UNL     1       0.431  10.922  19.125  0.00  0.00    +0.000 C 
ATOM     17  C   UNL     1      -1.036  10.766  18.700  0.00  0.00    +0.000 C 
BRANCH  16  18
ATOM     18  N   UNL     1       1.160  11.961  18.392  0.00  0.00    +0.000 NA
ATOM     19  H   UNL     1       1.883  11.512  17.827  0.00  0.00    +0.000 HD
BRANCH  18  20
ATOM     20  C   UNL     1       1.821  12.936  19.260  0.00  0.00    +0.000 C 
BRANCH  20  23
ATOM     21  N   UNL     1       0.908  16.381  18.460  0.00  0.00    +0.000 N 
ATOM     22  C   UNL     1       1.875  15.443  18.660  0.00  0.00    +0.000 A 
ATOM     23  C   UNL     1       1.225  14.270  18.980  0.00  0.00    +0.000 A 
ATOM     24  C   UNL     1      -0.145  14.625  18.961  0.00  0.00    +0.000 A 
ATOM     25  N   UNL     1      -0.339  15.908  18.648  0.00  0.00    +0.000 NA
BRANCH  21  27
ATOM     26  C   UNL     1       0.093  18.159  16.979  0.00  0.00    +0.000 C 
ATOM     27  C   UNL     1       1.108  17.751  18.031  0.00  0.00    +0.000 C 
ENDBRANCH  21  27
ENDBRANCH  20  23
ENDBRANCH  18  20
ENDBRANCH  16  18
ENDBRANCH   1  16
TORSDOF 6
ENDMDL
MODEL 2
REMARK VINA RESULT:      -7.3      2.727      3.798
REMARK  Name = 
REMARK  10 active torsions:
REMARK  status: ('A' for Active; 'I' for Inactive)
REMARK    1  A    between atoms: C_1  and  C_2
REMARK    2  A    between atoms: C_2  and  N_3
REMARK    3  A    between atoms: C_5  and  C_6
REMARK    4  A    between atoms: C_6  and  N_7
REMARK    5  A    between atoms: N_7  and  C_8
REMARK    6  A    between atoms: C_8  and  C_9
REMARK    7  A    between atoms: C_8  and  C_10
REMARK    8  A    between atoms: N_14  and  C_15
REMARK    9  A    between atoms: N_14  and  C_16
REMARK   10  A    between atoms: C_23  and  C_24
REMARK                            x       y       z     vdW  Elec       q    Type
REMARK                         _______ _______ _______ _____ _____    ______ ____
ROOT
ATOM      1  C   UNL     1       0.947   9.932  19.403  0.00  0.00    +0.000 A 
ATOM      2  C   UNL     1       1.410   9.593  18.149  0.00  0.00    +0.000 A 
ATOM      3  N   UNL     1       2.114   8.488  17.864  0.00  0.00    +0.000 NA
ATOM      4  C   UNL     1       2.377   7.633  18.863  0.00  0.00    +0.000 A 
ATOM      5  N   UNL     1       3.226   6.569  18.609  0.00  0.00    +0.000 N 
ATOM      6  C   UNL     1       4.118   6.726  17.477  0.00  0.00    +0.000 C 
ATOM      7  N   UNL     1       1.906   7.833  20.104  0.00  0.00    +0.000 NA
ATOM      8  C   UNL     1       1.223   8.980  20.378  0.00  0.00    +0.000 A 
ATOM      9  C   UNL     1       0.787   9.125  21.806  0.00  0.00    +0.000 C 
ENDROOT
BRANCH   5  10
ATOM     10  C   UNL     1       3.063   5.303  19.336  0.00  0.00    +0.000 C 
ATOM     11  C   UNL     1       1.774   4.557  18.950  0.00  0.00    +0.000 C 
ATOM     12  C   UNL     1       1.841   3.816  17.615  0.00  0.00    +0.000 C 
ATOM     13  C   UNL     1       3.080   2.944  17.450  0.00  0.00    +0.000 C 
ATOM     14  C   UNL     1       4.385   3.582  17.912  0.00  0.00    +0.000 C 
ATOM     15  C   UNL     1       4.273   4.362  19.223  0.00  0.00    +0.000 C 
ENDBRANCH   5  10
BRANCH   1  16
ATOM     16  C   UNL     1       0.231  11.254  19.580  0.00  0.00    +0.000 C 
ATOM     17  C   UNL     1       1.072  12.233  20.413  0.00  0.00    +0.000 C 
BRANCH  16  18
ATOM     18  N   UNL     1      -1.129  11.050  20.087  0.00  0.00    +0.000 NA
ATOM     19  H   UNL     1      -1.545  10.261  19.589  0.00  0.00    +0.000 HD
BRANCH  18  20
ATOM     20  C   UNL     1      -2.005  12.206  19.895  0.00  0.00    +0.000 C 
BRANCH  20  23
ATOM     21  N   UNL     1      -3.840  11.277  16.877  0.00  0.00    +0.000 N 
ATOM     22  C   UNL     1      -2.649  11.493  17.502  0.00  0.00    +0.000 A 
ATOM     23  C   UNL     1      -2.947  11.882  18.791  0.00  0.00    +0.000 A 
ATOM     24  C   UNL     1      -4.362  11.884  18.825  0.00  0.00    +0.000 A 
ATOM     25  N   UNL     1      -4.906  11.520  17.662  0.00  0.00    +0.000 NA
BRANCH  21  27
ATOM     26  C   UNL     1      -2.785  10.082  15.012  0.00  0.00    +0.000 C 
ATOM     27  C   UNL     1      -4.029  10.783  15.527  0.00  0.00    +0.000 C 
ENDBRANCH  21  27
ENDBRANCH  20  23
ENDBRANCH  18  20
ENDBRANCH  16  18
ENDBRANCH   1  16
TORSDOF 6
ENDMDL
MODEL 3
REMARK VINA RESULT:      -7.2      3.138      4.161
REMARK  Name = 
REMARK  10 active torsions:
REMARK  status: ('A' for Active; 'I' for Inactive)
REMARK    1  A    between atoms: C_1  and  C_2
REMARK    2  A    between atoms: C_2  and  N_3
REMARK    3  A    between atoms: C_5  and  C_6
REMARK    4  A    between atoms: C_6  and  N_7
REMARK    5  A    between atoms: N_7  and  C_8
REMARK    6  A    between atoms: C_8  and  C_9
REMARK    7  A    between atoms: C_8  and  C_10
REMARK    8  A    between atoms: N_14  and  C_15
REMARK    9  A    between atoms: N_14  and  C_16
REMARK   10  A    between atoms: C_23  and  C_24
REMARK                            x       y       z     vdW  Elec       q    Type
REMARK                         _______ _______ _______ _____ _____    ______ ____
ROOT
ATOM      1  C   UNL     1       1.273   8.981  20.091  0.00  0.00    +0.000 A 
ATOM      2  C   UNL     1       1.208   8.029  21.087  0.00  0.00    +0.000 A 
ATOM      3  N   UNL     1       1.593   6.752  20.952  0.00  0.00    +0.000 NA
ATOM      4  C   UNL     1       2.097   6.366  19.771  0.00  0.00    +0.000 A 
ATOM      5  N   UNL     1       2.357   5.020  19.578  0.00  0.00    +0.000 N 
ATOM      6  C   UNL     1       1.639   4.104  20.443  0.00  0.00    +0.000 C 
ATOM      7  N   UNL     1       2.272   7.234  18.762  0.00  0.00    +0.000 NA
ATOM      8  C   UNL     1       1.842   8.518  18.910  0.00  0.00    +0.000 A 
ATOM      9  C   UNL     1       2.041   9.390  17.705  0.00  0.00    +0.000 C 
ENDROOT
BRANCH   5  10
ATOM     10  C   UNL     1       3.445   4.598  18.684  0.00  0.00    +0.000 C 
ATOM     11  C   UNL     1       4.494   3.727  19.394  0.00  0.00    +0.000 C 
ATOM     12  C   UNL     1       4.074   2.274  19.617  0.00  0.00    +0.000 C 
ATOM     13  C   UNL     1       3.509   1.594  18.375  0.00  0.00    +0.000 C 
ATOM     14  C   UNL     1       2.538   2.441  17.561  0.00  0.00    +0.000 C 
ATOM     15  C   UNL     1       2.959   3.903  17.402  0.00  0.00    +0.000 C 
ENDBRANCH   5  10
BRANCH   1  16
ATOM     16  C   UNL     1       0.728  10.365  20.373  0.00  0.00    +0.000 C 
ATOM     17  C   UNL     1       0.158  10.457  21.796  0.00  0.00    +0.000 C 
BRANCH  16  18
ATOM     18  N   UNL     1      -0.206  10.784  19.325  0.00  0.00    +0.000 NA
ATOM     19  H   UNL     1       0.290  11.398  18.675  0.00  0.00    +0.000 HD
BRANCH  18  20
ATOM     20  C   UNL     1      -1.364  11.520  19.832  0.00  0.00    +0.000 C 
BRANCH  20  23
ATOM     21  N   UNL     1      -3.498  11.292  16.877  0.00  0.00    +0.000 N 
ATOM     22  C   UNL     1      -2.268  11.154  17.445  0.00  0.00    +0.000 A 
ATOM     23  C   UNL     1      -2.402  11.522  18.767  0.00  0.00    +0.000 A 
ATOM     24  C   UNL     1      -3.766  11.886  18.880  0.00  0.00    +0.000 A 
ATOM     25  N   UNL     1      -4.432  11.749  17.732  0.00  0.00    +0.000 NA
BRANCH  21  27
ATOM     26  C   UNL     1      -2.845  10.021  14.882  0.00  0.00    +0.000 C 
ATOM     27  C   UNL     1      -3.864  10.950  15.516  0.00  0.00    +0.000 C 
ENDBRANCH  21  27
ENDBRANCH  20  23
ENDBRANCH  18  20
ENDBRANCH  16  18
ENDBRANCH   1  16
TORSDOF 6
ENDMDL
MODEL 4
REMARK VINA RESULT:      -7.2      2.857      8.971
REMARK  Name = 
REMARK  10 active torsions:
REMARK  status: ('A' for Active; 'I' for Inactive)
REMARK    1  A    between atoms: C_1  and  C_2
REMARK    2  A    between atoms: C_2  and  N_3
REMARK    3  A    between atoms: C_5  and  C_6
REMARK    4  A    between atoms: C_6  and  N_7
REMARK    5  A    between atoms: N_7  and  C_8
REMARK    6  A    between atoms: C_8  and  C_9
REMARK    7  A    between atoms: C_8  and  C_10
REMARK    8  A    between atoms: N_14  and  C_15
REMARK    9  A    between atoms: N_14  and  C_16
REMARK   10  A    between atoms: C_23  and  C_24
REMARK                            x       y       z     vdW  Elec       q    Type
REMARK                         _______ _______ _______ _____ _____    ______ ____
ROOT
ATOM      1  C   UNL     1       2.386   6.464  19.727  0.00  0.00    +0.000 A 
ATOM      2  C   UNL     1       1.593   6.916  20.760  0.00  0.00    +0.000 A 
ATOM      3  N   UNL     1       1.049   8.140  20.830  0.00  0.00    +0.000 NA
ATOM      4  C   UNL     1       1.272   8.988  19.816  0.00  0.00    +0.000 A 
ATOM      5  N   UNL     1       0.840  10.297  19.950  0.00  0.00    +0.000 N 
ATOM      6  C   UNL     1       0.629  10.761  21.307  0.00  0.00    +0.000 C 
ATOM      7  N   UNL     1       1.968   8.619  18.729  0.00  0.00    +0.000 NA
ATOM      8  C   UNL     1       2.540   7.384  18.695  0.00  0.00    +0.000 A 
ATOM      9  C   UNL     1       3.336   7.093  17.457  0.00  0.00    +0.000 C 
ENDROOT
BRANCH   5  10
ATOM     10  C   UNL     1       0.439  11.067  18.764  0.00  0.00    +0.000 C 
ATOM     11  C   UNL     1      -0.664  10.373  17.948  0.00  0.00    +0.000 C 
ATOM     12  C   UNL     1      -2.068  10.496  18.539  0.00  0.00    +0.000 C 
ATOM     13  C   UNL     1      -2.454  11.917  18.933  0.00  0.00    +0.000 C 
ATOM     14  C   UNL     1      -1.367  12.704  19.655  0.00  0.00    +0.000 C 
ATOM     15  C   UNL     1       0.036  12.518  19.074  0.00  0.00    +0.000 C 
ENDBRANCH   5  10
BRANCH   1  16
ATOM     16  C   UNL     1       2.991   5.080  19.828  0.00  0.00    +0.000 C 
ATOM     17  C   UNL     1       2.487   4.344  21.079  0.00  0.00    +0.000 C 
BRANCH  16  18
ATOM     18  N   UNL     1       4.451   5.136  19.713  0.00  0.00    +0.000 NA
ATOM     19  H   UNL     1       4.700   5.946  19.142  0.00  0.00    +0.000 HD
BRANCH  18  20
ATOM     20  C   UNL     1       5.035   3.954  19.081  0.00  0.00    +0.000 C 
BRANCH  20  23
ATOM     21  N   UNL     1       6.745   4.804  15.968  0.00  0.00    +0.000 N 
ATOM     22  C   UNL     1       5.756   4.123  16.612  0.00  0.00    +0.000 A 
ATOM     23  C   UNL     1       5.886   4.416  17.953  0.00  0.00    +0.000 A 
ATOM     24  C   UNL     1       7.009   5.276  18.004  0.00  0.00    +0.000 A 
ATOM     25  N   UNL     1       7.534   5.510  16.800  0.00  0.00    +0.000 NA
BRANCH  21  27
ATOM     26  C   UNL     1       6.060   3.892  13.796  0.00  0.00    +0.000 C 
ATOM     27  C   UNL     1       6.962   4.863  14.536  0.00  0.00    +0.000 C 
ENDBRANCH  21  27
ENDBRANCH  20  23
ENDBRANCH  18  20
ENDBRANCH  16  18
ENDBRANCH   1  16
TORSDOF 6
ENDMDL
MODEL 5
REMARK VINA RESULT:      -7.1      2.779      3.911
REMARK  Name = 
REMARK  10 active torsions:
REMARK  status: ('A' for Active; 'I' for Inactive)
REMARK    1  A    between atoms: C_1  and  C_2
REMARK    2  A    between atoms: C_2  and  N_3
REMARK    3  A    between atoms: C_5  and  C_6
REMARK    4  A    between atoms: C_6  and  N_7
REMARK    5  A    between atoms: N_7  and  C_8
REMARK    6  A    between atoms: C_8  and  C_9
REMARK    7  A    between atoms: C_8  and  C_10
REMARK    8  A    between atoms: N_14  and  C_15
REMARK    9  A    between atoms: N_14  and  C_16
REMARK   10  A    between atoms: C_23  and  C_24
REMARK                            x       y       z     vdW  Elec       q    Type
REMARK                         _______ _______ _______ _____ _____    ______ ____
ROOT
ATOM      1  C   UNL     1       1.218   9.485  19.106  0.00  0.00    +0.000 A 
ATOM      2  C   UNL     1       1.780   9.091  17.909  0.00  0.00    +0.000 A 
ATOM      3  N   UNL     1       2.506   7.978  17.733  0.00  0.00    +0.000 NA
ATOM      4  C   UNL     1       2.691   7.172  18.789  0.00  0.00    +0.000 A 
ATOM      5  N   UNL     1       3.560   6.103  18.653  0.00  0.00    +0.000 N 
ATOM      6  C   UNL     1       4.539   6.211  17.589  0.00  0.00    +0.000 C 
ATOM      7  N   UNL     1       2.124   7.427  19.978  0.00  0.00    +0.000 NA
ATOM      8  C   UNL     1       1.419   8.581  20.143  0.00  0.00    +0.000 A 
ATOM      9  C   UNL     1       0.870   8.791  21.524  0.00  0.00    +0.000 C 
ENDROOT
BRANCH   5  10
ATOM     10  C   UNL     1       3.343   4.870  19.424  0.00  0.00    +0.000 C 
ATOM     11  C   UNL     1       1.885   4.383  19.367  0.00  0.00    +0.000 C 
ATOM     12  C   UNL     1       1.498   3.674  18.070  0.00  0.00    +0.000 C 
ATOM     13  C   UNL     1       2.482   2.594  17.636  0.00  0.00    +0.000 C 
ATOM     14  C   UNL     1       3.953   2.971  17.764  0.00  0.00    +0.000 C 
ATOM     15  C   UNL     1       4.299   3.726  19.048  0.00  0.00    +0.000 C 
ENDBRANCH   5  10
BRANCH   1  16
ATOM     16  C   UNL     1       0.488  10.810  19.163  0.00  0.00    +0.000 C 
ATOM     17  C   UNL     1       1.256  11.830  20.016  0.00  0.00    +0.000 C 
BRANCH  16  18
ATOM     18  N   UNL     1      -0.908  10.621  19.567  0.00  0.00    +0.000 NA
ATOM     19  H   UNL     1      -1.372  10.039  18.866  0.00  0.00    +0.000 HD
BRANCH  18  20
ATOM     20  C   UNL     1      -1.662  11.871  19.671  0.00  0.00    +0.000 C 
BRANCH  20  23
ATOM     21  N   UNL     1      -4.814  11.859  17.828  0.00  0.00    +0.000 N 
ATOM     22  C   UNL     1      -4.146  12.036  19.001  0.00  0.00    +0.000 A 
ATOM     23  C   UNL     1      -2.816  11.785  18.738  0.00  0.00    +0.000 A 
ATOM     24  C   UNL     1      -2.801  11.443  17.364  0.00  0.00    +0.000 A 
ATOM     25  N   UNL     1      -4.015  11.484  16.811  0.00  0.00    +0.000 NA
BRANCH  21  27
ATOM     26  C   UNL     1      -7.085  11.216  18.500  0.00  0.00    +0.000 C 
ATOM     27  C   UNL     1      -6.228  12.084  17.596  0.00  0.00    +0.000 C 
ENDBRANCH  21  27
ENDBRANCH  20  23
ENDBRANCH  18  20
ENDBRANCH  16  18
ENDBRANCH   1  16
TORSDOF 6
ENDMDL
MODEL 6
REMARK VINA RESULT:      -7.1      1.224      1.755
REMARK  Name = 
REMARK  10 active torsions:
REMARK  status: ('A' for Active; 'I' for Inactive)
REMARK    1  A    between atoms: C_1  and  C_2
REMARK    2  A    between atoms: C_2  and  N_3
REMARK    3  A    between atoms: C_5  and  C_6
REMARK    4  A    between atoms: C_6  and  N_7
REMARK    5  A    between atoms: N_7  and  C_8
REMARK    6  A    between atoms: C_8  and  C_9
REMARK    7  A    between atoms: C_8  and  C_10
REMARK    8  A    between atoms: N_14  and  C_15
REMARK    9  A    between atoms: N_14  and  C_16
REMARK   10  A    between atoms: C_23  and  C_24
REMARK                            x       y       z     vdW  Elec       q    Type
REMARK                         _______ _______ _______ _____ _____    ______ ____
ROOT
ATOM      1  C   UNL     1       1.013   9.742  19.146  0.00  0.00    +0.000 A 
ATOM      2  C   UNL     1       1.526   9.384  17.918  0.00  0.00    +0.000 A 
ATOM      3  N   UNL     1       2.275   8.296  17.687  0.00  0.00    +0.000 NA
ATOM      4  C   UNL     1       2.535   7.479  18.718  0.00  0.00    +0.000 A 
ATOM      5  N   UNL     1       3.427   6.439  18.521  0.00  0.00    +0.000 N 
ATOM      6  C   UNL     1       4.349   6.595  17.413  0.00  0.00    +0.000 C 
ATOM      7  N   UNL     1       2.020   7.699  19.938  0.00  0.00    +0.000 NA
ATOM      8  C   UNL     1       1.290   8.828  20.157  0.00  0.00    +0.000 A 
ATOM      9  C   UNL     1       0.804   8.999  21.566  0.00  0.00    +0.000 C 
ENDROOT
BRANCH   5  10
ATOM     10  C   UNL     1       3.284   5.189  19.280  0.00  0.00    +0.000 C 
ATOM     11  C   UNL     1       1.862   4.607  19.205  0.00  0.00    +0.000 C 
ATOM     12  C   UNL     1       1.535   3.886  17.898  0.00  0.00    +0.000 C 
ATOM     13  C   UNL     1       2.591   2.876  17.465  0.00  0.00    +0.000 C 
ATOM     14  C   UNL     1       4.033   3.348  17.611  0.00  0.00    +0.000 C 
ATOM     15  C   UNL     1       4.317   4.113  18.905  0.00  0.00    +0.000 C 
ENDBRANCH   5  10
BRANCH   1  16
ATOM     16  C   UNL     1       0.247  11.043  19.262  0.00  0.00    +0.000 C 
ATOM     17  C   UNL     1      -1.261  10.818  19.080  0.00  0.00    +0.000 C 
BRANCH  16  18
ATOM     18  N   UNL     1       0.813  12.064  18.376  0.00  0.00    +0.000 NA
ATOM     19  H   UNL     1       1.808  12.160  18.585  0.00  0.00    +0.000 HD
BRANCH  18  20
ATOM     20  C   UNL     1       0.200  13.383  18.535  0.00  0.00    +0.000 C 
BRANCH  20  23
ATOM     21  N   UNL     1       3.196  15.466  18.672  0.00  0.00    +0.000 N 
ATOM     22  C   UNL     1       2.583  14.324  18.252  0.00  0.00    +0.000 A 
ATOM     23  C   UNL     1       1.293  14.370  18.737  0.00  0.00    +0.000 A 
ATOM     24  C   UNL     1       1.245  15.588  19.456  0.00  0.00    +0.000 A 
ATOM     25  N   UNL     1       2.401  16.253  19.420  0.00  0.00    +0.000 NA
BRANCH  21  27
ATOM     26  C   UNL     1       5.399  14.730  17.882  0.00  0.00    +0.000 C 
ATOM     27  C   UNL     1       4.542  15.894  18.344  0.00  0.00    +0.000 C 
ENDBRANCH  21  27
ENDBRANCH  20  23
ENDBRANCH  18  20
ENDBRANCH  16  18
ENDBRANCH   1  16
TORSDOF 6
ENDMDL
MODEL 7
REMARK VINA RESULT:      -7.1      3.089      4.060
REMARK  Name = 
REMARK  10 active torsions:
REMARK  status: ('A' for Active; 'I' for Inactive)
REMARK    1  A    between atoms: C_1  and  C_2
REMARK    2  A    between atoms: C_2  and  N_3
REMARK    3  A    between atoms: C_5  and  C_6
REMARK    4  A    between atoms: C_6  and  N_7
REMARK    5  A    between atoms: N_7  and  C_8
REMARK    6  A    between atoms: C_8  and  C_9
REMARK    7  A    between atoms: C_8  and  C_10
REMARK    8  A    between atoms: N_14  and  C_15
REMARK    9  A    between atoms: N_14  and  C_16
REMARK   10  A    between atoms: C_23  and  C_24
REMARK                            x       y       z     vdW  Elec       q    Type
REMARK                         _______ _______ _______ _____ _____    ______ ____
ROOT
ATOM      1  C   UNL     1       1.209   9.169  19.498  0.00  0.00    +0.000 A 
ATOM      2  C   UNL     1       2.031   8.580  18.559  0.00  0.00    +0.000 A 
ATOM      3  N   UNL     1       2.598   7.372  18.686  0.00  0.00    +0.000 NA
ATOM      4  C   UNL     1       2.337   6.667  19.797  0.00  0.00    +0.000 A 
ATOM      5  N   UNL     1       3.033   5.488  20.003  0.00  0.00    +0.000 N 
ATOM      6  C   UNL     1       4.287   5.358  19.286  0.00  0.00    +0.000 C 
ATOM      7  N   UNL     1       1.491   7.119  20.736  0.00  0.00    +0.000 NA
ATOM      8  C   UNL     1       0.954   8.363  20.602  0.00  0.00    +0.000 A 
ATOM      9  C   UNL     1       0.062   8.787  21.731  0.00  0.00    +0.000 C 
ENDROOT
BRANCH   5  10
ATOM     10  C   UNL     1       2.412   4.383  20.747  0.00  0.00    +0.000 C 
ATOM     11  C   UNL     1       0.965   4.109  20.306  0.00  0.00    +0.000 C 
ATOM     12  C   UNL     1       0.833   3.338  18.992  0.00  0.00    +0.000 C 
ATOM     13  C   UNL     1       1.702   2.089  18.915  0.00  0.00    +0.000 C 
ATOM     14  C   UNL     1       3.125   2.260  19.436  0.00  0.00    +0.000 C 
ATOM     15  C   UNL     1       3.230   3.081  20.722  0.00  0.00    +0.000 C 
ENDBRANCH   5  10
BRANCH   1  16
ATOM     16  C   UNL     1       0.706  10.574  19.243  0.00  0.00    +0.000 C 
ATOM     17  C   UNL     1       1.060  11.510  20.408  0.00  0.00    +0.000 C 
BRANCH  16  18
ATOM     18  N   UNL     1      -0.717  10.566  18.893  0.00  0.00    +0.000 NA
ATOM     19  H   UNL     1      -1.223  10.033  19.603  0.00  0.00    +0.000 HD
BRANCH  18  20
ATOM     20  C   UNL     1      -0.998   9.950  17.596  0.00  0.00    +0.000 C 
BRANCH  20  23
ATOM     21  N   UNL     1      -4.295  11.401  16.996  0.00  0.00    +0.000 N 
ATOM     22  C   UNL     1      -3.279  11.122  17.859  0.00  0.00    +0.000 A 
ATOM     23  C   UNL     1      -2.319  10.450  17.132  0.00  0.00    +0.000 A 
ATOM     24  C   UNL     1      -2.877  10.362  15.834  0.00  0.00    +0.000 A 
ATOM     25  N   UNL     1      -4.078  10.937  15.751  0.00  0.00    +0.000 NA
BRANCH  21  27
ATOM     26  C   UNL     1      -5.829  12.123  18.769  0.00  0.00    +0.000 C 
ATOM     27  C   UNL     1      -5.493  12.163  17.289  0.00  0.00    +0.000 C 
ENDBRANCH  21  27
ENDBRANCH  20  23
ENDBRANCH  18  20
ENDBRANCH  16  18
ENDBRANCH   1  16
TORSDOF 6
ENDMDL
MODEL 8
REMARK VINA RESULT:      -7.1      1.841      2.315
REMARK  Name = 
REMARK  10 active torsions:
REMARK  status: ('A' for Active; 'I' for Inactive)
REMARK    1  A    between atoms: C_1  and  C_2
REMARK    2  A    between atoms: C_2  and  N_3
REMARK    3  A    between atoms: C_5  and  C_6
REMARK    4  A    between atoms: C_6  and  N_7
REMARK    5  A    between atoms: N_7  and  C_8
REMARK    6  A    between atoms: C_8  and  C_9
REMARK    7  A    between atoms: C_8  and  C_10
REMARK    8  A    between atoms: N_14  and  C_15
REMARK    9  A    between atoms: N_14  and  C_16
REMARK   10  A    between atoms: C_23  and  C_24
REMARK                            x       y       z     vdW  Elec       q    Type
REMARK                         _______ _______ _______ _____ _____    ______ ____
ROOT
ATOM      1  C   UNL     1       0.978   9.799  19.175  0.00  0.00    +0.000 A 
ATOM      2  C   UNL     1       1.459   9.422  17.938  0.00  0.00    +0.000 A 
ATOM      3  N   UNL     1       2.191   8.325  17.701  0.00  0.00    +0.000 NA
ATOM      4  C   UNL     1       2.466   7.515  18.735  0.00  0.00    +0.000 A 
ATOM      5  N   UNL     1       3.343   6.464  18.528  0.00  0.00    +0.000 N 
ATOM      6  C   UNL     1       4.240   6.598  17.397  0.00  0.00    +0.000 C 
ATOM      7  N   UNL     1       1.982   7.753  19.964  0.00  0.00    +0.000 NA
ATOM      8  C   UNL     1       1.270   8.892  20.188  0.00  0.00    +0.000 A 
ATOM      9  C   UNL     1       0.819   9.082  21.606  0.00  0.00    +0.000 C 
ENDROOT
BRANCH   5  10
ATOM     10  C   UNL     1       3.204   5.223  19.303  0.00  0.00    +0.000 C 
ATOM     11  C   UNL     1       1.799   4.608  19.195  0.00  0.00    +0.000 C 
ATOM     12  C   UNL     1       1.528   3.859  17.891  0.00  0.00    +0.000 C 
ATOM     13  C   UNL     1       2.619   2.866  17.507  0.00  0.00    +0.000 C 
ATOM     14  C   UNL     1       4.045   3.373  17.689  0.00  0.00    +0.000 C 
ATOM     15  C   UNL     1       4.271   4.165  18.978  0.00  0.00    +0.000 C 
ENDBRANCH   5  10
BRANCH   1  16
ATOM     16  C   UNL     1       0.230  11.109  19.295  0.00  0.00    +0.000 C 
ATOM     17  C   UNL     1      -1.285  10.898  19.158  0.00  0.00    +0.000 C 
BRANCH  16  18
ATOM     18  N   UNL     1       0.780  12.113  18.380  0.00  0.00    +0.000 NA
ATOM     19  H   UNL     1       1.795  11.994  18.341  0.00  0.00    +0.000 HD
BRANCH  18  20
ATOM     20  C   UNL     1       0.512  13.491  18.791  0.00  0.00    +0.000 C 
BRANCH  20  23
ATOM     21  N   UNL     1       3.140  14.179  21.232  0.00  0.00    +0.000 N 
ATOM     22  C   UNL     1       2.782  13.789  19.977  0.00  0.00    +0.000 A 
ATOM     23  C   UNL     1       1.403  13.803  19.939  0.00  0.00    +0.000 A 
ATOM     24  C   UNL     1       1.034  14.204  21.245  0.00  0.00    +0.000 A 
ATOM     25  N   UNL     1       2.087  14.430  22.032  0.00  0.00    +0.000 NA
BRANCH  21  27
ATOM     26  C   UNL     1       5.072  15.691  21.210  0.00  0.00    +0.000 C 
ATOM     27  C   UNL     1       4.490  14.385  21.719  0.00  0.00    +0.000 C 
ENDBRANCH  21  27
ENDBRANCH  20  23
ENDBRANCH  18  20
ENDBRANCH  16  18
ENDBRANCH   1  16
TORSDOF 6
ENDMDL
MODEL 9
REMARK VINA RESULT:      -7.1      0.756      1.002
REMARK  Name = 
REMARK  10 active torsions:
REMARK  status: ('A' for Active; 'I' for Inactive)
REMARK    1  A    between atoms: C_1  and  C_2
REMARK    2  A    between atoms: C_2  and  N_3
REMARK    3  A    between atoms: C_5  and  C_6
REMARK    4  A    between atoms: C_6  and  N_7
REMARK    5  A    between atoms: N_7  and  C_8
REMARK    6  A    between atoms: C_8  and  C_9
REMARK    7  A    between atoms: C_8  and  C_10
REMARK    8  A    between atoms: N_14  and  C_15
REMARK    9  A    between atoms: N_14  and  C_16
REMARK   10  A    between atoms: C_23  and  C_24
REMARK                            x       y       z     vdW  Elec       q    Type
REMARK                         _______ _______ _______ _____ _____    ______ ____
ROOT
ATOM      1  C   UNL     1       1.142   9.522  19.184  0.00  0.00    +0.000 A 
ATOM      2  C   UNL     1       1.643   9.109  17.967  0.00  0.00    +0.000 A 
ATOM      3  N   UNL     1       2.354   7.989  17.771  0.00  0.00    +0.000 NA
ATOM      4  C   UNL     1       2.585   7.195  18.828  0.00  0.00    +0.000 A 
ATOM      5  N   UNL     1       3.440   6.119  18.664  0.00  0.00    +0.000 N 
ATOM      6  C   UNL     1       4.367   6.208  17.553  0.00  0.00    +0.000 C 
ATOM      7  N   UNL     1       2.077   7.470  20.039  0.00  0.00    +0.000 NA
ATOM      8  C   UNL     1       1.387   8.630  20.222  0.00  0.00    +0.000 A 
ATOM      9  C   UNL     1       0.907   8.861  21.624  0.00  0.00    +0.000 C 
ENDROOT
BRANCH   5  10
ATOM     10  C   UNL     1       3.253   4.898  19.461  0.00  0.00    +0.000 C 
ATOM     11  C   UNL     1       1.806   4.377  19.419  0.00  0.00    +0.000 C 
ATOM     12  C   UNL     1       1.432   3.634  18.137  0.00  0.00    +0.000 C 
ATOM     13  C   UNL     1       2.438   2.567  17.722  0.00  0.00    +0.000 C 
ATOM     14  C   UNL     1       3.900   2.979  17.838  0.00  0.00    +0.000 C 
ATOM     15  C   UNL     1       4.233   3.769  19.105  0.00  0.00    +0.000 C 
ENDBRANCH   5  10
BRANCH   1  16
ATOM     16  C   UNL     1       0.423  10.852  19.259  0.00  0.00    +0.000 C 
ATOM     17  C   UNL     1      -1.093  10.674  19.087  0.00  0.00    +0.000 C 
BRANCH  16  18
ATOM     18  N   UNL     1       1.021  11.824  18.338  0.00  0.00    +0.000 NA
ATOM     19  H   UNL     1       1.438  11.315  17.557  0.00  0.00    +0.000 HD
BRANCH  18  20
ATOM     20  C   UNL     1       2.072  12.638  18.948  0.00  0.00    +0.000 C 
BRANCH  20  23
ATOM     21  N   UNL     1       0.194  15.740  19.380  0.00  0.00    +0.000 N 
ATOM     22  C   UNL     1       0.320  14.522  18.784  0.00  0.00    +0.000 A 
ATOM     23  C   UNL     1       1.491  13.970  19.260  0.00  0.00    +0.000 A 
ATOM     24  C   UNL     1       2.002  14.962  20.131  0.00  0.00    +0.000 A 
ATOM     25  N   UNL     1       1.217  16.038  20.203  0.00  0.00    +0.000 NA
BRANCH  21  27
ATOM     26  C   UNL     1      -0.772  17.536  18.016  0.00  0.00    +0.000 C 
ATOM     27  C   UNL     1      -0.921  16.657  19.245  0.00  0.00    +0.000 C 
ENDBRANCH  21  27
ENDBRANCH  20  23
ENDBRANCH  18  20
ENDBRANCH  16  18
ENDBRANCH   1  16
TORSDOF 6
ENDMDL
