MODEL 1
REMARK VINA RESULT:      -7.8      0.000      0.000
REMARK  Name = 
REMARK  8 active torsions:
REMARK  status: ('A' for Active; 'I' for Inactive)
REMARK    1  A    between atoms: C_1  and  O_2
REMARK    2  A    between atoms: O_2  and  C_3
REMARK    3  A    between atoms: C_3  and  C_4
REMARK    4  A    between atoms: C_4  and  O_5
REMARK    5  A    between atoms: O_5  and  C_6
REMARK    6  A    between atoms: C_6  and  C_7
REMARK    7  A    between atoms: C_12  and  C_13
REMARK    8  A    between atoms: C_16  and  N_17
REMARK                            x       y       z     vdW  Elec       q    Type
REMARK                         _______ _______ _______ _____ _____    ______ ____
ROOT
ATOM      1  C   UNL     1       2.460   6.585  19.063  0.00  0.00    +0.000 A 
ATOM      2  C   UNL     1       2.421   7.366  17.909  0.00  0.00    +0.000 A 
ATOM      3  C   UNL     1       1.887   8.682  17.926  0.00  0.00    +0.000 A 
ATOM      4  C   UNL     1       1.336   9.258  19.078  0.00  0.00    +0.000 A 
ATOM      5  C   UNL     1       1.379   8.476  20.235  0.00  0.00    +0.000 A 
ATOM      6  C   UNL     1       1.926   7.174  20.219  0.00  0.00    +0.000 A 
ENDROOT
BRANCH   4   7
ATOM      7  N   UNL     1       0.746  10.551  19.136  0.00  0.00    +0.000 N 
ATOM      8  C   UNL     1       1.311  11.769  18.747  0.00  0.00    +0.000 C 
ATOM      9  O   UNL     1       2.442  11.914  18.312  0.00  0.00    +0.000 OA
ATOM     10  N   UNL     1       0.472  12.866  18.914  0.00  0.00    +0.000 N 
ATOM     11  C   UNL     1       0.859  14.243  18.493  0.00  0.00    +0.000 C 
ATOM     12  C   UNL     1      -0.187  15.116  19.142  0.00  0.00    +0.000 A 
ATOM     13  C   UNL     1      -0.471  16.469  19.040  0.00  0.00    +0.000 A 
ATOM     14  C   UNL     1      -1.549  16.946  19.789  0.00  0.00    +0.000 A 
ATOM     15  N   UNL     1      -2.317  16.182  20.614  0.00  0.00    +0.000 NA
ATOM     16  C   UNL     1      -2.004  14.874  20.692  0.00  0.00    +0.000 A 
ATOM     17  C   UNL     1      -0.972  14.323  19.974  0.00  0.00    +0.000 A 
ATOM     18  C   UNL     1      -0.531  12.910  19.958  0.00  0.00    +0.000 C 
ATOM     19  H   UNL     1      -0.238  10.555  19.364  0.00  0.00    +0.000 HD
ENDBRANCH   4   7
BRANCH   1  25
ATOM     20  C   UNL     1       6.750   4.517  17.190  0.00  0.00    +0.000 C 
ATOM     21  O   UNL     1       7.730   4.375  17.892  0.00  0.00    +0.000 OA
ATOM     22  N   UNL     1       5.573   5.114  17.625  0.00  0.00    +0.000 N 
ATOM     23  C   UNL     1       5.590   5.719  18.950  0.00  0.00    +0.000 C 
ATOM     24  C   UNL     1       4.480   5.156  19.832  0.00  0.00    +0.000 C 
ATOM     25  C   UNL     1       3.093   5.192  19.151  0.00  0.00    +0.000 C 
ATOM     26  C   UNL     1       3.196   4.496  17.771  0.00  0.00    +0.000 C 
ATOM     27  C   UNL     1       4.304   5.069  16.888  0.00  0.00    +0.000 C 
BRANCH  20  28
ATOM     28  C   UNL     1       6.781   4.083  15.707  0.00  0.00    +0.000 C 
BRANCH  28  29
ATOM     29  O   UNL     1       7.705   4.851  14.940  0.00  0.00    +0.000 OA
BRANCH  29  30
ATOM     30  C   UNL     1       7.263   5.006  13.586  0.00  0.00    +0.000 C 
BRANCH  30  31
ATOM     31  C   UNL     1       6.256   3.909  13.271  0.00  0.00    +0.000 C 
BRANCH  31  33
ATOM     32  C   UNL     1       5.622   2.341  11.642  0.00  0.00    +0.000 C 
ATOM     33  O   UNL     1       6.633   3.245  12.067  0.00  0.00    +0.000 OA
ENDBRANCH  31  33
ENDBRANCH  30  31
ENDBRANCH  29  30
ENDBRANCH  28  29
ENDBRANCH  20  28
ENDBRANCH   1  25
TORSDOF 7
ENDMDL
MODEL 2
REMARK VINA RESULT:      -7.8      1.884      2.603
REMARK  Name = 
REMARK  8 active torsions:
REMARK  status: ('A' for Active; 'I' for Inactive)
REMARK    1  A    between atoms: C_1  and  O_2
REMARK    2  A    between atoms: O_2  and  C_3
REMARK    3  A    between atoms: C_3  and  C_4
REMARK    4  A    between atoms: C_4  and  O_5
REMARK    5  A    between atoms: O_5  and  C_6
REMARK    6  A    between atoms: C_6  and  C_7
REMARK    7  A    between atoms: C_12  and  C_13
REMARK    8  A    between atoms: C_16  and  N_17
REMARK                            x       y       z     vdW  Elec       q    Type
REMARK                         _______ _______ _______ _____ _____    ______ ____
ROOT
ATOM      1  C   UNL     1       2.781   5.568  19.206  0.00  0.00    +0.000 A 
ATOM      2  C   UNL     1       2.084   5.628  20.411  0.00  0.00    +0.000 A 
ATOM      3  C   UNL     1       1.461   6.828  20.846  0.00  0.00    +0.000 A 
ATOM      4  C   UNL     1       1.540   8.025  20.120  0.00  0.00    +0.000 A 
ATOM      5  C   UNL     1       2.236   7.962  18.909  0.00  0.00    +0.000 A 
ATOM      6  C   UNL     1       2.839   6.762  18.473  0.00  0.00    +0.000 A 
ENDROOT
BRANCH   4   7
ATOM      7  N   UNL     1       0.976   9.262  20.534  0.00  0.00    +0.000 N 
ATOM      8  C   UNL     1       0.042   9.483  21.550  0.00  0.00    +0.000 C 
ATOM      9  O   UNL     1      -0.468   8.612  22.238  0.00  0.00    +0.000 OA
ATOM     10  N   UNL     1      -0.308  10.817  21.725  0.00  0.00    +0.000 N 
ATOM     11  C   UNL     1      -1.233  11.270  22.803  0.00  0.00    +0.000 C 
ATOM     12  C   UNL     1      -1.556  12.691  22.415  0.00  0.00    +0.000 A 
ATOM     13  C   UNL     1      -2.252  13.703  23.061  0.00  0.00    +0.000 A 
ATOM     14  C   UNL     1      -2.343  14.928  22.398  0.00  0.00    +0.000 A 
ATOM     15  N   UNL     1      -1.815  15.185  21.169  0.00  0.00    +0.000 NA
ATOM     16  C   UNL     1      -1.155  14.176  20.571  0.00  0.00    +0.000 A 
ATOM     17  C   UNL     1      -1.004  12.946  21.163  0.00  0.00    +0.000 A 
ATOM     18  C   UNL     1      -0.297  11.761  20.627  0.00  0.00    +0.000 C 
ATOM     19  H   UNL     1       1.406  10.079  20.124  0.00  0.00    +0.000 HD
ENDBRANCH   4   7
BRANCH   1  25
ATOM     20  C   UNL     1       7.092   4.605  16.622  0.00  0.00    +0.000 C 
ATOM     21  O   UNL     1       8.062   4.137  17.183  0.00  0.00    +0.000 OA
ATOM     22  N   UNL     1       5.911   4.932  17.275  0.00  0.00    +0.000 N 
ATOM     23  C   UNL     1       5.911   4.833  18.729  0.00  0.00    +0.000 C 
ATOM     24  C   UNL     1       4.786   3.928  19.224  0.00  0.00    +0.000 C 
ATOM     25  C   UNL     1       3.409   4.296  18.625  0.00  0.00    +0.000 C 
ATOM     26  C   UNL     1       3.531   4.341  17.083  0.00  0.00    +0.000 C 
ATOM     27  C   UNL     1       4.653   5.256  16.592  0.00  0.00    +0.000 C 
BRANCH  20  28
ATOM     28  C   UNL     1       7.144   4.930  15.113  0.00  0.00    +0.000 C 
BRANCH  28  29
ATOM     29  O   UNL     1       6.529   3.915  14.322  0.00  0.00    +0.000 OA
BRANCH  29  30
ATOM     30  C   UNL     1       6.529   4.261  12.932  0.00  0.00    +0.000 C 
BRANCH  30  31
ATOM     31  C   UNL     1       6.031   3.067  12.130  0.00  0.00    +0.000 C 
BRANCH  31  33
ATOM     32  C   UNL     1       4.031   3.406  10.948  0.00  0.00    +0.000 C 
ATOM     33  O   UNL     1       4.607   3.013  12.186  0.00  0.00    +0.000 OA
ENDBRANCH  31  33
ENDBRANCH  30  31
ENDBRANCH  29  30
ENDBRANCH  28  29
ENDBRANCH  20  28
ENDBRANCH   1  25
TORSDOF 7
ENDMDL
MODEL 3
REMARK VINA RESULT:      -7.6      1.651      1.757
REMARK  Name = 
REMARK  8 active torsions:
REMARK  status: ('A' for Active; 'I' for Inactive)
REMARK    1  A    between atoms: C_1  and  O_2
REMARK    2  A    between atoms: O_2  and  C_3
REMARK    3  A    between atoms: C_3  and  C_4
REMARK    4  A    between atoms: C_4  and  O_5
REMARK    5  A    between atoms: O_5  and  C_6
REMARK    6  A    between atoms: C_6  and  C_7
REMARK    7  A    between atoms: C_12  and  C_13
REMARK    8  A    between atoms: C_16  and  N_17
REMARK                            x       y       z     vdW  Elec       q    Type
REMARK                         _______ _______ _______ _____ _____    ______ ____
ROOT
ATOM      1  C   UNL     1       2.774   5.837  19.241  0.00  0.00    +0.000 A 
ATOM      2  C   UNL     1       2.801   6.951  18.403  0.00  0.00    +0.000 A 
ATOM      3  C   UNL     1       2.182   8.173  18.778  0.00  0.00    +0.000 A 
ATOM      4  C   UNL     1       1.480   8.325  19.981  0.00  0.00    +0.000 A 
ATOM      5  C   UNL     1       1.456   7.209  20.822  0.00  0.00    +0.000 A 
ATOM      6  C   UNL     1       2.087   6.001  20.452  0.00  0.00    +0.000 A 
ENDROOT
BRANCH   4   7
ATOM      7  N   UNL     1       0.804   9.510  20.381  0.00  0.00    +0.000 N 
ATOM      8  C   UNL     1      -0.168  10.224  19.674  0.00  0.00    +0.000 C 
ATOM      9  O   UNL     1      -0.576   9.942  18.558  0.00  0.00    +0.000 OA
ATOM     10  N   UNL     1      -0.653  11.343  20.342  0.00  0.00    +0.000 N 
ATOM     11  C   UNL     1      -1.746  12.196  19.790  0.00  0.00    +0.000 C 
ATOM     12  C   UNL     1      -1.711  13.422  20.668  0.00  0.00    +0.000 A 
ATOM     13  C   UNL     1      -2.544  14.527  20.766  0.00  0.00    +0.000 A 
ATOM     14  C   UNL     1      -2.210  15.485  21.725  0.00  0.00    +0.000 A 
ATOM     15  N   UNL     1      -1.126  15.414  22.546  0.00  0.00    +0.000 NA
ATOM     16  C   UNL     1      -0.337  14.331  22.415  0.00  0.00    +0.000 A 
ATOM     17  C   UNL     1      -0.606  13.334  21.510  0.00  0.00    +0.000 A 
ATOM     18  C   UNL     1       0.165  12.093  21.271  0.00  0.00    +0.000 C 
ATOM     19  H   UNL     1       0.962   9.781  21.341  0.00  0.00    +0.000 HD
ENDBRANCH   4   7
BRANCH   1  25
ATOM     20  C   UNL     1       6.895   4.555  16.492  0.00  0.00    +0.000 C 
ATOM     21  O   UNL     1       7.962   4.345  17.032  0.00  0.00    +0.000 OA
ATOM     22  N   UNL     1       5.753   4.951  17.176  0.00  0.00    +0.000 N 
ATOM     23  C   UNL     1       5.905   5.263  18.591  0.00  0.00    +0.000 C 
ATOM     24  C   UNL     1       4.946   4.442  19.447  0.00  0.00    +0.000 C 
ATOM     25  C   UNL     1       3.484   4.511  18.949  0.00  0.00    +0.000 C 
ATOM     26  C   UNL     1       3.449   4.132  17.449  0.00  0.00    +0.000 C 
ATOM     27  C   UNL     1       4.406   4.964  16.594  0.00  0.00    +0.000 C 
BRANCH  20  28
ATOM     28  C   UNL     1       6.761   4.447  14.957  0.00  0.00    +0.000 C 
BRANCH  28  29
ATOM     29  O   UNL     1       7.602   5.376  14.276  0.00  0.00    +0.000 OA
BRANCH  29  30
ATOM     30  C   UNL     1       7.673   5.090  12.874  0.00  0.00    +0.000 C 
BRANCH  30  31
ATOM     31  C   UNL     1       6.957   3.774  12.605  0.00  0.00    +0.000 C 
BRANCH  31  33
ATOM     32  C   UNL     1       5.000   2.867  11.676  0.00  0.00    +0.000 C 
ATOM     33  O   UNL     1       5.859   3.999  11.724  0.00  0.00    +0.000 OA
ENDBRANCH  31  33
ENDBRANCH  30  31
ENDBRANCH  29  30
ENDBRANCH  28  29
ENDBRANCH  20  28
ENDBRANCH   1  25
TORSDOF 7
ENDMDL
MODEL 4
REMARK VINA RESULT:      -7.5      1.734      1.915
REMARK  Name = 
REMARK  8 active torsions:
REMARK  status: ('A' for Active; 'I' for Inactive)
REMARK    1  A    between atoms: C_1  and  O_2
REMARK    2  A    between atoms: O_2  and  C_3
REMARK    3  A    between atoms: C_3  and  C_4
REMARK    4  A    between atoms: C_4  and  O_5
REMARK    5  A    between atoms: O_5  and  C_6
REMARK    6  A    between atoms: C_6  and  C_7
REMARK    7  A    between atoms: C_12  and  C_13
REMARK    8  A    between atoms: C_16  and  N_17
REMARK                            x       y       z     vdW  Elec       q    Type
REMARK                         _______ _______ _______ _____ _____    ______ ____
ROOT
ATOM      1  C   UNL     1       3.120   6.146  19.350  0.00  0.00    +0.000 A 
ATOM      2  C   UNL     1       3.057   7.086  18.322  0.00  0.00    +0.000 A 
ATOM      3  C   UNL     1       2.248   8.248  18.432  0.00  0.00    +0.000 A 
ATOM      4  C   UNL     1       1.441   8.503  19.549  0.00  0.00    +0.000 A 
ATOM      5  C   UNL     1       1.509   7.563  20.581  0.00  0.00    +0.000 A 
ATOM      6  C   UNL     1       2.327   6.417  20.475  0.00  0.00    +0.000 A 
ENDROOT
BRANCH   4   7
ATOM      7  N   UNL     1       0.579   9.624  19.687  0.00  0.00    +0.000 N 
ATOM      8  C   UNL     1       0.724  10.718  20.546  0.00  0.00    +0.000 C 
ATOM      9  O   UNL     1       1.629  10.865  21.352  0.00  0.00    +0.000 OA
ATOM     10  N   UNL     1      -0.286  11.668  20.436  0.00  0.00    +0.000 N 
ATOM     11  C   UNL     1      -0.277  12.942  21.212  0.00  0.00    +0.000 C 
ATOM     12  C   UNL     1      -1.673  13.480  21.020  0.00  0.00    +0.000 A 
ATOM     13  C   UNL     1      -2.268  14.683  21.369  0.00  0.00    +0.000 A 
ATOM     14  C   UNL     1      -3.607  14.851  21.011  0.00  0.00    +0.000 A 
ATOM     15  N   UNL     1      -4.359  13.918  20.364  0.00  0.00    +0.000 NA
ATOM     16  C   UNL     1      -3.747  12.760  20.049  0.00  0.00    +0.000 A 
ATOM     17  C   UNL     1      -2.429  12.522  20.350  0.00  0.00    +0.000 A 
ATOM     18  C   UNL     1      -1.635  11.309  20.053  0.00  0.00    +0.000 C 
ATOM     19  H   UNL     1      -0.147   9.686  18.988  0.00  0.00    +0.000 HD
ENDBRANCH   4   7
BRANCH   1  25
ATOM     20  C   UNL     1       6.728   4.410  16.164  0.00  0.00    +0.000 C 
ATOM     21  O   UNL     1       7.906   4.563  16.414  0.00  0.00    +0.000 OA
ATOM     22  N   UNL     1       5.702   4.898  16.963  0.00  0.00    +0.000 N 
ATOM     23  C   UNL     1       6.084   5.757  18.076  0.00  0.00    +0.000 C 
ATOM     24  C   UNL     1       5.541   5.225  19.399  0.00  0.00    +0.000 C 
ATOM     25  C   UNL     1       4.028   4.912  19.347  0.00  0.00    +0.000 C 
ATOM     26  C   UNL     1       3.754   3.973  18.146  0.00  0.00    +0.000 C 
ATOM     27  C   UNL     1       4.293   4.514  16.822  0.00  0.00    +0.000 C 
BRANCH  20  28
ATOM     28  C   UNL     1       6.293   3.692  14.867  0.00  0.00    +0.000 C 
BRANCH  28  29
ATOM     29  O   UNL     1       6.562   4.471  13.703  0.00  0.00    +0.000 OA
BRANCH  29  30
ATOM     30  C   UNL     1       6.444   3.689  12.509  0.00  0.00    +0.000 C 
BRANCH  30  31
ATOM     31  C   UNL     1       4.970   3.418  12.245  0.00  0.00    +0.000 C 
BRANCH  31  33
ATOM     32  C   UNL     1       5.923   1.485  11.312  0.00  0.00    +0.000 C 
ATOM     33  O   UNL     1       4.840   2.404  11.251  0.00  0.00    +0.000 OA
ENDBRANCH  31  33
ENDBRANCH  30  31
ENDBRANCH  29  30
ENDBRANCH  28  29
ENDBRANCH  20  28
ENDBRANCH   1  25
TORSDOF 7
ENDMDL
MODEL 5
REMARK VINA RESULT:      -7.5      1.367      1.560
REMARK  Name = 
REMARK  8 active torsions:
REMARK  status: ('A' for Active; 'I' for Inactive)
REMARK    1  A    between atoms: C_1  and  O_2
REMARK    2  A    between atoms: O_2  and  C_3
REMARK    3  A    between atoms: C_3  and  C_4
REMARK    4  A    between atoms: C_4  and  O_5
REMARK    5  A    between atoms: O_5  and  C_6
REMARK    6  A    between atoms: C_6  and  C_7
REMARK    7  A    between atoms: C_12  and  C_13
REMARK    8  A    between atoms: C_16  and  N_17
REMARK                            x       y       z     vdW  Elec       q    Type
REMARK                         _______ _______ _______ _____ _____    ______ ____
ROOT
ATOM      1  C   UNL     1       2.311   6.520  19.220  0.00  0.00    +0.000 A 
ATOM      2  C   UNL     1       2.221   7.511  18.244  0.00  0.00    +0.000 A 
ATOM      3  C   UNL     1       1.748   8.814  18.555  0.00  0.00    +0.000 A 
ATOM      4  C   UNL     1       1.308   9.170  19.838  0.00  0.00    +0.000 A 
ATOM      5  C   UNL     1       1.403   8.177  20.816  0.00  0.00    +0.000 A 
ATOM      6  C   UNL     1       1.890   6.888  20.506  0.00  0.00    +0.000 A 
ENDROOT
BRANCH   4   7
ATOM      7  N   UNL     1       0.782  10.443  20.189  0.00  0.00    +0.000 N 
ATOM      8  C   UNL     1      -0.447  10.996  19.818  0.00  0.00    +0.000 C 
ATOM      9  O   UNL     1      -1.268  10.461  19.090  0.00  0.00    +0.000 OA
ATOM     10  N   UNL     1      -0.682  12.265  20.337  0.00  0.00    +0.000 N 
ATOM     11  C   UNL     1      -1.964  12.996  20.119  0.00  0.00    +0.000 C 
ATOM     12  C   UNL     1      -1.649  14.400  20.572  0.00  0.00    +0.000 A 
ATOM     13  C   UNL     1      -2.439  15.526  20.747  0.00  0.00    +0.000 A 
ATOM     14  C   UNL     1      -1.801  16.679  21.206  0.00  0.00    +0.000 A 
ATOM     15  N   UNL     1      -0.468  16.773  21.474  0.00  0.00    +0.000 NA
ATOM     16  C   UNL     1       0.266  15.661  21.283  0.00  0.00    +0.000 A 
ATOM     17  C   UNL     1      -0.288  14.481  20.851  0.00  0.00    +0.000 A 
ATOM     18  C   UNL     1       0.397  13.190  20.613  0.00  0.00    +0.000 C 
ATOM     19  H   UNL     1       1.313  10.939  20.891  0.00  0.00    +0.000 HD
ENDBRANCH   4   7
BRANCH   1  25
ATOM     20  C   UNL     1       6.803   4.775  17.498  0.00  0.00    +0.000 C 
ATOM     21  O   UNL     1       7.648   4.367  18.268  0.00  0.00    +0.000 OA
ATOM     22  N   UNL     1       5.584   5.304  17.905  0.00  0.00    +0.000 N 
ATOM     23  C   UNL     1       5.394   5.500  19.336  0.00  0.00    +0.000 C 
ATOM     24  C   UNL     1       4.139   4.789  19.832  0.00  0.00    +0.000 C 
ATOM     25  C   UNL     1       2.887   5.118  18.988  0.00  0.00    +0.000 C 
ATOM     26  C   UNL     1       3.202   4.843  17.497  0.00  0.00    +0.000 C 
ATOM     27  C   UNL     1       4.456   5.564  17.003  0.00  0.00    +0.000 C 
BRANCH  20  28
ATOM     28  C   UNL     1       7.071   4.784  15.977  0.00  0.00    +0.000 C 
BRANCH  28  29
ATOM     29  O   UNL     1       6.581   3.609  15.336  0.00  0.00    +0.000 OA
BRANCH  29  30
ATOM     30  C   UNL     1       5.943   3.916  14.091  0.00  0.00    +0.000 C 
BRANCH  30  31
ATOM     31  C   UNL     1       6.979   4.495  13.139  0.00  0.00    +0.000 C 
BRANCH  31  33
ATOM     32  C   UNL     1       5.855   2.865  11.878  0.00  0.00    +0.000 C 
ATOM     33  O   UNL     1       6.897   3.830  11.880  0.00  0.00    +0.000 OA
ENDBRANCH  31  33
ENDBRANCH  30  31
ENDBRANCH  29  30
ENDBRANCH  28  29
ENDBRANCH  20  28
ENDBRANCH   1  25
TORSDOF 7
ENDMDL
MODEL 6
REMARK VINA RESULT:      -7.5      4.405     11.728
REMARK  Name = 
REMARK  8 active torsions:
REMARK  status: ('A' for Active; 'I' for Inactive)
REMARK    1  A    between atoms: C_1  and  O_2
REMARK    2  A    between atoms: O_2  and  C_3
REMARK    3  A    between atoms: C_3  and  C_4
REMARK    4  A    between atoms: C_4  and  O_5
REMARK    5  A    between atoms: O_5  and  C_6
REMARK    6  A    between atoms: C_6  and  C_7
REMARK    7  A    between atoms: C_12  and  C_13
REMARK    8  A    between atoms: C_16  and  N_17
REMARK                            x       y       z     vdW  Elec       q    Type
REMARK                         _______ _______ _______ _____ _____    ______ ____
ROOT
ATOM      1  C   UNL     1      -1.090  12.665  20.906  0.00  0.00    +0.000 A 
ATOM      2  C   UNL     1       0.268  12.542  21.195  0.00  0.00    +0.000 A 
ATOM      3  C   UNL     1       1.058  11.516  20.612  0.00  0.00    +0.000 A 
ATOM      4  C   UNL     1       0.522  10.548  19.752  0.00  0.00    +0.000 A 
ATOM      5  C   UNL     1      -0.839  10.674  19.459  0.00  0.00    +0.000 A 
ATOM      6  C   UNL     1      -1.617  11.707  20.028  0.00  0.00    +0.000 A 
ENDROOT
BRANCH   4   7
ATOM      7  N   UNL     1       1.258   9.474  19.181  0.00  0.00    +0.000 N 
ATOM      8  C   UNL     1       1.619   8.265  19.783  0.00  0.00    +0.000 C 
ATOM      9  O   UNL     1       1.371   7.952  20.937  0.00  0.00    +0.000 OA
ATOM     10  N   UNL     1       2.332   7.405  18.954  0.00  0.00    +0.000 N 
ATOM     11  C   UNL     1       2.746   6.038  19.383  0.00  0.00    +0.000 C 
ATOM     12  C   UNL     1       3.732   5.620  18.321  0.00  0.00    +0.000 A 
ATOM     13  C   UNL     1       4.379   4.421  18.063  0.00  0.00    +0.000 A 
ATOM     14  C   UNL     1       5.231   4.388  16.958  0.00  0.00    +0.000 A 
ATOM     15  N   UNL     1       5.477   5.447  16.139  0.00  0.00    +0.000 NA
ATOM     16  C   UNL     1       4.837   6.596  16.426  0.00  0.00    +0.000 A 
ATOM     17  C   UNL     1       3.969   6.707  17.483  0.00  0.00    +0.000 A 
ATOM     18  C   UNL     1       3.195   7.898  17.902  0.00  0.00    +0.000 C 
ATOM     19  H   UNL     1       1.419   9.556  18.187  0.00  0.00    +0.000 HD
ENDBRANCH   4   7
BRANCH   1  25
ATOM     20  C   UNL     1      -5.730  12.775  23.061  0.00  0.00    +0.000 C 
ATOM     21  O   UNL     1      -5.855  12.902  24.262  0.00  0.00    +0.000 OA
ATOM     22  N   UNL     1      -4.499  12.691  22.422  0.00  0.00    +0.000 N 
ATOM     23  C   UNL     1      -3.318  12.610  23.271  0.00  0.00    +0.000 C 
ATOM     24  C   UNL     1      -2.316  13.710  22.935  0.00  0.00    +0.000 C 
ATOM     25  C   UNL     1      -1.993  13.789  21.425  0.00  0.00    +0.000 C 
ATOM     26  C   UNL     1      -3.319  13.902  20.635  0.00  0.00    +0.000 C 
ATOM     27  C   UNL     1      -4.316  12.793  20.969  0.00  0.00    +0.000 C 
BRANCH  20  28
ATOM     28  C   UNL     1      -6.974  12.634  22.157  0.00  0.00    +0.000 C 
BRANCH  28  29
ATOM     29  O   UNL     1      -7.350  11.272  21.965  0.00  0.00    +0.000 OA
BRANCH  29  30
ATOM     30  C   UNL     1      -7.868  11.051  20.648  0.00  0.00    +0.000 C 
BRANCH  30  31
ATOM     31  C   UNL     1      -7.244   9.783  20.083  0.00  0.00    +0.000 C 
BRANCH  31  33
ATOM     32  C   UNL     1      -6.848  11.277  18.316  0.00  0.00    +0.000 C 
ATOM     33  O   UNL     1      -6.388  10.115  18.992  0.00  0.00    +0.000 OA
ENDBRANCH  31  33
ENDBRANCH  30  31
ENDBRANCH  29  30
ENDBRANCH  28  29
ENDBRANCH  20  28
ENDBRANCH   1  25
TORSDOF 7
ENDMDL
MODEL 7
REMARK VINA RESULT:      -7.5      0.601      1.033
REMARK  Name = 
REMARK  8 active torsions:
REMARK  status: ('A' for Active; 'I' for Inactive)
REMARK    1  A    between atoms: C_1  and  O_2
REMARK    2  A    between atoms: O_2  and  C_3
REMARK    3  A    between atoms: C_3  and  C_4
REMARK    4  A    between atoms: C_4  and  O_5
REMARK    5  A    between atoms: O_5  and  C_6
REMARK    6  A    between atoms: C_6  and  C_7
REMARK    7  A    between atoms: C_12  and  C_13
REMARK    8  A    between atoms: C_16  and  N_17
REMARK                            x       y       z     vdW  Elec       q    Type
REMARK                         _______ _______ _______ _____ _____    ______ ____
ROOT
ATOM      1  C   UNL     1       2.503   6.581  18.973  0.00  0.00    +0.000 A 
ATOM      2  C   UNL     1       2.089   7.091  20.203  0.00  0.00    +0.000 A 
ATOM      3  C   UNL     1       1.479   8.370  20.305  0.00  0.00    +0.000 A 
ATOM      4  C   UNL     1       1.294   9.207  19.197  0.00  0.00    +0.000 A 
ATOM      5  C   UNL     1       1.707   8.694  17.964  0.00  0.00    +0.000 A 
ATOM      6  C   UNL     1       2.297   7.415  17.865  0.00  0.00    +0.000 A 
ENDROOT
BRANCH   4   7
ATOM      7  N   UNL     1       0.734  10.513  19.253  0.00  0.00    +0.000 N 
ATOM      8  C   UNL     1       1.304  11.711  18.812  0.00  0.00    +0.000 C 
ATOM      9  O   UNL     1       2.417  11.823  18.322  0.00  0.00    +0.000 OA
ATOM     10  N   UNL     1       0.496  12.828  18.994  0.00  0.00    +0.000 N 
ATOM     11  C   UNL     1       0.890  14.188  18.525  0.00  0.00    +0.000 C 
ATOM     12  C   UNL     1      -0.107  15.096  19.202  0.00  0.00    +0.000 A 
ATOM     13  C   UNL     1      -0.368  16.453  19.084  0.00  0.00    +0.000 A 
ATOM     14  C   UNL     1      -1.400  16.967  19.871  0.00  0.00    +0.000 A 
ATOM     15  N   UNL     1      -2.143  16.237  20.747  0.00  0.00    +0.000 NA
ATOM     16  C   UNL     1      -1.854  14.925  20.840  0.00  0.00    +0.000 A 
ATOM     17  C   UNL     1      -0.867  14.337  20.087  0.00  0.00    +0.000 A 
ATOM     18  C   UNL     1      -0.456  12.915  20.081  0.00  0.00    +0.000 C 
ATOM     19  H   UNL     1      -0.238  10.543  19.526  0.00  0.00    +0.000 HD
ENDBRANCH   4   7
BRANCH   1  25
ATOM     20  C   UNL     1       7.070   4.846  17.450  0.00  0.00    +0.000 C 
ATOM     21  O   UNL     1       7.882   4.439  18.257  0.00  0.00    +0.000 OA
ATOM     22  N   UNL     1       5.834   5.373  17.803  0.00  0.00    +0.000 N 
ATOM     23  C   UNL     1       5.580   5.566  19.225  0.00  0.00    +0.000 C 
ATOM     24  C   UNL     1       4.305   4.853  19.664  0.00  0.00    +0.000 C 
ATOM     25  C   UNL     1       3.091   5.181  18.765  0.00  0.00    +0.000 C 
ATOM     26  C   UNL     1       3.474   4.908  17.290  0.00  0.00    +0.000 C 
ATOM     27  C   UNL     1       4.747   5.632  16.853  0.00  0.00    +0.000 C 
BRANCH  20  28
ATOM     28  C   UNL     1       7.406   4.858  15.942  0.00  0.00    +0.000 C 
BRANCH  28  29
ATOM     29  O   UNL     1       6.634   3.908  15.211  0.00  0.00    +0.000 OA
BRANCH  29  30
ATOM     30  C   UNL     1       6.532   4.267  13.828  0.00  0.00    +0.000 C 
BRANCH  30  31
ATOM     31  C   UNL     1       5.750   3.186  13.097  0.00  0.00    +0.000 C 
BRANCH  31  33
ATOM     32  C   UNL     1       4.197   3.182  11.336  0.00  0.00    +0.000 C 
ATOM     33  O   UNL     1       5.484   3.608  11.761  0.00  0.00    +0.000 OA
ENDBRANCH  31  33
ENDBRANCH  30  31
ENDBRANCH  29  30
ENDBRANCH  28  29
ENDBRANCH  20  28
ENDBRANCH   1  25
TORSDOF 7
ENDMDL
MODEL 8
REMARK VINA RESULT:      -7.4      4.438     12.003
REMARK  Name = 
REMARK  8 active torsions:
REMARK  status: ('A' for Active; 'I' for Inactive)
REMARK    1  A    between atoms: C_1  and  O_2
REMARK    2  A    between atoms: O_2  and  C_3
REMARK    3  A    between atoms: C_3  and  C_4
REMARK    4  A    between atoms: C_4  and  O_5
REMARK    5  A    between atoms: O_5  and  C_6
REMARK    6  A    between atoms: C_6  and  C_7
REMARK    7  A    between atoms: C_12  and  C_13
REMARK    8  A    between atoms: C_16  and  N_17
REMARK                            x       y       z     vdW  Elec       q    Type
REMARK                         _______ _______ _______ _____ _____    ______ ____
ROOT
ATOM      1  C   UNL     1      -0.616  11.698  22.178  0.00  0.00    +0.000 A 
ATOM      2  C   UNL     1      -0.607  10.575  23.004  0.00  0.00    +0.000 A 
ATOM      3  C   UNL     1       0.068   9.384  22.625  0.00  0.00    +0.000 A 
ATOM      4  C   UNL     1       0.727   9.249  21.396  0.00  0.00    +0.000 A 
ATOM      5  C   UNL     1       0.721  10.376  20.570  0.00  0.00    +0.000 A 
ATOM      6  C   UNL     1       0.062  11.564  20.958  0.00  0.00    +0.000 A 
ENDROOT
BRANCH   4   7
ATOM      7  N   UNL     1       1.375   8.065  20.950  0.00  0.00    +0.000 N 
ATOM      8  C   UNL     1       1.920   7.808  19.689  0.00  0.00    +0.000 C 
ATOM      9  O   UNL     1       1.895   8.577  18.741  0.00  0.00    +0.000 OA
ATOM     10  N   UNL     1       2.504   6.552  19.564  0.00  0.00    +0.000 N 
ATOM     11  C   UNL     1       3.204   6.112  18.323  0.00  0.00    +0.000 C 
ATOM     12  C   UNL     1       3.381   4.627  18.527  0.00  0.00    +0.000 A 
ATOM     13  C   UNL     1       4.067   3.659  17.808  0.00  0.00    +0.000 A 
ATOM     14  C   UNL     1       4.029   2.357  18.309  0.00  0.00    +0.000 A 
ATOM     15  N   UNL     1       3.358   1.979  19.433  0.00  0.00    +0.000 NA
ATOM     16  C   UNL     1       2.698   2.946  20.098  0.00  0.00    +0.000 A 
ATOM     17  C   UNL     1       2.700   4.254  19.682  0.00  0.00    +0.000 A 
ATOM     18  C   UNL     1       2.032   5.411  20.320  0.00  0.00    +0.000 C 
ATOM     19  H   UNL     1       1.571   7.393  21.678  0.00  0.00    +0.000 HD
ENDBRANCH   4   7
BRANCH   1  25
ATOM     20  C   UNL     1      -5.439  13.371  22.531  0.00  0.00    +0.000 C 
ATOM     21  O   UNL     1      -5.985  13.473  23.611  0.00  0.00    +0.000 OA
ATOM     22  N   UNL     1      -4.150  12.879  22.365  0.00  0.00    +0.000 N 
ATOM     23  C   UNL     1      -3.495  12.332  23.545  0.00  0.00    +0.000 C 
ATOM     24  C   UNL     1      -2.152  13.010  23.800  0.00  0.00    +0.000 C 
ATOM     25  C   UNL     1      -1.248  13.045  22.546  0.00  0.00    +0.000 C 
ATOM     26  C   UNL     1      -2.042  13.671  21.374  0.00  0.00    +0.000 C 
ATOM     27  C   UNL     1      -3.383  12.983  21.118  0.00  0.00    +0.000 C 
BRANCH  20  28
ATOM     28  C   UNL     1      -6.196  13.737  21.235  0.00  0.00    +0.000 C 
BRANCH  28  29
ATOM     29  O   UNL     1      -7.429  13.031  21.113  0.00  0.00    +0.000 OA
BRANCH  29  30
ATOM     30  C   UNL     1      -7.216  11.657  20.770  0.00  0.00    +0.000 C 
BRANCH  30  31
ATOM     31  C   UNL     1      -6.643  11.587  19.362  0.00  0.00    +0.000 C 
BRANCH  31  33
ATOM     32  C   UNL     1      -6.829  12.720  17.314  0.00  0.00    +0.000 C 
ATOM     33  O   UNL     1      -7.528  12.237  18.453  0.00  0.00    +0.000 OA
ENDBRANCH  31  33
ENDBRANCH  30  31
ENDBRANCH  29  30
ENDBRANCH  28  29
ENDBRANCH  20  28
ENDBRANCH   1  25
TORSDOF 7
ENDMDL
MODEL 9
REMARK VINA RESULT:      -7.4      1.373      1.608
REMARK  Name = 
REMARK  8 active torsions:
REMARK  status: ('A' for Active; 'I' for Inactive)
REMARK    1  A    between atoms: C_1  and  O_2
REMARK    2  A    between atoms: O_2  and  C_3
REMARK    3  A    between atoms: C_3  and  C_4
REMARK    4  A    between atoms: C_4  and  O_5
REMARK    5  A    between atoms: O_5  and  C_6
REMARK    6  A    between atoms: C_6  and  C_7
REMARK    7  A    between atoms: C_12  and  C_13
REMARK    8  A    between atoms: C_16  and  N_17
REMARK                            x       y       z     vdW  Elec       q    Type
REMARK                         _______ _______ _______ _____ _____    ______ ____
ROOT
ATOM      1  C   UNL     1       2.676   6.007  18.993  0.00  0.00    +0.000 A 
ATOM      2  C   UNL     1       2.577   7.089  18.119  0.00  0.00    +0.000 A 
ATOM      3  C   UNL     1       2.003   8.322  18.531  0.00  0.00    +0.000 A 
ATOM      4  C   UNL     1       1.470   8.514  19.813  0.00  0.00    +0.000 A 
ATOM      5  C   UNL     1       1.573   7.430  20.689  0.00  0.00    +0.000 A 
ATOM      6  C   UNL     1       2.159   6.212  20.281  0.00  0.00    +0.000 A 
ENDROOT
BRANCH   4   7
ATOM      7  N   UNL     1       0.843   9.710  20.258  0.00  0.00    +0.000 N 
ATOM      8  C   UNL     1       0.990  11.000  19.740  0.00  0.00    +0.000 C 
ATOM      9  O   UNL     1       1.724  11.308  18.815  0.00  0.00    +0.000 OA
ATOM     10  N   UNL     1       0.227  11.966  20.388  0.00  0.00    +0.000 N 
ATOM     11  C   UNL     1       0.186  13.389  19.943  0.00  0.00    +0.000 C 
ATOM     12  C   UNL     1      -0.486  14.098  21.092  0.00  0.00    +0.000 A 
ATOM     13  C   UNL     1      -0.939  15.398  21.253  0.00  0.00    +0.000 A 
ATOM     14  C   UNL     1      -1.542  15.710  22.473  0.00  0.00    +0.000 A 
ATOM     15  N   UNL     1      -1.697  14.836  23.506  0.00  0.00    +0.000 NA
ATOM     16  C   UNL     1      -1.237  13.585  23.314  0.00  0.00    +0.000 A 
ATOM     17  C   UNL     1      -0.648  13.193  22.137  0.00  0.00    +0.000 A 
ATOM     18  C   UNL     1      -0.114  11.856  21.791  0.00  0.00    +0.000 C 
ATOM     19  H   UNL     1       0.113   9.573  20.943  0.00  0.00    +0.000 HD
ENDBRANCH   4   7
BRANCH   1  25
ATOM     20  C   UNL     1       7.049   4.749  16.653  0.00  0.00    +0.000 C 
ATOM     21  O   UNL     1       8.027   4.424  17.295  0.00  0.00    +0.000 OA
ATOM     22  N   UNL     1       5.849   5.146  17.229  0.00  0.00    +0.000 N 
ATOM     23  C   UNL     1       5.834   5.310  18.677  0.00  0.00    +0.000 C 
ATOM     24  C   UNL     1       4.734   4.469  19.319  0.00  0.00    +0.000 C 
ATOM     25  C   UNL     1       3.353   4.675  18.656  0.00  0.00    +0.000 C 
ATOM     26  C   UNL     1       3.493   4.446  17.131  0.00  0.00    +0.000 C 
ATOM     27  C   UNL     1       4.590   5.296  16.491  0.00  0.00    +0.000 C 
BRANCH  20  28
ATOM     28  C   UNL     1       7.109   4.798  15.110  0.00  0.00    +0.000 C 
BRANCH  28  29
ATOM     29  O   UNL     1       6.482   3.667  14.510  0.00  0.00    +0.000 OA
BRANCH  29  30
ATOM     30  C   UNL     1       5.582   4.058  13.466  0.00  0.00    +0.000 C 
BRANCH  30  31
ATOM     31  C   UNL     1       5.677   3.047  12.333  0.00  0.00    +0.000 C 
BRANCH  31  33
ATOM     32  C   UNL     1       7.261   1.850  11.078  0.00  0.00    +0.000 C 
ATOM     33  O   UNL     1       7.002   3.044  11.804  0.00  0.00    +0.000 OA
ENDBRANCH  31  33
ENDBRANCH  30  31
ENDBRANCH  29  30
ENDBRANCH  28  29
ENDBRANCH  20  28
ENDBRANCH   1  25
TORSDOF 7
ENDMDL
