MODEL 1
REMARK VINA RESULT:      -8.7      0.000      0.000
REMARK  Name = 
REMARK  9 active torsions:
REMARK  status: ('A' for Active; 'I' for Inactive)
REMARK    1  A    between atoms: C_1  and  C_2
REMARK    2  A    between atoms: C_9  and  O_10
REMARK    3  A    between atoms: O_10  and  C_11
REMARK    4  A    between atoms: C_11  and  C_12
REMARK    5  A    between atoms: C_15  and  C_16
REMARK    6  A    between atoms: C_16  and  N_17
REMARK    7  A    between atoms: N_17  and  C_18
REMARK    8  A    between atoms: N_17  and  C_19
REMARK    9  A    between atoms: C_19  and  C_20
REMARK                            x       y       z     vdW  Elec       q    Type
REMARK                         _______ _______ _______ _____ _____    ______ ____
ROOT
ATOM      1  C   UNL     1       2.017   8.484  18.744  0.00  0.00    +0.000 A 
ATOM      2  C   UNL     1       2.014   7.496  19.734  0.00  0.00    +0.000 A 
ATOM      3  C   UNL     1       2.836   6.375  19.611  0.00  0.00    +0.000 A 
ATOM      4  C   UNL     1       3.676   6.229  18.496  0.00  0.00    +0.000 A 
ATOM      5  C   UNL     1       3.676   7.218  17.507  0.00  0.00    +0.000 A 
ATOM      6  C   UNL     1       2.858   8.340  17.632  0.00  0.00    +0.000 A 
ENDROOT
BRANCH   1   7
ATOM      7  C   UNL     1       1.154   9.711  18.881  0.00  0.00    +0.000 C 
BRANCH   7   8
ATOM      8  O   UNL     1       0.214   9.727  17.807  0.00  0.00    +0.000 OA
BRANCH   8  17
ATOM      9  C   UNL     1      -6.039  11.736  17.688  0.00  0.00    +0.000 C 
ATOM     10  C   UNL     1      -4.903  12.010  18.627  0.00  0.00    +0.000 A 
ATOM     11  C   UNL     1      -5.051  12.818  19.687  0.00  0.00    +0.000 A 
ATOM     12  C   UNL     1      -3.967  13.124  20.633  0.00  0.00    +0.000 A 
ATOM     13  O   UNL     1      -4.160  13.869  21.588  0.00  0.00    +0.000 OA
ATOM     14  O   UNL     1      -2.740  12.536  20.388  0.00  0.00    +0.000 OA
ATOM     15  C   UNL     1      -2.552  11.686  19.284  0.00  0.00    +0.000 A 
ATOM     16  C   UNL     1      -1.269  11.158  19.137  0.00  0.00    +0.000 A 
ATOM     17  C   UNL     1      -0.995  10.308  18.072  0.00  0.00    +0.000 A 
ATOM     18  C   UNL     1      -2.019   9.997  17.172  0.00  0.00    +0.000 A 
ATOM     19  C   UNL     1      -3.304  10.534  17.331  0.00  0.00    +0.000 A 
ATOM     20  C   UNL     1      -3.589  11.395  18.395  0.00  0.00    +0.000 A 
ENDBRANCH   8  17
ENDBRANCH   7   8
ENDBRANCH   1   7
BRANCH   4  21
ATOM     21  C   UNL     1       4.603   5.037  18.385  0.00  0.00    +0.000 C 
BRANCH  21  22
ATOM     22  N   UNL     1       4.216   4.071  17.338  0.00  0.00    +0.000 NA
ATOM     23  C   UNL     1       5.227   4.011  16.280  0.00  0.00    +0.000 C 
BRANCH  22  24
ATOM     24  C   UNL     1       4.014   2.725  17.914  0.00  0.00    +0.000 C 
BRANCH  24  25
ATOM     25  C   UNL     1       3.002   2.719  19.042  0.00  0.00    +0.000 A 
ATOM     26  C   UNL     1       1.640   2.921  18.770  0.00  0.00    +0.000 A 
ATOM     27  C   UNL     1       0.724   3.057  19.812  0.00  0.00    +0.000 A 
ATOM     28  C   UNL     1       1.155   2.982  21.135  0.00  0.00    +0.000 A 
ATOM     29  C   UNL     1       2.500   2.741  21.418  0.00  0.00    +0.000 A 
ATOM     30  C   UNL     1       3.419   2.603  20.377  0.00  0.00    +0.000 A 
ENDBRANCH  24  25
ENDBRANCH  22  24
ENDBRANCH  21  22
ENDBRANCH   4  21
TORSDOF 7
ENDMDL
MODEL 2
REMARK VINA RESULT:      -8.5      1.728      2.569
REMARK  Name = 
REMARK  9 active torsions:
REMARK  status: ('A' for Active; 'I' for Inactive)
REMARK    1  A    between atoms: C_1  and  C_2
REMARK    2  A    between atoms: C_9  and  O_10
REMARK    3  A    between atoms: O_10  and  C_11
REMARK    4  A    between atoms: C_11  and  C_12
REMARK    5  A    between atoms: C_15  and  C_16
REMARK    6  A    between atoms: C_16  and  N_17
REMARK    7  A    between atoms: N_17  and  C_18
REMARK    8  A    between atoms: N_17  and  C_19
REMARK    9  A    between atoms: C_19  and  C_20
REMARK                            x       y       z     vdW  Elec       q    Type
REMARK                         _______ _______ _______ _____ _____    ______ ____
ROOT
ATOM      1  C   UNL     1       1.718   8.666  18.992  0.00  0.00    +0.000 A 
ATOM      2  C   UNL     1       1.863   7.645  19.937  0.00  0.00    +0.000 A 
ATOM      3  C   UNL     1       2.733   6.581  19.695  0.00  0.00    +0.000 A 
ATOM      4  C   UNL     1       3.475   6.526  18.505  0.00  0.00    +0.000 A 
ATOM      5  C   UNL     1       3.327   7.548  17.561  0.00  0.00    +0.000 A 
ATOM      6  C   UNL     1       2.461   8.612  17.804  0.00  0.00    +0.000 A 
ENDROOT
BRANCH   1   7
ATOM      7  C   UNL     1       0.801   9.831  19.255  0.00  0.00    +0.000 C 
BRANCH   7   8
ATOM      8  O   UNL     1       0.848  10.142  20.647  0.00  0.00    +0.000 OA
BRANCH   8  17
ATOM      9  C   UNL     1      -3.909  12.523  24.502  0.00  0.00    +0.000 C 
ATOM     10  C   UNL     1      -3.607  12.688  23.042  0.00  0.00    +0.000 A 
ATOM     11  C   UNL     1      -4.389  13.432  22.246  0.00  0.00    +0.000 A 
ATOM     12  C   UNL     1      -4.141  13.619  20.809  0.00  0.00    +0.000 A 
ATOM     13  O   UNL     1      -4.889  14.314  20.128  0.00  0.00    +0.000 OA
ATOM     14  O   UNL     1      -3.037  12.980  20.277  0.00  0.00    +0.000 OA
ATOM     15  C   UNL     1      -2.198  12.190  21.084  0.00  0.00    +0.000 A 
ATOM     16  C   UNL     1      -1.121  11.590  20.434  0.00  0.00    +0.000 A 
ATOM     17  C   UNL     1      -0.242  10.792  21.156  0.00  0.00    +0.000 A 
ATOM     18  C   UNL     1      -0.456  10.615  22.527  0.00  0.00    +0.000 A 
ATOM     19  C   UNL     1      -1.544  11.225  23.169  0.00  0.00    +0.000 A 
ATOM     20  C   UNL     1      -2.438  12.024  22.450  0.00  0.00    +0.000 A 
ENDBRANCH   8  17
ENDBRANCH   7   8
ENDBRANCH   1   7
BRANCH   4  21
ATOM     21  C   UNL     1       4.455   5.398  18.264  0.00  0.00    +0.000 C 
BRANCH  21  22
ATOM     22  N   UNL     1       3.998   4.410  17.268  0.00  0.00    +0.000 NA
ATOM     23  C   UNL     1       4.863   4.418  16.085  0.00  0.00    +0.000 C 
BRANCH  22  24
ATOM     24  C   UNL     1       3.964   3.053  17.853  0.00  0.00    +0.000 C 
BRANCH  24  25
ATOM     25  C   UNL     1       2.984   2.937  19.003  0.00  0.00    +0.000 A 
ATOM     26  C   UNL     1       1.616   3.164  18.790  0.00  0.00    +0.000 A 
ATOM     27  C   UNL     1       0.730   3.199  19.866  0.00  0.00    +0.000 A 
ATOM     28  C   UNL     1       1.198   2.998  21.163  0.00  0.00    +0.000 A 
ATOM     29  C   UNL     1       2.549   2.731  21.383  0.00  0.00    +0.000 A 
ATOM     30  C   UNL     1       3.439   2.694  20.308  0.00  0.00    +0.000 A 
ENDBRANCH  24  25
ENDBRANCH  22  24
ENDBRANCH  21  22
ENDBRANCH   4  21
TORSDOF 7
ENDMDL
MODEL 3
REMARK VINA RESULT:      -8.5      6.382      9.700
REMARK  Name = 
REMARK  9 active torsions:
REMARK  status: ('A' for Active; 'I' for Inactive)
REMARK    1  A    between atoms: C_1  and  C_2
REMARK    2  A    between atoms: C_9  and  O_10
REMARK    3  A    between atoms: O_10  and  C_11
REMARK    4  A    between atoms: C_11  and  C_12
REMARK    5  A    between atoms: C_15  and  C_16
REMARK    6  A    between atoms: C_16  and  N_17
REMARK    7  A    between atoms: N_17  and  C_18
REMARK    8  A    between atoms: N_17  and  C_19
REMARK    9  A    between atoms: C_19  and  C_20
REMARK                            x       y       z     vdW  Elec       q    Type
REMARK                         _______ _______ _______ _____ _____    ______ ____
ROOT
ATOM      1  C   UNL     1       7.471   7.472  17.845  0.00  0.00    +0.000 A 
ATOM      2  C   UNL     1       6.364   7.290  17.009  0.00  0.00    +0.000 A 
ATOM      3  C   UNL     1       5.543   6.173  17.163  0.00  0.00    +0.000 A 
ATOM      4  C   UNL     1       5.815   5.222  18.160  0.00  0.00    +0.000 A 
ATOM      5  C   UNL     1       6.923   5.406  18.993  0.00  0.00    +0.000 A 
ATOM      6  C   UNL     1       7.742   6.525  18.842  0.00  0.00    +0.000 A 
ENDROOT
BRANCH   1   7
ATOM      7  C   UNL     1       8.349   8.688  17.704  0.00  0.00    +0.000 C 
BRANCH   7   8
ATOM      8  O   UNL     1       8.879   9.017  18.987  0.00  0.00    +0.000 OA
BRANCH   8  17
ATOM      9  C   UNL     1      10.530  14.899  21.402  0.00  0.00    +0.000 C 
ATOM     10  C   UNL     1      10.495  14.348  20.008  0.00  0.00    +0.000 A 
ATOM     11  C   UNL     1      10.829  15.100  18.949  0.00  0.00    +0.000 A 
ATOM     12  C   UNL     1      10.804  14.610  17.563  0.00  0.00    +0.000 A 
ATOM     13  O   UNL     1      11.123  15.343  16.632  0.00  0.00    +0.000 OA
ATOM     14  O   UNL     1      10.407  13.300  17.371  0.00  0.00    +0.000 OA
ATOM     15  C   UNL     1      10.047  12.485  18.460  0.00  0.00    +0.000 A 
ATOM     16  C   UNL     1       9.658  11.184  18.141  0.00  0.00    +0.000 A 
ATOM     17  C   UNL     1       9.286  10.312  19.157  0.00  0.00    +0.000 A 
ATOM     18  C   UNL     1       9.318  10.759  20.481  0.00  0.00    +0.000 A 
ATOM     19  C   UNL     1       9.712  12.070  20.789  0.00  0.00    +0.000 A 
ATOM     20  C   UNL     1      10.082  12.958  19.773  0.00  0.00    +0.000 A 
ENDBRANCH   8  17
ENDBRANCH   7   8
ENDBRANCH   1   7
BRANCH   4  21
ATOM     21  C   UNL     1       4.897   4.036  18.359  0.00  0.00    +0.000 C 
BRANCH  21  22
ATOM     22  N   UNL     1       3.476   4.399  18.525  0.00  0.00    +0.000 NA
ATOM     23  C   UNL     1       2.634   3.202  18.604  0.00  0.00    +0.000 C 
BRANCH  22  24
ATOM     24  C   UNL     1       3.284   5.225  19.735  0.00  0.00    +0.000 C 
BRANCH  24  25
ATOM     25  C   UNL     1       2.564   6.527  19.444  0.00  0.00    +0.000 A 
ATOM     26  C   UNL     1       2.604   7.083  18.156  0.00  0.00    +0.000 A 
ATOM     27  C   UNL     1       2.066   8.347  17.915  0.00  0.00    +0.000 A 
ATOM     28  C   UNL     1       1.473   9.063  18.954  0.00  0.00    +0.000 A 
ATOM     29  C   UNL     1       1.392   8.504  20.229  0.00  0.00    +0.000 A 
ATOM     30  C   UNL     1       1.928   7.238  20.473  0.00  0.00    +0.000 A 
ENDBRANCH  24  25
ENDBRANCH  22  24
ENDBRANCH  21  22
ENDBRANCH   4  21
TORSDOF 7
ENDMDL
MODEL 4
REMARK VINA RESULT:      -8.4      0.480      1.004
REMARK  Name = 
REMARK  9 active torsions:
REMARK  status: ('A' for Active; 'I' for Inactive)
REMARK    1  A    between atoms: C_1  and  C_2
REMARK    2  A    between atoms: C_9  and  O_10
REMARK    3  A    between atoms: O_10  and  C_11
REMARK    4  A    between atoms: C_11  and  C_12
REMARK    5  A    between atoms: C_15  and  C_16
REMARK    6  A    between atoms: C_16  and  N_17
REMARK    7  A    between atoms: N_17  and  C_18
REMARK    8  A    between atoms: N_17  and  C_19
REMARK    9  A    between atoms: C_19  and  C_20
REMARK                            x       y       z     vdW  Elec       q    Type
REMARK                         _______ _______ _______ _____ _____    ______ ____
ROOT
ATOM      1  C   UNL     1       1.726   8.555  19.122  0.00  0.00    +0.000 A 
ATOM      2  C   UNL     1       1.942   7.464  19.970  0.00  0.00    +0.000 A 
ATOM      3  C   UNL     1       2.840   6.459  19.610  0.00  0.00    +0.000 A 
ATOM      4  C   UNL     1       3.539   6.534  18.395  0.00  0.00    +0.000 A 
ATOM      5  C   UNL     1       3.321   7.626  17.547  0.00  0.00    +0.000 A 
ATOM      6  C   UNL     1       2.426   8.631  17.910  0.00  0.00    +0.000 A 
ENDROOT
BRANCH   1   7
ATOM      7  C   UNL     1       0.778   9.657  19.514  0.00  0.00    +0.000 C 
BRANCH   7   8
ATOM      8  O   UNL     1       0.160  10.168  18.333  0.00  0.00    +0.000 OA
BRANCH   8  17
ATOM      9  C   UNL     1      -6.256  11.472  17.803  0.00  0.00    +0.000 C 
ATOM     10  C   UNL     1      -5.178  12.023  18.687  0.00  0.00    +0.000 A 
ATOM     11  C   UNL     1      -5.434  12.987  19.584  0.00  0.00    +0.000 A 
ATOM     12  C   UNL     1      -4.412  13.566  20.469  0.00  0.00    +0.000 A 
ATOM     13  O   UNL     1      -4.703  14.444  21.274  0.00  0.00    +0.000 OA
ATOM     14  O   UNL     1      -3.126  13.073  20.344  0.00  0.00    +0.000 OA
ATOM     15  C   UNL     1      -2.825  12.064  19.411  0.00  0.00    +0.000 A 
ATOM     16  C   UNL     1      -1.492  11.653  19.373  0.00  0.00    +0.000 A 
ATOM     17  C   UNL     1      -1.107  10.660  18.480  0.00  0.00    +0.000 A 
ATOM     18  C   UNL     1      -2.070  10.090  17.641  0.00  0.00    +0.000 A 
ATOM     19  C   UNL     1      -3.407  10.513  17.690  0.00  0.00    +0.000 A 
ATOM     20  C   UNL     1      -3.804  11.516  18.581  0.00  0.00    +0.000 A 
ENDBRANCH   8  17
ENDBRANCH   7   8
ENDBRANCH   1   7
BRANCH   4  21
ATOM     21  C   UNL     1       4.550   5.470  18.025  0.00  0.00    +0.000 C 
BRANCH  21  22
ATOM     22  N   UNL     1       4.023   4.431  17.120  0.00  0.00    +0.000 NA
ATOM     23  C   UNL     1       4.837   4.329  15.906  0.00  0.00    +0.000 C 
BRANCH  22  24
ATOM     24  C   UNL     1       3.972   3.119  17.799  0.00  0.00    +0.000 C 
BRANCH  24  25
ATOM     25  C   UNL     1       3.011   3.106  18.971  0.00  0.00    +0.000 A 
ATOM     26  C   UNL     1       3.486   2.875  20.271  0.00  0.00    +0.000 A 
ATOM     27  C   UNL     1       2.595   2.721  21.332  0.00  0.00    +0.000 A 
ATOM     28  C   UNL     1       1.222   2.808  21.109  0.00  0.00    +0.000 A 
ATOM     29  C   UNL     1       0.740   3.078  19.829  0.00  0.00    +0.000 A 
ATOM     30  C   UNL     1       1.629   3.234  18.765  0.00  0.00    +0.000 A 
ENDBRANCH  24  25
ENDBRANCH  22  24
ENDBRANCH  21  22
ENDBRANCH   4  21
TORSDOF 7
ENDMDL
MODEL 5
REMARK VINA RESULT:      -8.2      6.725      9.609
REMARK  Name = 
REMARK  9 active torsions:
REMARK  status: ('A' for Active; 'I' for Inactive)
REMARK    1  A    between atoms: C_1  and  C_2
REMARK    2  A    between atoms: C_9  and  O_10
REMARK    3  A    between atoms: O_10  and  C_11
REMARK    4  A    between atoms: C_11  and  C_12
REMARK    5  A    between atoms: C_15  and  C_16
REMARK    6  A    between atoms: C_16  and  N_17
REMARK    7  A    between atoms: N_17  and  C_18
REMARK    8  A    between atoms: N_17  and  C_19
REMARK    9  A    between atoms: C_19  and  C_20
REMARK                            x       y       z     vdW  Elec       q    Type
REMARK                         _______ _______ _______ _____ _____    ______ ____
ROOT
ATOM      1  C   UNL     1       7.630   7.901  17.948  0.00  0.00    +0.000 A 
ATOM      2  C   UNL     1       6.388   7.727  17.327  0.00  0.00    +0.000 A 
ATOM      3  C   UNL     1       5.701   6.519  17.455  0.00  0.00    +0.000 A 
ATOM      4  C   UNL     1       6.247   5.468  18.210  0.00  0.00    +0.000 A 
ATOM      5  C   UNL     1       7.488   5.645  18.828  0.00  0.00    +0.000 A 
ATOM      6  C   UNL     1       8.172   6.853  18.704  0.00  0.00    +0.000 A 
ENDROOT
BRANCH   1   7
ATOM      7  C   UNL     1       8.366   9.210  17.838  0.00  0.00    +0.000 C 
BRANCH   7   8
ATOM      8  O   UNL     1       9.145   9.395  19.019  0.00  0.00    +0.000 OA
BRANCH   8  17
ATOM      9  C   UNL     1      10.518  15.196  21.778  0.00  0.00    +0.000 C 
ATOM     10  C   UNL     1      10.713  14.660  20.392  0.00  0.00    +0.000 A 
ATOM     11  C   UNL     1      11.252  15.412  19.421  0.00  0.00    +0.000 A 
ATOM     12  C   UNL     1      11.459  14.936  18.045  0.00  0.00    +0.000 A 
ATOM     13  O   UNL     1      11.960  15.667  17.197  0.00  0.00    +0.000 OA
ATOM     14  O   UNL     1      11.063  13.642  17.766  0.00  0.00    +0.000 OA
ATOM     15  C   UNL     1      10.492  12.828  18.761  0.00  0.00    +0.000 A 
ATOM     16  C   UNL     1      10.126  11.544  18.358  0.00  0.00    +0.000 A 
ATOM     17  C   UNL     1       9.554  10.674  19.278  0.00  0.00    +0.000 A 
ATOM     18  C   UNL     1       9.364  11.107  20.595  0.00  0.00    +0.000 A 
ATOM     19  C   UNL     1       9.736  12.401  20.987  0.00  0.00    +0.000 A 
ATOM     20  C   UNL     1      10.307  13.287  20.067  0.00  0.00    +0.000 A 
ENDBRANCH   8  17
ENDBRANCH   7   8
ENDBRANCH   1   7
BRANCH   4  21
ATOM     21  C   UNL     1       5.480   4.175  18.389  0.00  0.00    +0.000 C 
BRANCH  21  22
ATOM     22  N   UNL     1       4.584   3.849  17.262  0.00  0.00    +0.000 NA
ATOM     23  C   UNL     1       5.352   3.565  16.046  0.00  0.00    +0.000 C 
BRANCH  22  24
ATOM     24  C   UNL     1       3.726   2.692  17.592  0.00  0.00    +0.000 C 
BRANCH  24  25
ATOM     25  C   UNL     1       2.877   2.929  18.826  0.00  0.00    +0.000 A 
ATOM     26  C   UNL     1       1.762   3.778  18.764  0.00  0.00    +0.000 A 
ATOM     27  C   UNL     1       1.063   4.111  19.923  0.00  0.00    +0.000 A 
ATOM     28  C   UNL     1       1.462   3.592  21.153  0.00  0.00    +0.000 A 
ATOM     29  C   UNL     1       2.544   2.715  21.222  0.00  0.00    +0.000 A 
ATOM     30  C   UNL     1       3.245   2.378  20.063  0.00  0.00    +0.000 A 
ENDBRANCH  24  25
ENDBRANCH  22  24
ENDBRANCH  21  22
ENDBRANCH   4  21
TORSDOF 7
ENDMDL
MODEL 6
REMARK VINA RESULT:      -8.2      2.646      3.239
REMARK  Name = 
REMARK  9 active torsions:
REMARK  status: ('A' for Active; 'I' for Inactive)
REMARK    1  A    between atoms: C_1  and  C_2
REMARK    2  A    between atoms: C_9  and  O_10
REMARK    3  A    between atoms: O_10  and  C_11
REMARK    4  A    between atoms: C_11  and  C_12
REMARK    5  A    between atoms: C_15  and  C_16
REMARK    6  A    between atoms: C_16  and  N_17
REMARK    7  A    between atoms: N_17  and  C_18
REMARK    8  A    between atoms: N_17  and  C_19
REMARK    9  A    between atoms: C_19  and  C_20
REMARK                            x       y       z     vdW  Elec       q    Type
REMARK                         _______ _______ _______ _____ _____    ______ ____
ROOT
ATOM      1  C   UNL     1       1.467   8.668  19.263  0.00  0.00    +0.000 A 
ATOM      2  C   UNL     1       1.734   7.590  20.113  0.00  0.00    +0.000 A 
ATOM      3  C   UNL     1       2.688   6.635  19.760  0.00  0.00    +0.000 A 
ATOM      4  C   UNL     1       3.393   6.748  18.551  0.00  0.00    +0.000 A 
ATOM      5  C   UNL     1       3.123   7.826  17.702  0.00  0.00    +0.000 A 
ATOM      6  C   UNL     1       2.172   8.782  18.057  0.00  0.00    +0.000 A 
ENDROOT
BRANCH   1   7
ATOM      7  C   UNL     1       0.458   9.718  19.647  0.00  0.00    +0.000 C 
BRANCH   7   8
ATOM      8  O   UNL     1       1.106  10.697  20.459  0.00  0.00    +0.000 OA
BRANCH   8  17
ATOM      9  C   UNL     1      -1.722  15.737  23.581  0.00  0.00    +0.000 C 
ATOM     10  C   UNL     1      -2.074  14.284  23.473  0.00  0.00    +0.000 A 
ATOM     11  C   UNL     1      -3.145  13.775  24.100  0.00  0.00    +0.000 A 
ATOM     12  C   UNL     1      -3.528  12.357  24.033  0.00  0.00    +0.000 A 
ATOM     13  O   UNL     1      -4.521  11.947  24.625  0.00  0.00    +0.000 OA
ATOM     14  O   UNL     1      -2.720  11.526  23.279  0.00  0.00    +0.000 OA
ATOM     15  C   UNL     1      -1.588  12.028  22.612  0.00  0.00    +0.000 A 
ATOM     16  C   UNL     1      -0.847  11.094  21.889  0.00  0.00    +0.000 A 
ATOM     17  C   UNL     1       0.288  11.504  21.199  0.00  0.00    +0.000 A 
ATOM     18  C   UNL     1       0.658  12.852  21.242  0.00  0.00    +0.000 A 
ATOM     19  C   UNL     1      -0.096  13.782  21.973  0.00  0.00    +0.000 A 
ATOM     20  C   UNL     1      -1.237  13.378  22.676  0.00  0.00    +0.000 A 
ENDBRANCH   8  17
ENDBRANCH   7   8
ENDBRANCH   1   7
BRANCH   4  21
ATOM     21  C   UNL     1       4.462   5.739  18.190  0.00  0.00    +0.000 C 
BRANCH  21  22
ATOM     22  N   UNL     1       3.964   4.592  17.407  0.00  0.00    +0.000 NA
ATOM     23  C   UNL     1       4.631   4.515  16.105  0.00  0.00    +0.000 C 
BRANCH  22  24
ATOM     24  C   UNL     1       4.162   3.327  18.145  0.00  0.00    +0.000 C 
BRANCH  24  25
ATOM     25  C   UNL     1       3.095   3.091  19.195  0.00  0.00    +0.000 A 
ATOM     26  C   UNL     1       1.746   3.339  18.900  0.00  0.00    +0.000 A 
ATOM     27  C   UNL     1       0.778   3.260  19.899  0.00  0.00    +0.000 A 
ATOM     28  C   UNL     1       1.144   2.923  21.201  0.00  0.00    +0.000 A 
ATOM     29  C   UNL     1       2.475   2.636  21.499  0.00  0.00    +0.000 A 
ATOM     30  C   UNL     1       3.447   2.712  20.500  0.00  0.00    +0.000 A 
ENDBRANCH  24  25
ENDBRANCH  22  24
ENDBRANCH  21  22
ENDBRANCH   4  21
TORSDOF 7
ENDMDL
MODEL 7
REMARK VINA RESULT:      -8.2      1.988      3.685
REMARK  Name = 
REMARK  9 active torsions:
REMARK  status: ('A' for Active; 'I' for Inactive)
REMARK    1  A    between atoms: C_1  and  C_2
REMARK    2  A    between atoms: C_9  and  O_10
REMARK    3  A    between atoms: O_10  and  C_11
REMARK    4  A    between atoms: C_11  and  C_12
REMARK    5  A    between atoms: C_15  and  C_16
REMARK    6  A    between atoms: C_16  and  N_17
REMARK    7  A    between atoms: N_17  and  C_18
REMARK    8  A    between atoms: N_17  and  C_19
REMARK    9  A    between atoms: C_19  and  C_20
REMARK                            x       y       z     vdW  Elec       q    Type
REMARK                         _______ _______ _______ _____ _____    ______ ____
ROOT
ATOM      1  C   UNL     1       2.051   8.161  18.824  0.00  0.00    +0.000 A 
ATOM      2  C   UNL     1       2.015   7.643  20.123  0.00  0.00    +0.000 A 
ATOM      3  C   UNL     1       2.045   6.264  20.331  0.00  0.00    +0.000 A 
ATOM      4  C   UNL     1       2.114   5.382  19.241  0.00  0.00    +0.000 A 
ATOM      5  C   UNL     1       2.148   5.903  17.944  0.00  0.00    +0.000 A 
ATOM      6  C   UNL     1       2.123   7.281  17.736  0.00  0.00    +0.000 A 
ENDROOT
BRANCH   1   7
ATOM      7  C   UNL     1       2.045   9.649  18.590  0.00  0.00    +0.000 C 
BRANCH   7   8
ATOM      8  O   UNL     1       1.119  10.248  19.495  0.00  0.00    +0.000 OA
BRANCH   8  17
ATOM      9  C   UNL     1      -5.052  12.300  18.564  0.00  0.00    +0.000 C 
ATOM     10  C   UNL     1      -4.091  11.545  17.695  0.00  0.00    +0.000 A 
ATOM     11  C   UNL     1      -4.434  11.134  16.465  0.00  0.00    +0.000 A 
ATOM     12  C   UNL     1      -3.533  10.384  15.577  0.00  0.00    +0.000 A 
ATOM     13  O   UNL     1      -3.900  10.036  14.460  0.00  0.00    +0.000 OA
ATOM     14  O   UNL     1      -2.272  10.099  16.065  0.00  0.00    +0.000 OA
ATOM     15  C   UNL     1      -1.881  10.514  17.351  0.00  0.00    +0.000 A 
ATOM     16  C   UNL     1      -0.587  10.162  17.735  0.00  0.00    +0.000 A 
ATOM     17  C   UNL     1      -0.120  10.531  18.991  0.00  0.00    +0.000 A 
ATOM     18  C   UNL     1      -0.961  11.256  19.841  0.00  0.00    +0.000 A 
ATOM     19  C   UNL     1      -2.260  11.604  19.443  0.00  0.00    +0.000 A 
ATOM     20  C   UNL     1      -2.742  11.231  18.184  0.00  0.00    +0.000 A 
ENDBRANCH   8  17
ENDBRANCH   7   8
ENDBRANCH   1   7
BRANCH   4  21
ATOM     21  C   UNL     1       2.196   3.888  19.468  0.00  0.00    +0.000 C 
BRANCH  21  22
ATOM     22  N   UNL     1       3.315   3.473  20.336  0.00  0.00    +0.000 NA
ATOM     23  C   UNL     1       2.861   2.539  21.370  0.00  0.00    +0.000 C 
BRANCH  22  24
ATOM     24  C   UNL     1       4.394   2.851  19.540  0.00  0.00    +0.000 C 
BRANCH  24  25
ATOM     25  C   UNL     1       5.002   3.808  18.533  0.00  0.00    +0.000 A 
ATOM     26  C   UNL     1       5.732   4.924  18.971  0.00  0.00    +0.000 A 
ATOM     27  C   UNL     1       6.172   5.882  18.059  0.00  0.00    +0.000 A 
ATOM     28  C   UNL     1       5.898   5.731  16.701  0.00  0.00    +0.000 A 
ATOM     29  C   UNL     1       5.209   4.606  16.249  0.00  0.00    +0.000 A 
ATOM     30  C   UNL     1       4.768   3.644  17.159  0.00  0.00    +0.000 A 
ENDBRANCH  24  25
ENDBRANCH  22  24
ENDBRANCH  21  22
ENDBRANCH   4  21
TORSDOF 7
ENDMDL
MODEL 8
REMARK VINA RESULT:      -8.2      0.618      1.101
REMARK  Name = 
REMARK  9 active torsions:
REMARK  status: ('A' for Active; 'I' for Inactive)
REMARK    1  A    between atoms: C_1  and  C_2
REMARK    2  A    between atoms: C_9  and  O_10
REMARK    3  A    between atoms: O_10  and  C_11
REMARK    4  A    between atoms: C_11  and  C_12
REMARK    5  A    between atoms: C_15  and  C_16
REMARK    6  A    between atoms: C_16  and  N_17
REMARK    7  A    between atoms: N_17  and  C_18
REMARK    8  A    between atoms: N_17  and  C_19
REMARK    9  A    between atoms: C_19  and  C_20
REMARK                            x       y       z     vdW  Elec       q    Type
REMARK                         _______ _______ _______ _____ _____    ______ ____
ROOT
ATOM      1  C   UNL     1       2.427   8.474  18.223  0.00  0.00    +0.000 A 
ATOM      2  C   UNL     1       3.416   8.205  17.271  0.00  0.00    +0.000 A 
ATOM      3  C   UNL     1       4.152   7.021  17.338  0.00  0.00    +0.000 A 
ATOM      4  C   UNL     1       3.905   6.087  18.357  0.00  0.00    +0.000 A 
ATOM      5  C   UNL     1       2.917   6.360  19.308  0.00  0.00    +0.000 A 
ATOM      6  C   UNL     1       2.179   7.541  19.239  0.00  0.00    +0.000 A 
ENDROOT
BRANCH   1   7
ATOM      7  C   UNL     1       1.609   9.737  18.145  0.00  0.00    +0.000 C 
BRANCH   7   8
ATOM      8  O   UNL     1       0.813   9.837  19.325  0.00  0.00    +0.000 OA
BRANCH   8  17
ATOM      9  C   UNL     1      -5.114  11.601  17.108  0.00  0.00    +0.000 C 
ATOM     10  C   UNL     1      -4.367  11.917  18.369  0.00  0.00    +0.000 A 
ATOM     11  C   UNL     1      -4.889  12.716  19.310  0.00  0.00    +0.000 A 
ATOM     12  C   UNL     1      -4.195  13.063  20.559  0.00  0.00    +0.000 A 
ATOM     13  O   UNL     1      -4.723  13.798  21.388  0.00  0.00    +0.000 OA
ATOM     14  O   UNL     1      -2.935  12.524  20.744  0.00  0.00    +0.000 OA
ATOM     15  C   UNL     1      -2.358  11.684  19.774  0.00  0.00    +0.000 A 
ATOM     16  C   UNL     1      -1.081  11.207  20.069  0.00  0.00    +0.000 A 
ATOM     17  C   UNL     1      -0.436  10.370  19.166  0.00  0.00    +0.000 A 
ATOM     18  C   UNL     1      -1.089  10.021  17.980  0.00  0.00    +0.000 A 
ATOM     19  C   UNL     1      -2.373  10.507  17.695  0.00  0.00    +0.000 A 
ATOM     20  C   UNL     1      -3.028  11.355  18.595  0.00  0.00    +0.000 A 
ENDBRANCH   8  17
ENDBRANCH   7   8
ENDBRANCH   1   7
BRANCH   4  21
ATOM     21  C   UNL     1       4.670   4.781  18.401  0.00  0.00    +0.000 C 
BRANCH  21  22
ATOM     22  N   UNL     1       4.261   3.813  17.366  0.00  0.00    +0.000 NA
ATOM     23  C   UNL     1       5.311   3.650  16.356  0.00  0.00    +0.000 C 
BRANCH  22  24
ATOM     24  C   UNL     1       3.941   2.502  17.970  0.00  0.00    +0.000 C 
BRANCH  24  25
ATOM     25  C   UNL     1       2.943   2.611  19.105  0.00  0.00    +0.000 A 
ATOM     26  C   UNL     1       1.598   2.904  18.837  0.00  0.00    +0.000 A 
ATOM     27  C   UNL     1       0.706   3.145  19.881  0.00  0.00    +0.000 A 
ATOM     28  C   UNL     1       1.145   3.085  21.202  0.00  0.00    +0.000 A 
ATOM     29  C   UNL     1       2.470   2.755  21.482  0.00  0.00    +0.000 A 
ATOM     30  C   UNL     1       3.366   2.512  20.440  0.00  0.00    +0.000 A 
ENDBRANCH  24  25
ENDBRANCH  22  24
ENDBRANCH  21  22
ENDBRANCH   4  21
TORSDOF 7
ENDMDL
MODEL 9
REMARK VINA RESULT:      -8.1      2.534      3.569
REMARK  Name = 
REMARK  9 active torsions:
REMARK  status: ('A' for Active; 'I' for Inactive)
REMARK    1  A    between atoms: C_1  and  C_2
REMARK    2  A    between atoms: C_9  and  O_10
REMARK    3  A    between atoms: O_10  and  C_11
REMARK    4  A    between atoms: C_11  and  C_12
REMARK    5  A    between atoms: C_15  and  C_16
REMARK    6  A    between atoms: C_16  and  N_17
REMARK    7  A    between atoms: N_17  and  C_18
REMARK    8  A    between atoms: N_17  and  C_19
REMARK    9  A    between atoms: C_19  and  C_20
REMARK                            x       y       z     vdW  Elec       q    Type
REMARK                         _______ _______ _______ _____ _____    ______ ____
ROOT
ATOM      1  C   UNL     1       1.122   9.279  19.192  0.00  0.00    +0.000 A 
ATOM      2  C   UNL     1       1.358   8.360  20.220  0.00  0.00    +0.000 A 
ATOM      3  C   UNL     1       2.232   7.290  20.020  0.00  0.00    +0.000 A 
ATOM      4  C   UNL     1       2.887   7.129  18.789  0.00  0.00    +0.000 A 
ATOM      5  C   UNL     1       2.649   8.049  17.763  0.00  0.00    +0.000 A 
ATOM      6  C   UNL     1       1.778   9.119  17.964  0.00  0.00    +0.000 A 
ENDROOT
BRANCH   1   7
ATOM      7  C   UNL     1       0.201  10.451  19.407  0.00  0.00    +0.000 C 
BRANCH   7   8
ATOM      8  O   UNL     1       0.859  11.400  20.246  0.00  0.00    +0.000 OA
BRANCH   8  17
ATOM      9  C   UNL     1      -1.795  15.762  24.379  0.00  0.00    +0.000 C 
ATOM     10  C   UNL     1      -2.197  14.377  23.969  0.00  0.00    +0.000 A 
ATOM     11  C   UNL     1      -3.286  13.784  24.481  0.00  0.00    +0.000 A 
ATOM     12  C   UNL     1      -3.719  12.427  24.119  0.00  0.00    +0.000 A 
ATOM     13  O   UNL     1      -4.726  11.935  24.617  0.00  0.00    +0.000 OA
ATOM     14  O   UNL     1      -2.939  11.747  23.202  0.00  0.00    +0.000 OA
ATOM     15  C   UNL     1      -1.789  12.339  22.648  0.00  0.00    +0.000 A 
ATOM     16  C   UNL     1      -1.081  11.553  21.740  0.00  0.00    +0.000 A 
ATOM     17  C   UNL     1       0.069  12.060  21.145  0.00  0.00    +0.000 A 
ATOM     18  C   UNL     1       0.485  13.355  21.469  0.00  0.00    +0.000 A 
ATOM     19  C   UNL     1      -0.236  14.135  22.384  0.00  0.00    +0.000 A 
ATOM     20  C   UNL     1      -1.391  13.632  22.993  0.00  0.00    +0.000 A 
ENDBRANCH   8  17
ENDBRANCH   7   8
ENDBRANCH   1   7
BRANCH   4  21
ATOM     21  C   UNL     1       3.872   5.997  18.587  0.00  0.00    +0.000 C 
BRANCH  21  22
ATOM     22  N   UNL     1       3.695   5.267  17.317  0.00  0.00    +0.000 NA
ATOM     23  C   UNL     1       4.877   5.404  16.463  0.00  0.00    +0.000 C 
BRANCH  22  24
ATOM     24  C   UNL     1       3.423   3.836  17.568  0.00  0.00    +0.000 C 
BRANCH  24  25
ATOM     25  C   UNL     1       2.718   3.599  18.889  0.00  0.00    +0.000 A 
ATOM     26  C   UNL     1       3.430   3.097  19.989  0.00  0.00    +0.000 A 
ATOM     27  C   UNL     1       2.762   2.744  21.161  0.00  0.00    +0.000 A 
ATOM     28  C   UNL     1       1.380   2.898  21.250  0.00  0.00    +0.000 A 
ATOM     29  C   UNL     1       0.667   3.432  20.177  0.00  0.00    +0.000 A 
ATOM     30  C   UNL     1       1.332   3.788  19.003  0.00  0.00    +0.000 A 
ENDBRANCH  24  25
ENDBRANCH  22  24
ENDBRANCH  21  22
ENDBRANCH   4  21
TORSDOF 7
ENDMDL
