MODEL 1
REMARK VINA RESULT:      -9.9      0.000      0.000
REMARK  Name = 
REMARK  4 active torsions:
REMARK  status: ('A' for Active; 'I' for Inactive)
REMARK    1  A    between atoms: C_1  and  C_2
REMARK    2  A    between atoms: C_7  and  N_8
REMARK    3  A    between atoms: C_9  and  C_11
REMARK    4  A    between atoms: C_17  and  C_18
REMARK                            x       y       z     vdW  Elec       q    Type
REMARK                         _______ _______ _______ _____ _____    ______ ____
ROOT
ATOM      1  C   UNL     1       3.283   3.961  19.073  0.00  0.00    +0.000 A 
ATOM      2  C   UNL     1       2.778   2.715  19.487  0.00  0.00    +0.000 A 
ATOM      3  C   UNL     1       1.726   2.645  20.394  0.00  0.00    +0.000 A 
ATOM      4  C   UNL     1       1.132   3.816  20.850  0.00  0.00    +0.000 A 
ATOM      5  C   UNL     1       1.581   5.076  20.422  0.00  0.00    +0.000 A 
ATOM      6  C   UNL     1       0.936   6.245  20.875  0.00  0.00    +0.000 A 
ATOM      7  C   UNL     1       1.383   7.542  20.548  0.00  0.00    +0.000 A 
ATOM      8  C   UNL     1       2.535   7.618  19.770  0.00  0.00    +0.000 A 
ATOM      9  C   UNL     1       3.138   6.473  19.239  0.00  0.00    +0.000 A 
ATOM     10  C   UNL     1       2.686   5.169  19.546  0.00  0.00    +0.000 A 
ENDROOT
BRANCH   7  11
ATOM     11  C   UNL     1       0.681   8.746  21.050  0.00  0.00    +0.000 A 
ATOM     12  C   UNL     1       0.406   8.867  22.439  0.00  0.00    +0.000 A 
ATOM     13  C   UNL     1      -0.285   9.947  22.982  0.00  0.00    +0.000 A 
ATOM     14  C   UNL     1      -0.722  10.981  22.166  0.00  0.00    +0.000 A 
ATOM     15  C   UNL     1      -0.432  10.891  20.804  0.00  0.00    +0.000 A 
ATOM     16  N   UNL     1      -0.718  11.763  19.791  0.00  0.00    +0.000 N 
ATOM     17  N   UNL     1      -0.300  11.371  18.587  0.00  0.00    +0.000 NA
ATOM     18  C   UNL     1       0.269  10.192  18.818  0.00  0.00    +0.000 A 
ATOM     19  N   UNL     1       0.796   9.500  17.796  0.00  0.00    +0.000 N 
ATOM     20  C   UNL     1       0.243   9.817  20.208  0.00  0.00    +0.000 A 
ATOM     21  H   UNL     1      -1.208  12.648  19.863  0.00  0.00    +0.000 HD
ATOM     22  H   UNL     1       0.621   9.880  16.872  0.00  0.00    +0.000 HD
ATOM     23  H   UNL     1       0.807   8.487  17.814  0.00  0.00    +0.000 HD
ENDBRANCH   7  11
BRANCH   1  25
ATOM     24  N   UNL     1       4.233   4.538  16.891  0.00  0.00    +0.000 N 
ATOM     25  C   UNL     1       4.468   4.011  18.152  0.00  0.00    +0.000 C 
ATOM     26  O   UNL     1       5.571   3.635  18.534  0.00  0.00    +0.000 OA
ATOM     27  H   UNL     1       3.486   5.207  16.786  0.00  0.00    +0.000 HD
BRANCH  24  34
ATOM     28  C   UNL     1       6.075   3.263  12.475  0.00  0.00    +0.000 C 
ATOM     29  C   UNL     1       6.188   4.018  13.768  0.00  0.00    +0.000 A 
ATOM     30  C   UNL     1       7.243   4.915  13.992  0.00  0.00    +0.000 A 
ATOM     31  C   UNL     1       7.296   5.666  15.167  0.00  0.00    +0.000 A 
ATOM     32  C   UNL     1       6.280   5.541  16.106  0.00  0.00    +0.000 A 
ATOM     33  F   UNL     1       6.323   6.274  17.228  0.00  0.00    +0.000 F 
ATOM     34  C   UNL     1       5.249   4.620  15.921  0.00  0.00    +0.000 A 
ATOM     35  C   UNL     1       5.207   3.852  14.756  0.00  0.00    +0.000 A 
ENDBRANCH  24  34
ENDBRANCH   1  25
TORSDOF 3
ENDMDL
MODEL 2
REMARK VINA RESULT:      -9.5      1.100      1.164
REMARK  Name = 
REMARK  4 active torsions:
REMARK  status: ('A' for Active; 'I' for Inactive)
REMARK    1  A    between atoms: C_1  and  C_2
REMARK    2  A    between atoms: C_7  and  N_8
REMARK    3  A    between atoms: C_9  and  C_11
REMARK    4  A    between atoms: C_17  and  C_18
REMARK                            x       y       z     vdW  Elec       q    Type
REMARK                         _______ _______ _______ _____ _____    ______ ____
ROOT
ATOM      1  C   UNL     1       3.503   5.036  18.496  0.00  0.00    +0.000 A 
ATOM      2  C   UNL     1       3.545   3.775  19.117  0.00  0.00    +0.000 A 
ATOM      3  C   UNL     1       2.917   3.569  20.340  0.00  0.00    +0.000 A 
ATOM      4  C   UNL     1       2.195   4.603  20.926  0.00  0.00    +0.000 A 
ATOM      5  C   UNL     1       2.096   5.862  20.311  0.00  0.00    +0.000 A 
ATOM      6  C   UNL     1       1.327   6.881  20.911  0.00  0.00    +0.000 A 
ATOM      7  C   UNL     1       1.248   8.188  20.389  0.00  0.00    +0.000 A 
ATOM      8  C   UNL     1       2.006   8.444  19.250  0.00  0.00    +0.000 A 
ATOM      9  C   UNL     1       2.705   7.426  18.591  0.00  0.00    +0.000 A 
ATOM     10  C   UNL     1       2.775   6.107  19.096  0.00  0.00    +0.000 A 
ENDROOT
BRANCH   7  11
ATOM     11  C   UNL     1       0.434   9.232  21.053  0.00  0.00    +0.000 A 
ATOM     12  C   UNL     1       0.363   9.265  22.473  0.00  0.00    +0.000 A 
ATOM     13  C   UNL     1      -0.412  10.189  23.170  0.00  0.00    +0.000 A 
ATOM     14  C   UNL     1      -1.145  11.149  22.485  0.00  0.00    +0.000 A 
ATOM     15  C   UNL     1      -1.059  11.148  21.091  0.00  0.00    +0.000 A 
ATOM     16  N   UNL     1      -1.647  11.981  20.181  0.00  0.00    +0.000 N 
ATOM     17  N   UNL     1      -1.360  11.703  18.909  0.00  0.00    +0.000 NA
ATOM     18  C   UNL     1      -0.565  10.640  18.989  0.00  0.00    +0.000 A 
ATOM     19  N   UNL     1      -0.091  10.081  17.864  0.00  0.00    +0.000 N 
ATOM     20  C   UNL     1      -0.308  10.229  20.345  0.00  0.00    +0.000 A 
ATOM     21  H   UNL     1      -2.265  12.761  20.373  0.00  0.00    +0.000 HD
ATOM     22  H   UNL     1      -0.472  10.447  16.998  0.00  0.00    +0.000 HD
ATOM     23  H   UNL     1       0.097   9.086  17.826  0.00  0.00    +0.000 HD
ENDBRANCH   7  11
BRANCH   1  25
ATOM     24  N   UNL     1       4.920   4.149  16.706  0.00  0.00    +0.000 N 
ATOM     25  C   UNL     1       4.253   5.254  17.213  0.00  0.00    +0.000 C 
ATOM     26  O   UNL     1       4.227   6.345  16.653  0.00  0.00    +0.000 OA
ATOM     27  H   UNL     1       4.562   3.233  16.931  0.00  0.00    +0.000 HD
BRANCH  24  34
ATOM     28  C   UNL     1       5.455   3.213  11.874  0.00  0.00    +0.000 C 
ATOM     29  C   UNL     1       5.985   3.775  13.161  0.00  0.00    +0.000 A 
ATOM     30  C   UNL     1       7.194   4.486  13.196  0.00  0.00    +0.000 A 
ATOM     31  C   UNL     1       7.638   5.068  14.385  0.00  0.00    +0.000 A 
ATOM     32  C   UNL     1       6.862   4.960  15.531  0.00  0.00    +0.000 A 
ATOM     33  F   UNL     1       7.282   5.532  16.670  0.00  0.00    +0.000 F 
ATOM     34  C   UNL     1       5.681   4.218  15.526  0.00  0.00    +0.000 A 
ATOM     35  C   UNL     1       5.247   3.617  14.343  0.00  0.00    +0.000 A 
ENDBRANCH  24  34
ENDBRANCH   1  25
TORSDOF 3
ENDMDL
MODEL 3
REMARK VINA RESULT:      -9.5      3.839      9.692
REMARK  Name = 
REMARK  4 active torsions:
REMARK  status: ('A' for Active; 'I' for Inactive)
REMARK    1  A    between atoms: C_1  and  C_2
REMARK    2  A    between atoms: C_7  and  N_8
REMARK    3  A    between atoms: C_9  and  C_11
REMARK    4  A    between atoms: C_17  and  C_18
REMARK                            x       y       z     vdW  Elec       q    Type
REMARK                         _______ _______ _______ _____ _____    ______ ____
ROOT
ATOM      1  C   UNL     1       0.953  10.438  20.057  0.00  0.00    +0.000 A 
ATOM      2  C   UNL     1       1.261  11.244  18.945  0.00  0.00    +0.000 A 
ATOM      3  C   UNL     1       1.895  10.701  17.833  0.00  0.00    +0.000 A 
ATOM      4  C   UNL     1       2.175   9.339  17.797  0.00  0.00    +0.000 A 
ATOM      5  C   UNL     1       1.840   8.498  18.871  0.00  0.00    +0.000 A 
ATOM      6  C   UNL     1       2.104   7.115  18.792  0.00  0.00    +0.000 A 
ATOM      7  C   UNL     1       1.867   6.227  19.861  0.00  0.00    +0.000 A 
ATOM      8  C   UNL     1       1.382   6.795  21.036  0.00  0.00    +0.000 A 
ATOM      9  C   UNL     1       1.031   8.148  21.106  0.00  0.00    +0.000 A 
ATOM     10  C   UNL     1       1.248   9.042  20.033  0.00  0.00    +0.000 A 
ENDROOT
BRANCH   7  11
ATOM     11  C   UNL     1       2.164   4.781  19.740  0.00  0.00    +0.000 A 
ATOM     12  C   UNL     1       1.108   3.837  19.865  0.00  0.00    +0.000 A 
ATOM     13  C   UNL     1       1.313   2.461  19.804  0.00  0.00    +0.000 A 
ATOM     14  C   UNL     1       2.586   1.950  19.593  0.00  0.00    +0.000 A 
ATOM     15  C   UNL     1       3.628   2.867  19.437  0.00  0.00    +0.000 A 
ATOM     16  N   UNL     1       4.956   2.646  19.198  0.00  0.00    +0.000 N 
ATOM     17  N   UNL     1       5.694   3.753  19.105  0.00  0.00    +0.000 NA
ATOM     18  C   UNL     1       4.819   4.734  19.304  0.00  0.00    +0.000 A 
ATOM     19  N   UNL     1       5.239   6.009  19.289  0.00  0.00    +0.000 N 
ATOM     20  C   UNL     1       3.476   4.258  19.508  0.00  0.00    +0.000 A 
ATOM     21  H   UNL     1       5.420   1.751  19.094  0.00  0.00    +0.000 HD
ATOM     22  H   UNL     1       6.244   6.139  19.238  0.00  0.00    +0.000 HD
ATOM     23  H   UNL     1       4.777   6.708  19.858  0.00  0.00    +0.000 HD
ENDBRANCH   7  11
BRANCH   1  25
ATOM     24  N   UNL     1      -0.622  12.035  21.038  0.00  0.00    +0.000 N 
ATOM     25  C   UNL     1       0.338  11.063  21.276  0.00  0.00    +0.000 C 
ATOM     26  O   UNL     1       0.660  10.690  22.398  0.00  0.00    +0.000 OA
ATOM     27  H   UNL     1      -1.147  11.986  20.178  0.00  0.00    +0.000 HD
BRANCH  24  34
ATOM     28  C   UNL     1      -4.274  12.360  24.365  0.00  0.00    +0.000 C 
ATOM     29  C   UNL     1      -3.035  12.919  23.729  0.00  0.00    +0.000 A 
ATOM     30  C   UNL     1      -2.416  14.070  24.240  0.00  0.00    +0.000 A 
ATOM     31  C   UNL     1      -1.223  14.537  23.685  0.00  0.00    +0.000 A 
ATOM     32  C   UNL     1      -0.635  13.838  22.639  0.00  0.00    +0.000 A 
ATOM     33  F   UNL     1       0.519  14.279  22.116  0.00  0.00    +0.000 F 
ATOM     34  C   UNL     1      -1.261  12.720  22.088  0.00  0.00    +0.000 A 
ATOM     35  C   UNL     1      -2.466  12.265  22.627  0.00  0.00    +0.000 A 
ENDBRANCH  24  34
ENDBRANCH   1  25
TORSDOF 3
ENDMDL
MODEL 4
REMARK VINA RESULT:      -9.5      1.578      2.023
REMARK  Name = 
REMARK  4 active torsions:
REMARK  status: ('A' for Active; 'I' for Inactive)
REMARK    1  A    between atoms: C_1  and  C_2
REMARK    2  A    between atoms: C_7  and  N_8
REMARK    3  A    between atoms: C_9  and  C_11
REMARK    4  A    between atoms: C_17  and  C_18
REMARK                            x       y       z     vdW  Elec       q    Type
REMARK                         _______ _______ _______ _____ _____    ______ ____
ROOT
ATOM      1  C   UNL     1       3.374   5.973  18.420  0.00  0.00    +0.000 A 
ATOM      2  C   UNL     1       3.390   4.846  19.262  0.00  0.00    +0.000 A 
ATOM      3  C   UNL     1       2.701   4.857  20.469  0.00  0.00    +0.000 A 
ATOM      4  C   UNL     1       1.944   5.969  20.821  0.00  0.00    +0.000 A 
ATOM      5  C   UNL     1       1.871   7.094  19.983  0.00  0.00    +0.000 A 
ATOM      6  C   UNL     1       1.068   8.195  20.348  0.00  0.00    +0.000 A 
ATOM      7  C   UNL     1       1.009   9.385  19.594  0.00  0.00    +0.000 A 
ATOM      8  C   UNL     1       1.824   9.440  18.467  0.00  0.00    +0.000 A 
ATOM      9  C   UNL     1       2.560   8.329  18.039  0.00  0.00    +0.000 A 
ATOM     10  C   UNL     1       2.610   7.125  18.779  0.00  0.00    +0.000 A 
ENDROOT
BRANCH   7  11
ATOM     11  C   UNL     1       0.157  10.520  20.016  0.00  0.00    +0.000 A 
ATOM     12  C   UNL     1       0.420  11.169  21.254  0.00  0.00    +0.000 A 
ATOM     13  C   UNL     1      -0.359  12.216  21.739  0.00  0.00    +0.000 A 
ATOM     14  C   UNL     1      -1.436  12.689  21.002  0.00  0.00    +0.000 A 
ATOM     15  C   UNL     1      -1.686  12.082  19.770  0.00  0.00    +0.000 A 
ATOM     16  N   UNL     1      -2.651  12.359  18.841  0.00  0.00    +0.000 N 
ATOM     17  N   UNL     1      -2.619  11.579  17.760  0.00  0.00    +0.000 NA
ATOM     18  C   UNL     1      -1.603  10.754  17.994  0.00  0.00    +0.000 A 
ATOM     19  N   UNL     1      -1.295   9.810  17.092  0.00  0.00    +0.000 N 
ATOM     20  C   UNL     1      -0.943  11.015  19.247  0.00  0.00    +0.000 A 
ATOM     21  H   UNL     1      -3.370  13.071  18.897  0.00  0.00    +0.000 HD
ATOM     22  H   UNL     1      -1.945   9.713  16.319  0.00  0.00    +0.000 HD
ATOM     23  H   UNL     1      -0.895   8.928  17.388  0.00  0.00    +0.000 HD
ENDBRANCH   7  11
BRANCH   1  25
ATOM     24  N   UNL     1       4.719   4.739  16.788  0.00  0.00    +0.000 N 
ATOM     25  C   UNL     1       4.187   5.966  17.158  0.00  0.00    +0.000 C 
ATOM     26  O   UNL     1       4.324   6.989  16.497  0.00  0.00    +0.000 OA
ATOM     27  H   UNL     1       4.237   3.903  17.082  0.00  0.00    +0.000 HD
BRANCH  24  34
ATOM     28  C   UNL     1       5.261   3.346  12.068  0.00  0.00    +0.000 C 
ATOM     29  C   UNL     1       5.830   3.920  13.333  0.00  0.00    +0.000 A 
ATOM     30  C   UNL     1       7.136   4.433  13.371  0.00  0.00    +0.000 A 
ATOM     31  C   UNL     1       7.626   5.032  14.533  0.00  0.00    +0.000 A 
ATOM     32  C   UNL     1       6.805   5.140  15.647  0.00  0.00    +0.000 A 
ATOM     33  F   UNL     1       7.272   5.729  16.758  0.00  0.00    +0.000 F 
ATOM     34  C   UNL     1       5.522   4.593  15.642  0.00  0.00    +0.000 A 
ATOM     35  C   UNL     1       5.037   3.974  14.488  0.00  0.00    +0.000 A 
ENDBRANCH  24  34
ENDBRANCH   1  25
TORSDOF 3
ENDMDL
MODEL 5
REMARK VINA RESULT:      -9.4      3.908      8.714
REMARK  Name = 
REMARK  4 active torsions:
REMARK  status: ('A' for Active; 'I' for Inactive)
REMARK    1  A    between atoms: C_1  and  C_2
REMARK    2  A    between atoms: C_7  and  N_8
REMARK    3  A    between atoms: C_9  and  C_11
REMARK    4  A    between atoms: C_17  and  C_18
REMARK                            x       y       z     vdW  Elec       q    Type
REMARK                         _______ _______ _______ _____ _____    ______ ____
ROOT
ATOM      1  C   UNL     1       1.061  10.772  20.113  0.00  0.00    +0.000 A 
ATOM      2  C   UNL     1       0.576  10.822  21.432  0.00  0.00    +0.000 A 
ATOM      3  C   UNL     1       0.460   9.660  22.187  0.00  0.00    +0.000 A 
ATOM      4  C   UNL     1       0.881   8.447  21.652  0.00  0.00    +0.000 A 
ATOM      5  C   UNL     1       1.412   8.369  20.354  0.00  0.00    +0.000 A 
ATOM      6  C   UNL     1       1.863   7.131  19.851  0.00  0.00    +0.000 A 
ATOM      7  C   UNL     1       2.334   6.965  18.532  0.00  0.00    +0.000 A 
ATOM      8  C   UNL     1       2.299   8.096  17.720  0.00  0.00    +0.000 A 
ATOM      9  C   UNL     1       1.939   9.350  18.225  0.00  0.00    +0.000 A 
ATOM     10  C   UNL     1       1.483   9.529  19.551  0.00  0.00    +0.000 A 
ENDROOT
BRANCH   7  11
ATOM     11  C   UNL     1       2.793   5.647  18.040  0.00  0.00    +0.000 A 
ATOM     12  C   UNL     1       1.882   4.555  18.011  0.00  0.00    +0.000 A 
ATOM     13  C   UNL     1       2.248   3.276  17.601  0.00  0.00    +0.000 A 
ATOM     14  C   UNL     1       3.543   3.019  17.175  0.00  0.00    +0.000 A 
ATOM     15  C   UNL     1       4.441   4.089  17.169  0.00  0.00    +0.000 A 
ATOM     16  N   UNL     1       5.752   4.126  16.783  0.00  0.00    +0.000 N 
ATOM     17  N   UNL     1       6.333   5.319  16.907  0.00  0.00    +0.000 NA
ATOM     18  C   UNL     1       5.370   6.090  17.405  0.00  0.00    +0.000 A 
ATOM     19  N   UNL     1       5.625   7.381  17.670  0.00  0.00    +0.000 N 
ATOM     20  C   UNL     1       4.126   5.389  17.588  0.00  0.00    +0.000 A 
ATOM     21  H   UNL     1       6.309   3.356  16.429  0.00  0.00    +0.000 HD
ATOM     22  H   UNL     1       6.595   7.664  17.576  0.00  0.00    +0.000 HD
ATOM     23  H   UNL     1       5.144   7.854  18.425  0.00  0.00    +0.000 HD
ENDBRANCH   7  11
BRANCH   1  25
ATOM     24  N   UNL     1       2.053  12.967  19.672  0.00  0.00    +0.000 N 
ATOM     25  C   UNL     1       1.104  12.029  19.292  0.00  0.00    +0.000 C 
ATOM     26  O   UNL     1       0.359  12.172  18.329  0.00  0.00    +0.000 OA
ATOM     27  H   UNL     1       2.886  12.640  20.137  0.00  0.00    +0.000 HD
BRANCH  24  34
ATOM     28  C   UNL     1       0.633  17.661  18.990  0.00  0.00    +0.000 C 
ATOM     29  C   UNL     1       1.519  16.501  18.638  0.00  0.00    +0.000 A 
ATOM     30  C   UNL     1       2.575  16.648  17.727  0.00  0.00    +0.000 A 
ATOM     31  C   UNL     1       3.437  15.581  17.465  0.00  0.00    +0.000 A 
ATOM     32  C   UNL     1       3.258  14.377  18.133  0.00  0.00    +0.000 A 
ATOM     33  F   UNL     1       4.096  13.357  17.892  0.00  0.00    +0.000 F 
ATOM     34  C   UNL     1       2.186  14.199  19.006  0.00  0.00    +0.000 A 
ATOM     35  C   UNL     1       1.310  15.258  19.252  0.00  0.00    +0.000 A 
ENDBRANCH  24  34
ENDBRANCH   1  25
TORSDOF 3
ENDMDL
MODEL 6
REMARK VINA RESULT:      -9.3      3.875      9.621
REMARK  Name = 
REMARK  4 active torsions:
REMARK  status: ('A' for Active; 'I' for Inactive)
REMARK    1  A    between atoms: C_1  and  C_2
REMARK    2  A    between atoms: C_7  and  N_8
REMARK    3  A    between atoms: C_9  and  C_11
REMARK    4  A    between atoms: C_17  and  C_18
REMARK                            x       y       z     vdW  Elec       q    Type
REMARK                         _______ _______ _______ _____ _____    ______ ____
ROOT
ATOM      1  C   UNL     1       1.003  10.683  19.745  0.00  0.00    +0.000 A 
ATOM      2  C   UNL     1       1.414  11.347  18.575  0.00  0.00    +0.000 A 
ATOM      3  C   UNL     1       2.123  10.668  17.590  0.00  0.00    +0.000 A 
ATOM      4  C   UNL     1       2.377   9.309  17.737  0.00  0.00    +0.000 A 
ATOM      5  C   UNL     1       1.942   8.606  18.873  0.00  0.00    +0.000 A 
ATOM      6  C   UNL     1       2.184   7.220  18.980  0.00  0.00    +0.000 A 
ATOM      7  C   UNL     1       1.844   6.469  20.123  0.00  0.00    +0.000 A 
ATOM      8  C   UNL     1       1.279   7.178  21.180  0.00  0.00    +0.000 A 
ATOM      9  C   UNL     1       0.952   8.533  21.061  0.00  0.00    +0.000 A 
ATOM     10  C   UNL     1       1.271   9.290  19.911  0.00  0.00    +0.000 A 
ENDROOT
BRANCH   7  11
ATOM     11  C   UNL     1       2.121   5.016  20.199  0.00  0.00    +0.000 A 
ATOM     12  C   UNL     1       1.103   4.133  20.649  0.00  0.00    +0.000 A 
ATOM     13  C   UNL     1       1.298   2.760  20.787  0.00  0.00    +0.000 A 
ATOM     14  C   UNL     1       2.520   2.190  20.460  0.00  0.00    +0.000 A 
ATOM     15  C   UNL     1       3.520   3.042  19.985  0.00  0.00    +0.000 A 
ATOM     16  N   UNL     1       4.791   2.751  19.574  0.00  0.00    +0.000 N 
ATOM     17  N   UNL     1       5.501   3.808  19.179  0.00  0.00    +0.000 NA
ATOM     18  C   UNL     1       4.669   4.831  19.351  0.00  0.00    +0.000 A 
ATOM     19  N   UNL     1       5.077   6.075  19.055  0.00  0.00    +0.000 N 
ATOM     20  C   UNL     1       3.378   4.429  19.847  0.00  0.00    +0.000 A 
ATOM     21  H   UNL     1       5.234   1.840  19.547  0.00  0.00    +0.000 HD
ATOM     22  H   UNL     1       6.060   6.169  18.820  0.00  0.00    +0.000 HD
ATOM     23  H   UNL     1       4.713   6.870  19.567  0.00  0.00    +0.000 HD
ENDBRANCH   7  11
BRANCH   1  25
ATOM     24  N   UNL     1      -1.078  11.481  20.758  0.00  0.00    +0.000 N 
ATOM     25  C   UNL     1       0.307  11.456  20.828  0.00  0.00    +0.000 C 
ATOM     26  O   UNL     1       0.949  11.989  21.726  0.00  0.00    +0.000 OA
ATOM     27  H   UNL     1      -1.547  10.708  20.309  0.00  0.00    +0.000 HD
BRANCH  24  34
ATOM     28  C   UNL     1      -4.020  15.298  21.894  0.00  0.00    +0.000 C 
ATOM     29  C   UNL     1      -3.297  14.044  22.292  0.00  0.00    +0.000 A 
ATOM     30  C   UNL     1      -3.471  13.482  23.565  0.00  0.00    +0.000 A 
ATOM     31  C   UNL     1      -2.850  12.276  23.897  0.00  0.00    +0.000 A 
ATOM     32  C   UNL     1      -2.078  11.620  22.947  0.00  0.00    +0.000 A 
ATOM     33  F   UNL     1      -1.494  10.454  23.261  0.00  0.00    +0.000 F 
ATOM     34  C   UNL     1      -1.856  12.188  21.693  0.00  0.00    +0.000 A 
ATOM     35  C   UNL     1      -2.457  13.405  21.368  0.00  0.00    +0.000 A 
ENDBRANCH  24  34
ENDBRANCH   1  25
TORSDOF 3
ENDMDL
MODEL 7
REMARK VINA RESULT:      -9.3      3.838      8.994
REMARK  Name = 
REMARK  4 active torsions:
REMARK  status: ('A' for Active; 'I' for Inactive)
REMARK    1  A    between atoms: C_1  and  C_2
REMARK    2  A    between atoms: C_7  and  N_8
REMARK    3  A    between atoms: C_9  and  C_11
REMARK    4  A    between atoms: C_17  and  C_18
REMARK                            x       y       z     vdW  Elec       q    Type
REMARK                         _______ _______ _______ _____ _____    ______ ____
ROOT
ATOM      1  C   UNL     1       0.656  10.554  20.201  0.00  0.00    +0.000 A 
ATOM      2  C   UNL     1       0.148  10.376  21.501  0.00  0.00    +0.000 A 
ATOM      3  C   UNL     1       0.270   9.150  22.145  0.00  0.00    +0.000 A 
ATOM      4  C   UNL     1       0.949   8.108  21.522  0.00  0.00    +0.000 A 
ATOM      5  C   UNL     1       1.507   8.266  20.242  0.00  0.00    +0.000 A 
ATOM      6  C   UNL     1       2.221   7.204  19.649  0.00  0.00    +0.000 A 
ATOM      7  C   UNL     1       2.739   7.266  18.339  0.00  0.00    +0.000 A 
ATOM      8  C   UNL     1       2.479   8.435  17.629  0.00  0.00    +0.000 A 
ATOM      9  C   UNL     1       1.850   9.532  18.229  0.00  0.00    +0.000 A 
ATOM     10  C   UNL     1       1.344   9.486  19.548  0.00  0.00    +0.000 A 
ENDROOT
BRANCH   7  11
ATOM     11  C   UNL     1       3.478   6.126  17.750  0.00  0.00    +0.000 A 
ATOM     12  C   UNL     1       4.591   6.377  16.902  0.00  0.00    +0.000 A 
ATOM     13  C   UNL     1       5.310   5.360  16.278  0.00  0.00    +0.000 A 
ATOM     14  C   UNL     1       4.969   4.031  16.485  0.00  0.00    +0.000 A 
ATOM     15  C   UNL     1       3.898   3.769  17.341  0.00  0.00    +0.000 A 
ATOM     16  N   UNL     1       3.369   2.571  17.735  0.00  0.00    +0.000 N 
ATOM     17  N   UNL     1       2.331   2.670  18.567  0.00  0.00    +0.000 NA
ATOM     18  C   UNL     1       2.166   3.981  18.712  0.00  0.00    +0.000 A 
ATOM     19  N   UNL     1       1.176   4.442  19.492  0.00  0.00    +0.000 N 
ATOM     20  C   UNL     1       3.132   4.756  17.977  0.00  0.00    +0.000 A 
ATOM     21  H   UNL     1       3.676   1.645  17.460  0.00  0.00    +0.000 HD
ATOM     22  H   UNL     1       0.531   3.741  19.841  0.00  0.00    +0.000 HD
ATOM     23  H   UNL     1       0.728   5.326  19.285  0.00  0.00    +0.000 HD
ENDBRANCH   7  11
BRANCH   1  25
ATOM     24  N   UNL     1       1.255  12.910  19.910  0.00  0.00    +0.000 N 
ATOM     25  C   UNL     1       0.445  11.863  19.496  0.00  0.00    +0.000 C 
ATOM     26  O   UNL     1      -0.375  11.959  18.590  0.00  0.00    +0.000 OA
ATOM     27  H   UNL     1       2.159  12.687  20.301  0.00  0.00    +0.000 HD
BRANCH  24  34
ATOM     28  C   UNL     1      -1.286  17.106  19.244  0.00  0.00    +0.000 C 
ATOM     29  C   UNL     1      -0.067  16.266  18.999  0.00  0.00    +0.000 A 
ATOM     30  C   UNL     1       1.042  16.784  18.312  0.00  0.00    +0.000 A 
ATOM     31  C   UNL     1       2.198  16.017  18.155  0.00  0.00    +0.000 A 
ATOM     32  C   UNL     1       2.255  14.745  18.708  0.00  0.00    +0.000 A 
ATOM     33  F   UNL     1       3.372  14.014  18.571  0.00  0.00    +0.000 F 
ATOM     34  C   UNL     1       1.147  14.197  19.353  0.00  0.00    +0.000 A 
ATOM     35  C   UNL     1      -0.018  14.954  19.490  0.00  0.00    +0.000 A 
ENDBRANCH  24  34
ENDBRANCH   1  25
TORSDOF 3
ENDMDL
MODEL 8
REMARK VINA RESULT:      -9.3      4.101      9.051
REMARK  Name = 
REMARK  4 active torsions:
REMARK  status: ('A' for Active; 'I' for Inactive)
REMARK    1  A    between atoms: C_1  and  C_2
REMARK    2  A    between atoms: C_7  and  N_8
REMARK    3  A    between atoms: C_9  and  C_11
REMARK    4  A    between atoms: C_17  and  C_18
REMARK                            x       y       z     vdW  Elec       q    Type
REMARK                         _______ _______ _______ _____ _____    ______ ____
ROOT
ATOM      1  C   UNL     1       0.629  10.568  20.238  0.00  0.00    +0.000 A 
ATOM      2  C   UNL     1       0.128  10.380  21.539  0.00  0.00    +0.000 A 
ATOM      3  C   UNL     1       0.259   9.152  22.176  0.00  0.00    +0.000 A 
ATOM      4  C   UNL     1       0.942   8.118  21.544  0.00  0.00    +0.000 A 
ATOM      5  C   UNL     1       1.494   8.285  20.263  0.00  0.00    +0.000 A 
ATOM      6  C   UNL     1       2.211   7.231  19.661  0.00  0.00    +0.000 A 
ATOM      7  C   UNL     1       2.724   7.303  18.350  0.00  0.00    +0.000 A 
ATOM      8  C   UNL     1       2.453   8.474  17.647  0.00  0.00    +0.000 A 
ATOM      9  C   UNL     1       1.821   9.564  18.255  0.00  0.00    +0.000 A 
ATOM     10  C   UNL     1       1.320   9.508  19.576  0.00  0.00    +0.000 A 
ENDROOT
BRANCH   7  11
ATOM     11  C   UNL     1       3.466   6.170  17.752  0.00  0.00    +0.000 A 
ATOM     12  C   UNL     1       4.577   6.432  16.904  0.00  0.00    +0.000 A 
ATOM     13  C   UNL     1       5.300   5.423  16.272  0.00  0.00    +0.000 A 
ATOM     14  C   UNL     1       4.965   4.091  16.469  0.00  0.00    +0.000 A 
ATOM     15  C   UNL     1       3.895   3.817  17.324  0.00  0.00    +0.000 A 
ATOM     16  N   UNL     1       3.373   2.615  17.711  0.00  0.00    +0.000 N 
ATOM     17  N   UNL     1       2.335   2.703  18.544  0.00  0.00    +0.000 NA
ATOM     18  C   UNL     1       2.165   4.013  18.699  0.00  0.00    +0.000 A 
ATOM     19  N   UNL     1       1.174   4.463  19.484  0.00  0.00    +0.000 N 
ATOM     20  C   UNL     1       3.127   4.797  17.969  0.00  0.00    +0.000 A 
ATOM     21  H   UNL     1       3.683   1.692  17.428  0.00  0.00    +0.000 HD
ATOM     22  H   UNL     1       0.532   3.757  19.828  0.00  0.00    +0.000 HD
ATOM     23  H   UNL     1       0.722   5.347  19.284  0.00  0.00    +0.000 HD
ENDBRANCH   7  11
BRANCH   1  25
ATOM     24  N   UNL     1       1.036  12.979  20.107  0.00  0.00    +0.000 N 
ATOM     25  C   UNL     1       0.408  11.879  19.541  0.00  0.00    +0.000 C 
ATOM     26  O   UNL     1      -0.263  11.937  18.516  0.00  0.00    +0.000 OA
ATOM     27  H   UNL     1       1.883  12.824  20.633  0.00  0.00    +0.000 HD
BRANCH  24  34
ATOM     28  C   UNL     1       2.835  16.761  17.466  0.00  0.00    +0.000 C 
ATOM     29  C   UNL     1       1.739  16.148  18.289  0.00  0.00    +0.000 A 
ATOM     30  C   UNL     1       0.505  16.796  18.447  0.00  0.00    +0.000 A 
ATOM     31  C   UNL     1      -0.531  16.181  19.153  0.00  0.00    +0.000 A 
ATOM     32  C   UNL     1      -0.341  14.910  19.678  0.00  0.00    +0.000 A 
ATOM     33  F   UNL     1      -1.342  14.314  20.344  0.00  0.00    +0.000 F 
ATOM     34  C   UNL     1       0.894  14.272  19.572  0.00  0.00    +0.000 A 
ATOM     35  C   UNL     1       1.938  14.895  18.886  0.00  0.00    +0.000 A 
ENDBRANCH  24  34
ENDBRANCH   1  25
TORSDOF 3
ENDMDL
MODEL 9
REMARK VINA RESULT:      -9.2      3.770      9.012
REMARK  Name = 
REMARK  4 active torsions:
REMARK  status: ('A' for Active; 'I' for Inactive)
REMARK    1  A    between atoms: C_1  and  C_2
REMARK    2  A    between atoms: C_7  and  N_8
REMARK    3  A    between atoms: C_9  and  C_11
REMARK    4  A    between atoms: C_17  and  C_18
REMARK                            x       y       z     vdW  Elec       q    Type
REMARK                         _______ _______ _______ _____ _____    ______ ____
ROOT
ATOM      1  C   UNL     1      -0.127   9.896  19.999  0.00  0.00    +0.000 A 
ATOM      2  C   UNL     1      -0.210   9.986  21.401  0.00  0.00    +0.000 A 
ATOM      3  C   UNL     1       0.602   9.198  22.208  0.00  0.00    +0.000 A 
ATOM      4  C   UNL     1       1.543   8.356  21.626  0.00  0.00    +0.000 A 
ATOM      5  C   UNL     1       1.683   8.275  20.231  0.00  0.00    +0.000 A 
ATOM      6  C   UNL     1       2.670   7.438  19.669  0.00  0.00    +0.000 A 
ATOM      7  C   UNL     1       2.814   7.249  18.279  0.00  0.00    +0.000 A 
ATOM      8  C   UNL     1       1.895   7.913  17.470  0.00  0.00    +0.000 A 
ATOM      9  C   UNL     1       0.966   8.814  18.001  0.00  0.00    +0.000 A 
ATOM     10  C   UNL     1       0.827   9.024  19.392  0.00  0.00    +0.000 A 
ENDROOT
BRANCH   7  11
ATOM     11  C   UNL     1       3.859   6.357  17.729  0.00  0.00    +0.000 A 
ATOM     12  C   UNL     1       5.034   6.922  17.163  0.00  0.00    +0.000 A 
ATOM     13  C   UNL     1       6.043   6.152  16.589  0.00  0.00    +0.000 A 
ATOM     14  C   UNL     1       5.943   4.768  16.569  0.00  0.00    +0.000 A 
ATOM     15  C   UNL     1       4.809   4.197  17.150  0.00  0.00    +0.000 A 
ATOM     16  N   UNL     1       4.468   2.881  17.288  0.00  0.00    +0.000 N 
ATOM     17  N   UNL     1       3.299   2.672  17.893  0.00  0.00    +0.000 NA
ATOM     18  C   UNL     1       2.851   3.897  18.149  0.00  0.00    +0.000 A 
ATOM     19  N   UNL     1       1.665   4.055  18.756  0.00  0.00    +0.000 N 
ATOM     20  C   UNL     1       3.760   4.929  17.722  0.00  0.00    +0.000 A 
ATOM     21  H   UNL     1       4.998   2.074  16.978  0.00  0.00    +0.000 HD
ATOM     22  H   UNL     1       1.120   3.209  18.882  0.00  0.00    +0.000 HD
ATOM     23  H   UNL     1       1.094   4.870  18.563  0.00  0.00    +0.000 HD
ENDBRANCH   7  11
BRANCH   1  25
ATOM     24  N   UNL     1      -2.232  10.055  18.758  0.00  0.00    +0.000 N 
ATOM     25  C   UNL     1      -1.068  10.700  19.149  0.00  0.00    +0.000 C 
ATOM     26  O   UNL     1      -0.812  11.865  18.865  0.00  0.00    +0.000 OA
ATOM     27  H   UNL     1      -2.590   9.320  19.348  0.00  0.00    +0.000 HD
BRANCH  24  34
ATOM     28  C   UNL     1      -6.179  12.998  18.238  0.00  0.00    +0.000 C 
ATOM     29  C   UNL     1      -5.123  12.114  17.642  0.00  0.00    +0.000 A 
ATOM     30  C   UNL     1      -4.989  11.984  16.251  0.00  0.00    +0.000 A 
ATOM     31  C   UNL     1      -3.956  11.218  15.709  0.00  0.00    +0.000 A 
ATOM     32  C   UNL     1      -3.043  10.603  16.555  0.00  0.00    +0.000 A 
ATOM     33  F   UNL     1      -2.042   9.878  16.032  0.00  0.00    +0.000 F 
ATOM     34  C   UNL     1      -3.189  10.682  17.939  0.00  0.00    +0.000 A 
ATOM     35  C   UNL     1      -4.235  11.429  18.484  0.00  0.00    +0.000 A 
ENDBRANCH  24  34
ENDBRANCH   1  25
TORSDOF 3
ENDMDL
