MODEL 1
REMARK VINA RESULT:      -8.0      0.000      0.000
REMARK  Name = 
REMARK  3 active torsions:
REMARK  status: ('A' for Active; 'I' for Inactive)
REMARK    1  A    between atoms: C_4  and  O_5
REMARK    2  A    between atoms: O_5  and  C_6
REMARK    3  A    between atoms: C_11  and  O_12
REMARK                            x       y       z     vdW  Elec       q    Type
REMARK                         _______ _______ _______ _____ _____    ______ ____
ROOT
ATOM      1  O   UNL     1       0.807   4.020  17.391  0.00  0.00    +0.000 OA
ATOM      2  C   UNL     1       1.879   3.719  17.900  0.00  0.00    +0.000 A 
ATOM      3  N   UNL     1       3.065   3.795  17.219  0.00  0.00    +0.000 N 
ATOM      4  C   UNL     1       4.271   3.548  17.804  0.00  0.00    +0.000 A 
ATOM      5  N   UNL     1       4.413   3.132  19.017  0.00  0.00    +0.000 NA
ATOM      6  C   UNL     1       3.248   2.981  19.787  0.00  0.00    +0.000 A 
ATOM      7  C   UNL     1       3.318   2.565  21.108  0.00  0.00    +0.000 A 
ATOM      8  N   UNL     1       2.245   2.438  21.930  0.00  0.00    +0.000 NA
ATOM      9  C   UNL     1       1.036   2.748  21.412  0.00  0.00    +0.000 A 
ATOM     10  C   UNL     1       0.848   3.168  20.109  0.00  0.00    +0.000 A 
ATOM     11  C   UNL     1       1.977   3.275  19.301  0.00  0.00    +0.000 A 
ATOM     12  H   UNL     1       3.037   4.132  16.269  0.00  0.00    +0.000 HD
ENDROOT
BRANCH   4  13
ATOM     13  O   UNL     1       5.330   3.809  16.949  0.00  0.00    +0.000 OA
BRANCH  13  14
ATOM     14  C   UNL     1       6.109   4.964  17.166  0.00  0.00    +0.000 A 
ATOM     15  C   UNL     1       5.857   6.068  16.349  0.00  0.00    +0.000 A 
ATOM     16  C   UNL     1       6.534   7.269  16.584  0.00  0.00    +0.000 A 
ATOM     17  C   UNL     1       7.448   7.355  17.637  0.00  0.00    +0.000 A 
ATOM     18 CL   UNL     1       8.265   8.844  17.935  0.00  0.00    +0.000 Cl
ATOM     19  C   UNL     1       7.683   6.247  18.453  0.00  0.00    +0.000 A 
ATOM     20  C   UNL     1       7.009   5.053  18.231  0.00  0.00    +0.000 A 
BRANCH  19  21
ATOM     21  O   UNL     1       8.560   6.286  19.503  0.00  0.00    +0.000 OA
ATOM     22  H   UNL     1       9.384   6.692  19.178  0.00  0.00    +0.000 HD
ENDBRANCH  19  21
ENDBRANCH  13  14
ENDBRANCH   4  13
TORSDOF 3
ENDMDL
MODEL 2
REMARK VINA RESULT:      -7.9      2.849      3.634
REMARK  Name = 
REMARK  3 active torsions:
REMARK  status: ('A' for Active; 'I' for Inactive)
REMARK    1  A    between atoms: C_4  and  O_5
REMARK    2  A    between atoms: O_5  and  C_6
REMARK    3  A    between atoms: C_11  and  O_12
REMARK                            x       y       z     vdW  Elec       q    Type
REMARK                         _______ _______ _______ _____ _____    ______ ____
ROOT
ATOM      1  O   UNL     1       5.077   1.648  20.298  0.00  0.00    +0.000 OA
ATOM      2  C   UNL     1       4.722   2.754  19.912  0.00  0.00    +0.000 A 
ATOM      3  N   UNL     1       5.544   3.582  19.196  0.00  0.00    +0.000 N 
ATOM      4  C   UNL     1       5.130   4.775  18.684  0.00  0.00    +0.000 A 
ATOM      5  N   UNL     1       3.964   5.285  18.898  0.00  0.00    +0.000 NA
ATOM      6  C   UNL     1       3.059   4.529  19.659  0.00  0.00    +0.000 A 
ATOM      7  C   UNL     1       1.777   4.994  19.910  0.00  0.00    +0.000 A 
ATOM      8  N   UNL     1       0.831   4.305  20.597  0.00  0.00    +0.000 NA
ATOM      9  C   UNL     1       1.177   3.082  21.056  0.00  0.00    +0.000 A 
ATOM     10  C   UNL     1       2.426   2.520  20.870  0.00  0.00    +0.000 A 
ATOM     11  C   UNL     1       3.365   3.268  20.165  0.00  0.00    +0.000 A 
ATOM     12  H   UNL     1       6.468   3.244  18.971  0.00  0.00    +0.000 HD
ENDROOT
BRANCH   4  13
ATOM     13  O   UNL     1       6.101   5.372  17.896  0.00  0.00    +0.000 OA
BRANCH  13  14
ATOM     14  C   UNL     1       6.266   4.927  16.568  0.00  0.00    +0.000 A 
ATOM     15  C   UNL     1       5.342   3.997  16.087  0.00  0.00    +0.000 A 
ATOM     16  C   UNL     1       5.402   3.595  14.749  0.00  0.00    +0.000 A 
ATOM     17  C   UNL     1       6.377   4.132  13.906  0.00  0.00    +0.000 A 
ATOM     18 CL   UNL     1       6.434   3.647  12.252  0.00  0.00    +0.000 Cl
ATOM     19  C   UNL     1       7.288   5.069  14.397  0.00  0.00    +0.000 A 
ATOM     20  C   UNL     1       7.231   5.480  15.723  0.00  0.00    +0.000 A 
BRANCH  19  21
ATOM     21  O   UNL     1       8.254   5.632  13.608  0.00  0.00    +0.000 OA
ATOM     22  H   UNL     1       9.056   5.084  13.695  0.00  0.00    +0.000 HD
ENDBRANCH  19  21
ENDBRANCH  13  14
ENDBRANCH   4  13
TORSDOF 3
ENDMDL
MODEL 3
REMARK VINA RESULT:      -7.4      2.813      3.262
REMARK  Name = 
REMARK  3 active torsions:
REMARK  status: ('A' for Active; 'I' for Inactive)
REMARK    1  A    between atoms: C_4  and  O_5
REMARK    2  A    between atoms: O_5  and  C_6
REMARK    3  A    between atoms: C_11  and  O_12
REMARK                            x       y       z     vdW  Elec       q    Type
REMARK                         _______ _______ _______ _____ _____    ______ ____
ROOT
ATOM      1  O   UNL     1       2.270   6.682  18.600  0.00  0.00    +0.000 OA
ATOM      2  C   UNL     1       3.034   5.744  18.789  0.00  0.00    +0.000 A 
ATOM      3  N   UNL     1       4.271   5.675  18.206  0.00  0.00    +0.000 N 
ATOM      4  C   UNL     1       5.164   4.682  18.480  0.00  0.00    +0.000 A 
ATOM      5  N   UNL     1       4.904   3.667  19.233  0.00  0.00    +0.000 NA
ATOM      6  C   UNL     1       3.641   3.624  19.846  0.00  0.00    +0.000 A 
ATOM      7  C   UNL     1       3.296   2.582  20.692  0.00  0.00    +0.000 A 
ATOM      8  N   UNL     1       2.115   2.492  21.356  0.00  0.00    +0.000 NA
ATOM      9  C   UNL     1       1.231   3.497  21.172  0.00  0.00    +0.000 A 
ATOM     10  C   UNL     1       1.466   4.582  20.350  0.00  0.00    +0.000 A 
ATOM     11  C   UNL     1       2.689   4.627  19.684  0.00  0.00    +0.000 A 
ATOM     12  H   UNL     1       4.555   6.443  17.618  0.00  0.00    +0.000 HD
ENDROOT
BRANCH   4  13
ATOM     13  O   UNL     1       6.388   4.894  17.866  0.00  0.00    +0.000 OA
BRANCH  13  14
ATOM     14  C   UNL     1       6.516   4.608  16.491  0.00  0.00    +0.000 A 
ATOM     15  C   UNL     1       5.642   3.662  15.952  0.00  0.00    +0.000 A 
ATOM     16  C   UNL     1       5.661   3.410  14.577  0.00  0.00    +0.000 A 
ATOM     17  C   UNL     1       6.548   4.111  13.755  0.00  0.00    +0.000 A 
ATOM     18 CL   UNL     1       6.554   3.810  12.058  0.00  0.00    +0.000 Cl
ATOM     19  C   UNL     1       7.410   5.061  14.306  0.00  0.00    +0.000 A 
ATOM     20  C   UNL     1       7.391   5.324  15.670  0.00  0.00    +0.000 A 
BRANCH  19  21
ATOM     21  O   UNL     1       8.288   5.781  13.542  0.00  0.00    +0.000 OA
ATOM     22  H   UNL     1       8.818   6.329  14.149  0.00  0.00    +0.000 HD
ENDBRANCH  19  21
ENDBRANCH  13  14
ENDBRANCH   4  13
TORSDOF 3
ENDMDL
MODEL 4
REMARK VINA RESULT:      -7.3      3.912      6.058
REMARK  Name = 
REMARK  3 active torsions:
REMARK  status: ('A' for Active; 'I' for Inactive)
REMARK    1  A    between atoms: C_4  and  O_5
REMARK    2  A    between atoms: O_5  and  C_6
REMARK    3  A    between atoms: C_11  and  O_12
REMARK                            x       y       z     vdW  Elec       q    Type
REMARK                         _______ _______ _______ _____ _____    ______ ____
ROOT
ATOM      1  O   UNL     1       7.021   5.469  19.865  0.00  0.00    +0.000 OA
ATOM      2  C   UNL     1       6.004   5.281  19.209  0.00  0.00    +0.000 A 
ATOM      3  N   UNL     1       4.750   5.452  19.732  0.00  0.00    +0.000 N 
ATOM      4  C   UNL     1       3.615   5.332  18.986  0.00  0.00    +0.000 A 
ATOM      5  N   UNL     1       3.600   4.958  17.751  0.00  0.00    +0.000 NA
ATOM      6  C   UNL     1       4.838   4.717  17.135  0.00  0.00    +0.000 A 
ATOM      7  C   UNL     1       4.909   4.340  15.803  0.00  0.00    +0.000 A 
ATOM      8  N   UNL     1       6.066   4.132  15.124  0.00  0.00    +0.000 NA
ATOM      9  C   UNL     1       7.217   4.316  15.806  0.00  0.00    +0.000 A 
ATOM     10  C   UNL     1       7.268   4.686  17.137  0.00  0.00    +0.000 A 
ATOM     11  C   UNL     1       6.055   4.881  17.793  0.00  0.00    +0.000 A 
ATOM     12  H   UNL     1       4.680   5.763  20.689  0.00  0.00    +0.000 HD
ENDROOT
BRANCH   4  13
ATOM     13  O   UNL     1       2.479   5.671  19.705  0.00  0.00    +0.000 OA
BRANCH  13  14
ATOM     14  C   UNL     1       1.996   6.994  19.626  0.00  0.00    +0.000 A 
ATOM     15  C   UNL     1       1.430   7.536  20.780  0.00  0.00    +0.000 A 
ATOM     16  C   UNL     1       1.023   8.874  20.785  0.00  0.00    +0.000 A 
ATOM     17  C   UNL     1       1.192   9.655  19.639  0.00  0.00    +0.000 A 
ATOM     18 CL   UNL     1       0.706  11.309  19.656  0.00  0.00    +0.000 Cl
ATOM     19  C   UNL     1       1.769   9.103  18.494  0.00  0.00    +0.000 A 
ATOM     20  C   UNL     1       2.185   7.777  18.484  0.00  0.00    +0.000 A 
BRANCH  19  21
ATOM     21  O   UNL     1       1.967   9.830  17.352  0.00  0.00    +0.000 OA
ATOM     22  H   UNL     1       2.247   9.206  16.656  0.00  0.00    +0.000 HD
ENDBRANCH  19  21
ENDBRANCH  13  14
ENDBRANCH   4  13
TORSDOF 3
ENDMDL
MODEL 5
REMARK VINA RESULT:      -7.2      5.295      5.970
REMARK  Name = 
REMARK  3 active torsions:
REMARK  status: ('A' for Active; 'I' for Inactive)
REMARK    1  A    between atoms: C_4  and  O_5
REMARK    2  A    between atoms: O_5  and  C_6
REMARK    3  A    between atoms: C_11  and  O_12
REMARK                            x       y       z     vdW  Elec       q    Type
REMARK                         _______ _______ _______ _____ _____    ______ ____
ROOT
ATOM      1  O   UNL     1      -0.300  10.574  17.992  0.00  0.00    +0.000 OA
ATOM      2  C   UNL     1       0.389   9.790  18.632  0.00  0.00    +0.000 A 
ATOM      3  N   UNL     1       1.235   8.895  18.032  0.00  0.00    +0.000 N 
ATOM      4  C   UNL     1       2.071   8.081  18.737  0.00  0.00    +0.000 A 
ATOM      5  N   UNL     1       2.086   8.003  20.025  0.00  0.00    +0.000 NA
ATOM      6  C   UNL     1       1.221   8.854  20.732  0.00  0.00    +0.000 A 
ATOM      7  C   UNL     1       1.197   8.851  22.118  0.00  0.00    +0.000 A 
ATOM      8  N   UNL     1       0.425   9.673  22.874  0.00  0.00    +0.000 NA
ATOM      9  C   UNL     1      -0.363  10.550  22.215  0.00  0.00    +0.000 A 
ATOM     10  C   UNL     1      -0.424  10.638  20.837  0.00  0.00    +0.000 A 
ATOM     11  C   UNL     1       0.381   9.770  20.104  0.00  0.00    +0.000 A 
ATOM     12  H   UNL     1       1.293   8.909  17.025  0.00  0.00    +0.000 HD
ENDROOT
BRANCH   4  13
ATOM     13  O   UNL     1       2.914   7.356  17.909  0.00  0.00    +0.000 OA
BRANCH  13  14
ATOM     14  C   UNL     1       3.065   5.973  18.139  0.00  0.00    +0.000 A 
ATOM     15  C   UNL     1       1.965   5.157  17.868  0.00  0.00    +0.000 A 
ATOM     16  C   UNL     1       2.090   3.769  17.987  0.00  0.00    +0.000 A 
ATOM     17  C   UNL     1       3.313   3.213  18.367  0.00  0.00    +0.000 A 
ATOM     18 CL   UNL     1       3.467   1.500  18.493  0.00  0.00    +0.000 Cl
ATOM     19  C   UNL     1       4.408   4.039  18.625  0.00  0.00    +0.000 A 
ATOM     20  C   UNL     1       4.295   5.419  18.502  0.00  0.00    +0.000 A 
BRANCH  19  21
ATOM     21  O   UNL     1       5.630   3.542  18.990  0.00  0.00    +0.000 OA
ATOM     22  H   UNL     1       5.554   3.234  19.912  0.00  0.00    +0.000 HD
ENDBRANCH  19  21
ENDBRANCH  13  14
ENDBRANCH   4  13
TORSDOF 3
ENDMDL
MODEL 6
REMARK VINA RESULT:      -7.2      4.251      6.001
REMARK  Name = 
REMARK  3 active torsions:
REMARK  status: ('A' for Active; 'I' for Inactive)
REMARK    1  A    between atoms: C_4  and  O_5
REMARK    2  A    between atoms: O_5  and  C_6
REMARK    3  A    between atoms: C_11  and  O_12
REMARK                            x       y       z     vdW  Elec       q    Type
REMARK                         _______ _______ _______ _____ _____    ______ ____
ROOT
ATOM      1  O   UNL     1       2.990   2.985  16.716  0.00  0.00    +0.000 OA
ATOM      2  C   UNL     1       3.539   3.982  17.169  0.00  0.00    +0.000 A 
ATOM      3  N   UNL     1       3.012   4.705  18.205  0.00  0.00    +0.000 N 
ATOM      4  C   UNL     1       3.658   5.761  18.775  0.00  0.00    +0.000 A 
ATOM      5  N   UNL     1       4.774   6.242  18.341  0.00  0.00    +0.000 NA
ATOM      6  C   UNL     1       5.376   5.593  17.251  0.00  0.00    +0.000 A 
ATOM      7  C   UNL     1       6.590   6.031  16.744  0.00  0.00    +0.000 A 
ATOM      8  N   UNL     1       7.256   5.432  15.724  0.00  0.00    +0.000 NA
ATOM      9  C   UNL     1       6.687   4.334  15.182  0.00  0.00    +0.000 A 
ATOM     10  C   UNL     1       5.478   3.811  15.603  0.00  0.00    +0.000 A 
ATOM     11  C   UNL     1       4.828   4.464  16.647  0.00  0.00    +0.000 A 
ATOM     12  H   UNL     1       2.148   4.379  18.612  0.00  0.00    +0.000 HD
ENDROOT
BRANCH   4  13
ATOM     13  O   UNL     1       2.984   6.252  19.882  0.00  0.00    +0.000 OA
BRANCH  13  14
ATOM     14  C   UNL     1       2.185   7.405  19.734  0.00  0.00    +0.000 A 
ATOM     15  C   UNL     1       1.418   7.795  20.832  0.00  0.00    +0.000 A 
ATOM     16  C   UNL     1       0.682   8.983  20.772  0.00  0.00    +0.000 A 
ATOM     17  C   UNL     1       0.729   9.770  19.619  0.00  0.00    +0.000 A 
ATOM     18 CL   UNL     1      -0.164  11.244  19.557  0.00  0.00    +0.000 Cl
ATOM     19  C   UNL     1       1.509   9.374  18.531  0.00  0.00    +0.000 A 
ATOM     20  C   UNL     1       2.249   8.199  18.586  0.00  0.00    +0.000 A 
BRANCH  19  21
ATOM     21  O   UNL     1       1.596  10.115  17.385  0.00  0.00    +0.000 OA
ATOM     22  H   UNL     1       0.735  10.051  16.932  0.00  0.00    +0.000 HD
ENDBRANCH  19  21
ENDBRANCH  13  14
ENDBRANCH   4  13
TORSDOF 3
ENDMDL
MODEL 7
REMARK VINA RESULT:      -7.1      6.123      7.477
REMARK  Name = 
REMARK  3 active torsions:
REMARK  status: ('A' for Active; 'I' for Inactive)
REMARK    1  A    between atoms: C_4  and  O_5
REMARK    2  A    between atoms: O_5  and  C_6
REMARK    3  A    between atoms: C_11  and  O_12
REMARK                            x       y       z     vdW  Elec       q    Type
REMARK                         _______ _______ _______ _____ _____    ______ ____
ROOT
ATOM      1  O   UNL     1       0.916   9.547  23.380  0.00  0.00    +0.000 OA
ATOM      2  C   UNL     1       0.988   9.391  22.168  0.00  0.00    +0.000 A 
ATOM      3  N   UNL     1       1.829   8.475  21.593  0.00  0.00    +0.000 N 
ATOM      4  C   UNL     1       1.851   8.231  20.252  0.00  0.00    +0.000 A 
ATOM      5  N   UNL     1       1.161   8.894  19.387  0.00  0.00    +0.000 NA
ATOM      6  C   UNL     1       0.296   9.886  19.875  0.00  0.00    +0.000 A 
ATOM      7  C   UNL     1      -0.501  10.623  19.013  0.00  0.00    +0.000 A 
ATOM      8  N   UNL     1      -1.392  11.567  19.409  0.00  0.00    +0.000 NA
ATOM      9  C   UNL     1      -1.502  11.786  20.738  0.00  0.00    +0.000 A 
ATOM     10  C   UNL     1      -0.756  11.115  21.688  0.00  0.00    +0.000 A 
ATOM     11  C   UNL     1       0.151  10.161  21.233  0.00  0.00    +0.000 A 
ATOM     12  H   UNL     1       2.388   7.904  22.208  0.00  0.00    +0.000 HD
ENDROOT
BRANCH   4  13
ATOM     13  O   UNL     1       2.693   7.179  19.927  0.00  0.00    +0.000 OA
BRANCH  13  14
ATOM     14  C   UNL     1       2.124   5.925  19.620  0.00  0.00    +0.000 A 
ATOM     15  C   UNL     1       2.119   5.537  18.280  0.00  0.00    +0.000 A 
ATOM     16  C   UNL     1       1.654   4.264  17.933  0.00  0.00    +0.000 A 
ATOM     17  C   UNL     1       1.209   3.392  18.929  0.00  0.00    +0.000 A 
ATOM     18 CL   UNL     1       0.656   1.817  18.497  0.00  0.00    +0.000 Cl
ATOM     19  C   UNL     1       1.229   3.789  20.267  0.00  0.00    +0.000 A 
ATOM     20  C   UNL     1       1.697   5.049  20.621  0.00  0.00    +0.000 A 
BRANCH  19  21
ATOM     21  O   UNL     1       0.815   2.968  21.280  0.00  0.00    +0.000 OA
ATOM     22  H   UNL     1       1.202   2.088  21.117  0.00  0.00    +0.000 HD
ENDBRANCH  19  21
ENDBRANCH  13  14
ENDBRANCH   4  13
TORSDOF 3
ENDMDL
MODEL 8
REMARK VINA RESULT:      -6.9      4.383      6.063
REMARK  Name = 
REMARK  3 active torsions:
REMARK  status: ('A' for Active; 'I' for Inactive)
REMARK    1  A    between atoms: C_4  and  O_5
REMARK    2  A    between atoms: O_5  and  C_6
REMARK    3  A    between atoms: C_11  and  O_12
REMARK                            x       y       z     vdW  Elec       q    Type
REMARK                         _______ _______ _______ _____ _____    ______ ____
ROOT
ATOM      1  O   UNL     1       3.174   2.967  16.803  0.00  0.00    +0.000 OA
ATOM      2  C   UNL     1       3.645   4.024  17.204  0.00  0.00    +0.000 A 
ATOM      3  N   UNL     1       3.032   4.784  18.164  0.00  0.00    +0.000 N 
ATOM      4  C   UNL     1       3.592   5.915  18.682  0.00  0.00    +0.000 A 
ATOM      5  N   UNL     1       4.697   6.431  18.259  0.00  0.00    +0.000 NA
ATOM      6  C   UNL     1       5.381   5.745  17.242  0.00  0.00    +0.000 A 
ATOM      7  C   UNL     1       6.589   6.219  16.754  0.00  0.00    +0.000 A 
ATOM      8  N   UNL     1       7.332   5.593  15.806  0.00  0.00    +0.000 NA
ATOM      9  C   UNL     1       6.851   4.427  15.322  0.00  0.00    +0.000 A 
ATOM     10  C   UNL     1       5.657   3.863  15.731  0.00  0.00    +0.000 A 
ATOM     11  C   UNL     1       4.926   4.546  16.700  0.00  0.00    +0.000 A 
ATOM     12  H   UNL     1       2.172   4.436  18.559  0.00  0.00    +0.000 HD
ENDROOT
BRANCH   4  13
ATOM     13  O   UNL     1       2.843   6.439  19.723  0.00  0.00    +0.000 OA
BRANCH  13  14
ATOM     14  C   UNL     1       2.161   7.657  19.522  0.00  0.00    +0.000 A 
ATOM     15  C   UNL     1       2.110   8.152  18.218  0.00  0.00    +0.000 A 
ATOM     16  C   UNL     1       1.365   9.305  17.947  0.00  0.00    +0.000 A 
ATOM     17  C   UNL     1       0.676   9.944  18.980  0.00  0.00    +0.000 A 
ATOM     18 CL   UNL     1      -0.256  11.354  18.637  0.00  0.00    +0.000 Cl
ATOM     19  C   UNL     1       0.727   9.433  20.278  0.00  0.00    +0.000 A 
ATOM     20  C   UNL     1       1.457   8.283  20.554  0.00  0.00    +0.000 A 
BRANCH  19  21
ATOM     21  O   UNL     1       0.060  10.016  21.321  0.00  0.00    +0.000 OA
ATOM     22  H   UNL     1      -0.438  10.772  20.960  0.00  0.00    +0.000 HD
ENDBRANCH  19  21
ENDBRANCH  13  14
ENDBRANCH   4  13
TORSDOF 3
ENDMDL
MODEL 9
REMARK VINA RESULT:      -6.8      4.237      6.273
REMARK  Name = 
REMARK  3 active torsions:
REMARK  status: ('A' for Active; 'I' for Inactive)
REMARK    1  A    between atoms: C_4  and  O_5
REMARK    2  A    between atoms: O_5  and  C_6
REMARK    3  A    between atoms: C_11  and  O_12
REMARK                            x       y       z     vdW  Elec       q    Type
REMARK                         _______ _______ _______ _____ _____    ______ ____
ROOT
ATOM      1  O   UNL     1       6.863   5.023  19.882  0.00  0.00    +0.000 OA
ATOM      2  C   UNL     1       5.938   5.224  19.106  0.00  0.00    +0.000 A 
ATOM      3  N   UNL     1       4.669   5.514  19.534  0.00  0.00    +0.000 N 
ATOM      4  C   UNL     1       3.654   5.828  18.679  0.00  0.00    +0.000 A 
ATOM      5  N   UNL     1       3.757   5.793  17.394  0.00  0.00    +0.000 NA
ATOM      6  C   UNL     1       5.012   5.463  16.856  0.00  0.00    +0.000 A 
ATOM      7  C   UNL     1       5.211   5.431  15.484  0.00  0.00    +0.000 A 
ATOM      8  N   UNL     1       6.402   5.167  14.888  0.00  0.00    +0.000 NA
ATOM      9  C   UNL     1       7.454   4.926  15.701  0.00  0.00    +0.000 A 
ATOM     10  C   UNL     1       7.370   4.926  17.080  0.00  0.00    +0.000 A 
ATOM     11  C   UNL     1       6.127   5.196  17.646  0.00  0.00    +0.000 A 
ATOM     12  H   UNL     1       4.515   5.579  20.528  0.00  0.00    +0.000 HD
ENDROOT
BRANCH   4  13
ATOM     13  O   UNL     1       2.502   6.203  19.352  0.00  0.00    +0.000 OA
BRANCH  13  14
ATOM     14  C   UNL     1       2.091   7.550  19.295  0.00  0.00    +0.000 A 
ATOM     15  C   UNL     1       2.170   8.190  18.057  0.00  0.00    +0.000 A 
ATOM     16  C   UNL     1       1.686   9.496  17.924  0.00  0.00    +0.000 A 
ATOM     17  C   UNL     1       1.122  10.143  19.026  0.00  0.00    +0.000 A 
ATOM     18 CL   UNL     1       0.509  11.745  18.851  0.00  0.00    +0.000 Cl
ATOM     19  C   UNL     1       1.039   9.487  20.256  0.00  0.00    +0.000 A 
ATOM     20  C   UNL     1       1.510   8.187  20.395  0.00  0.00    +0.000 A 
BRANCH  19  21
ATOM     21  O   UNL     1       0.485  10.074  21.361  0.00  0.00    +0.000 OA
ATOM     22  H   UNL     1      -0.282   9.532  21.623  0.00  0.00    +0.000 HD
ENDBRANCH  19  21
ENDBRANCH  13  14
ENDBRANCH   4  13
TORSDOF 3
ENDMDL
