MODEL 1
REMARK VINA RESULT:      -8.1      0.000      0.000
REMARK  Name = 
REMARK  7 active torsions:
REMARK  status: ('A' for Active; 'I' for Inactive)
REMARK    1  A    between atoms: C_1  and  C_2
REMARK    2  A    between atoms: C_5  and  C_6
REMARK    3  A    between atoms: C_7  and  S_8
REMARK    4  A    between atoms: S_8  and  N_11
REMARK    5  A    between atoms: C_14  and  N_15
REMARK    6  A    between atoms: N_18  and  C_19
REMARK    7  A    between atoms: C_19  and  C_20
REMARK                            x       y       z     vdW  Elec       q    Type
REMARK                         _______ _______ _______ _____ _____    ______ ____
ROOT
ATOM      1  N   UNL     1      -0.144  14.181  21.046  0.00  0.00    +0.000 NA
ATOM      2  C   UNL     1      -0.136  13.843  19.598  0.00  0.00    +0.000 C 
ATOM      3  C   UNL     1      -1.199  12.824  19.227  0.00  0.00    +0.000 C 
ATOM      4  C   UNL     1      -1.223  11.587  20.122  0.00  0.00    +0.000 C 
ATOM      5  C   UNL     1      -1.326  12.011  21.586  0.00  0.00    +0.000 C 
ATOM      6  C   UNL     1      -0.306  13.057  22.016  0.00  0.00    +0.000 C 
ENDROOT
BRANCH   4   7
ATOM      7  N   UNL     1      -0.149  10.609  19.867  0.00  0.00    +0.000 N 
ATOM      8  C   UNL     1       0.654  10.055  20.954  0.00  0.00    +0.000 C 
ATOM      9  C   UNL     1       0.753   8.550  20.798  0.00  0.00    +0.000 C 
ATOM     10  N   UNL     1       1.537   8.303  19.613  0.00  0.00    +0.000 N 
ATOM     11  C   UNL     1       1.212   9.003  18.444  0.00  0.00    +0.000 C 
ATOM     12  O   UNL     1       1.804   8.853  17.380  0.00  0.00    +0.000 OA
ATOM     13  C   UNL     1       0.049  10.056  18.575  0.00  0.00    +0.000 C 
ATOM     14  O   UNL     1      -0.636  10.346  17.604  0.00  0.00    +0.000 OA
BRANCH  10  15
ATOM     15  C   UNL     1       2.653   7.371  19.688  0.00  0.00    +0.000 C 
BRANCH  15  16
ATOM     16  C   UNL     1       2.203   5.951  19.456  0.00  0.00    +0.000 A 
ATOM     17  C   UNL     1       2.208   5.434  18.150  0.00  0.00    +0.000 A 
ATOM     18  C   UNL     1       1.706   4.162  17.892  0.00  0.00    +0.000 A 
ATOM     19  C   UNL     1       1.212   3.396  18.941  0.00  0.00    +0.000 A 
ATOM     20  F   UNL     1       0.696   2.186  18.687  0.00  0.00    +0.000 F 
ATOM     21  C   UNL     1       1.237   3.870  20.248  0.00  0.00    +0.000 A 
ATOM     22  C   UNL     1       1.732   5.150  20.509  0.00  0.00    +0.000 A 
ENDBRANCH  15  16
ENDBRANCH  10  15
ENDBRANCH   4   7
BRANCH   1  23
ATOM     23  S   UNL     1       1.146  15.245  21.508  0.00  0.00    +0.000 S 
ATOM     24  O   UNL     1       2.175  14.400  22.088  0.00  0.00    +0.000 OA
ATOM     25  O   UNL     1       0.582  16.342  22.255  0.00  0.00    +0.000 OA
BRANCH  23  32
ATOM     26  C   UNL     1       0.579  18.420  17.331  0.00  0.00    +0.000 C 
ATOM     27  C   UNL     1       1.396  17.394  18.061  0.00  0.00    +0.000 A 
ATOM     28  C   UNL     1       2.528  16.849  17.450  0.00  0.00    +0.000 A 
ATOM     29  C   UNL     1       3.284  15.869  18.096  0.00  0.00    +0.000 A 
ATOM     30  C   UNL     1       2.917  15.385  19.360  0.00  0.00    +0.000 A 
ATOM     31  C   UNL     1       3.777  14.331  20.001  0.00  0.00    +0.000 C 
ATOM     32  C   UNL     1       1.754  15.904  19.959  0.00  0.00    +0.000 A 
ATOM     33  C   UNL     1       1.003  16.907  19.316  0.00  0.00    +0.000 A 
ENDBRANCH  23  32
ENDBRANCH   1  23
TORSDOF 5
ENDMDL
MODEL 2
REMARK VINA RESULT:      -8.0      3.967      5.953
REMARK  Name = 
REMARK  7 active torsions:
REMARK  status: ('A' for Active; 'I' for Inactive)
REMARK    1  A    between atoms: C_1  and  C_2
REMARK    2  A    between atoms: C_5  and  C_6
REMARK    3  A    between atoms: C_7  and  S_8
REMARK    4  A    between atoms: S_8  and  N_11
REMARK    5  A    between atoms: C_14  and  N_15
REMARK    6  A    between atoms: N_18  and  C_19
REMARK    7  A    between atoms: C_19  and  C_20
REMARK                            x       y       z     vdW  Elec       q    Type
REMARK                         _______ _______ _______ _____ _____    ______ ____
ROOT
ATOM      1  N   UNL     1      -1.819  11.565  19.026  0.00  0.00    +0.000 NA
ATOM      2  C   UNL     1      -1.586  10.792  20.275  0.00  0.00    +0.000 C 
ATOM      3  C   UNL     1      -0.196  11.003  20.847  0.00  0.00    +0.000 C 
ATOM      4  C   UNL     1       0.932  10.837  19.831  0.00  0.00    +0.000 C 
ATOM      5  C   UNL     1       0.672  11.730  18.619  0.00  0.00    +0.000 C 
ATOM      6  C   UNL     1      -0.719  11.590  18.016  0.00  0.00    +0.000 C 
ENDROOT
BRANCH   4   7
ATOM      7  N   UNL     1       1.253   9.442  19.475  0.00  0.00    +0.000 N 
ATOM      8  C   UNL     1       1.413   9.026  18.085  0.00  0.00    +0.000 C 
ATOM      9  C   UNL     1       2.672   8.191  17.944  0.00  0.00    +0.000 C 
ATOM     10  N   UNL     1       2.440   6.961  18.661  0.00  0.00    +0.000 N 
ATOM     11  C   UNL     1       1.917   7.038  19.958  0.00  0.00    +0.000 C 
ATOM     12  O   UNL     1       1.701   6.053  20.658  0.00  0.00    +0.000 OA
ATOM     13  C   UNL     1       1.566   8.483  20.473  0.00  0.00    +0.000 C 
ATOM     14  O   UNL     1       1.587   8.735  21.670  0.00  0.00    +0.000 OA
BRANCH  10  15
ATOM     15  C   UNL     1       2.721   5.696  17.997  0.00  0.00    +0.000 C 
BRANCH  15  16
ATOM     16  C   UNL     1       4.200   5.417  17.943  0.00  0.00    +0.000 A 
ATOM     17  C   UNL     1       4.807   5.167  16.701  0.00  0.00    +0.000 A 
ATOM     18  C   UNL     1       6.151   4.810  16.631  0.00  0.00    +0.000 A 
ATOM     19  C   UNL     1       6.896   4.717  17.799  0.00  0.00    +0.000 A 
ATOM     20  F   UNL     1       8.180   4.339  17.734  0.00  0.00    +0.000 F 
ATOM     21  C   UNL     1       6.328   5.002  19.035  0.00  0.00    +0.000 A 
ATOM     22  C   UNL     1       4.978   5.352  19.111  0.00  0.00    +0.000 A 
ENDBRANCH  15  16
ENDBRANCH  10  15
ENDBRANCH   4   7
BRANCH   1  23
ATOM     23  S   UNL     1      -3.355  11.236  18.292  0.00  0.00    +0.000 S 
ATOM     24  O   UNL     1      -3.577   9.809  18.450  0.00  0.00    +0.000 OA
ATOM     25  O   UNL     1      -3.374  11.847  16.986  0.00  0.00    +0.000 OA
BRANCH  23  32
ATOM     26  C   UNL     1      -4.422  14.518  22.285  0.00  0.00    +0.000 C 
ATOM     27  C   UNL     1      -4.925  13.630  21.184  0.00  0.00    +0.000 A 
ATOM     28  C   UNL     1      -6.294  13.372  21.076  0.00  0.00    +0.000 A 
ATOM     29  C   UNL     1      -6.783  12.522  20.081  0.00  0.00    +0.000 A 
ATOM     30  C   UNL     1      -5.916  11.885  19.181  0.00  0.00    +0.000 A 
ATOM     31  C   UNL     1      -6.507  10.986  18.132  0.00  0.00    +0.000 C 
ATOM     32  C   UNL     1      -4.533  12.113  19.314  0.00  0.00    +0.000 A 
ATOM     33  C   UNL     1      -4.043  12.986  20.305  0.00  0.00    +0.000 A 
ENDBRANCH  23  32
ENDBRANCH   1  23
TORSDOF 5
ENDMDL
MODEL 3
REMARK VINA RESULT:      -7.9      3.949      6.273
REMARK  Name = 
REMARK  7 active torsions:
REMARK  status: ('A' for Active; 'I' for Inactive)
REMARK    1  A    between atoms: C_1  and  C_2
REMARK    2  A    between atoms: C_5  and  C_6
REMARK    3  A    between atoms: C_7  and  S_8
REMARK    4  A    between atoms: S_8  and  N_11
REMARK    5  A    between atoms: C_14  and  N_15
REMARK    6  A    between atoms: N_18  and  C_19
REMARK    7  A    between atoms: C_19  and  C_20
REMARK                            x       y       z     vdW  Elec       q    Type
REMARK                         _______ _______ _______ _____ _____    ______ ____
ROOT
ATOM      1  N   UNL     1      -2.673  11.831  18.805  0.00  0.00    +0.000 NA
ATOM      2  C   UNL     1      -2.347  11.181  20.102  0.00  0.00    +0.000 C 
ATOM      3  C   UNL     1      -0.992  11.600  20.645  0.00  0.00    +0.000 C 
ATOM      4  C   UNL     1       0.147  11.501  19.633  0.00  0.00    +0.000 C 
ATOM      5  C   UNL     1      -0.221  12.269  18.364  0.00  0.00    +0.000 C 
ATOM      6  C   UNL     1      -1.585  11.919  17.786  0.00  0.00    +0.000 C 
ENDROOT
BRANCH   4   7
ATOM      7  N   UNL     1       0.636  10.135  19.372  0.00  0.00    +0.000 N 
ATOM      8  C   UNL     1       0.753   9.612  18.014  0.00  0.00    +0.000 C 
ATOM      9  C   UNL     1       2.104   8.944  17.839  0.00  0.00    +0.000 C 
ATOM     10  N   UNL     1       2.100   7.769  18.676  0.00  0.00    +0.000 N 
ATOM     11  C   UNL     1       1.666   7.899  20.002  0.00  0.00    +0.000 C 
ATOM     12  O   UNL     1       1.642   6.967  20.799  0.00  0.00    +0.000 OA
ATOM     13  C   UNL     1       1.152   9.326  20.419  0.00  0.00    +0.000 C 
ATOM     14  O   UNL     1       1.222   9.694  21.584  0.00  0.00    +0.000 OA
BRANCH  10  15
ATOM     15  C   UNL     1       2.509   6.495  18.102  0.00  0.00    +0.000 C 
BRANCH  15  16
ATOM     16  C   UNL     1       3.995   6.281  18.233  0.00  0.00    +0.000 A 
ATOM     17  C   UNL     1       4.857   6.847  17.279  0.00  0.00    +0.000 A 
ATOM     18  C   UNL     1       6.223   6.584  17.319  0.00  0.00    +0.000 A 
ATOM     19  C   UNL     1       6.735   5.769  18.321  0.00  0.00    +0.000 A 
ATOM     20  F   UNL     1       8.045   5.488  18.337  0.00  0.00    +0.000 F 
ATOM     21  C   UNL     1       5.907   5.233  19.300  0.00  0.00    +0.000 A 
ATOM     22  C   UNL     1       4.534   5.487  19.259  0.00  0.00    +0.000 A 
ENDBRANCH  15  16
ENDBRANCH  10  15
ENDBRANCH   4   7
BRANCH   1  23
ATOM     23  S   UNL     1      -4.158  11.266  18.110  0.00  0.00    +0.000 S 
ATOM     24  O   UNL     1      -4.119   9.817  18.203  0.00  0.00    +0.000 OA
ATOM     25  O   UNL     1      -4.340  11.920  16.838  0.00  0.00    +0.000 OA
BRANCH  23  32
ATOM     26  C   UNL     1      -5.951  14.915  21.475  0.00  0.00    +0.000 C 
ATOM     27  C   UNL     1      -6.162  13.608  20.766  0.00  0.00    +0.000 A 
ATOM     28  C   UNL     1      -7.260  12.811  21.099  0.00  0.00    +0.000 A 
ATOM     29  C   UNL     1      -7.459  11.576  20.478  0.00  0.00    +0.000 A 
ATOM     30  C   UNL     1      -6.554  11.090  19.524  0.00  0.00    +0.000 A 
ATOM     31  C   UNL     1      -6.829   9.755  18.890  0.00  0.00    +0.000 C 
ATOM     32  C   UNL     1      -5.426  11.875  19.216  0.00  0.00    +0.000 A 
ATOM     33  C   UNL     1      -5.236  13.129  19.828  0.00  0.00    +0.000 A 
ENDBRANCH  23  32
ENDBRANCH   1  23
TORSDOF 5
ENDMDL
MODEL 4
REMARK VINA RESULT:      -7.8      0.675      1.161
REMARK  Name = 
REMARK  7 active torsions:
REMARK  status: ('A' for Active; 'I' for Inactive)
REMARK    1  A    between atoms: C_1  and  C_2
REMARK    2  A    between atoms: C_5  and  C_6
REMARK    3  A    between atoms: C_7  and  S_8
REMARK    4  A    between atoms: S_8  and  N_11
REMARK    5  A    between atoms: C_14  and  N_15
REMARK    6  A    between atoms: N_18  and  C_19
REMARK    7  A    between atoms: C_19  and  C_20
REMARK                            x       y       z     vdW  Elec       q    Type
REMARK                         _______ _______ _______ _____ _____    ______ ____
ROOT
ATOM      1  N   UNL     1      -0.390  14.431  21.161  0.00  0.00    +0.000 NA
ATOM      2  C   UNL     1      -0.491  14.040  19.729  0.00  0.00    +0.000 C 
ATOM      3  C   UNL     1      -1.536  12.966  19.485  0.00  0.00    +0.000 C 
ATOM      4  C   UNL     1      -1.429  11.763  20.420  0.00  0.00    +0.000 C 
ATOM      5  C   UNL     1      -1.426  12.235  21.872  0.00  0.00    +0.000 C 
ATOM      6  C   UNL     1      -0.420  13.337  22.178  0.00  0.00    +0.000 C 
ENDROOT
BRANCH   4   7
ATOM      7  N   UNL     1      -0.339  10.821  20.105  0.00  0.00    +0.000 N 
ATOM      8  C   UNL     1       0.498  10.244  21.153  0.00  0.00    +0.000 C 
ATOM      9  C   UNL     1       0.628   8.748  20.936  0.00  0.00    +0.000 C 
ATOM     10  N   UNL     1       1.392   8.566  19.727  0.00  0.00    +0.000 N 
ATOM     11  C   UNL     1       1.027   9.303  18.593  0.00  0.00    +0.000 C 
ATOM     12  O   UNL     1       1.600   9.208  17.512  0.00  0.00    +0.000 OA
ATOM     13  C   UNL     1      -0.156  10.323  18.789  0.00  0.00    +0.000 C 
ATOM     14  O   UNL     1      -0.867  10.634  17.843  0.00  0.00    +0.000 OA
BRANCH  10  15
ATOM     15  C   UNL     1       2.530   7.658  19.744  0.00  0.00    +0.000 C 
BRANCH  15  16
ATOM     16  C   UNL     1       2.110   6.241  19.446  0.00  0.00    +0.000 A 
ATOM     17  C   UNL     1       1.693   5.412  20.500  0.00  0.00    +0.000 A 
ATOM     18  C   UNL     1       1.394   4.073  20.268  0.00  0.00    +0.000 A 
ATOM     19  C   UNL     1       1.496   3.561  18.980  0.00  0.00    +0.000 A 
ATOM     20  F   UNL     1       1.242   2.263  18.765  0.00  0.00    +0.000 F 
ATOM     21  C   UNL     1       1.865   4.373  17.915  0.00  0.00    +0.000 A 
ATOM     22  C   UNL     1       2.174   5.716  18.145  0.00  0.00    +0.000 A 
ENDBRANCH  15  16
ENDBRANCH  10  15
ENDBRANCH   4   7
BRANCH   1  23
ATOM     23  S   UNL     1       0.886  15.562  21.474  0.00  0.00    +0.000 S 
ATOM     24  O   UNL     1       1.641  15.017  22.589  0.00  0.00    +0.000 OA
ATOM     25  O   UNL     1       0.312  16.883  21.546  0.00  0.00    +0.000 OA
BRANCH  23  32
ATOM     26  C   UNL     1       2.350  17.543  16.807  0.00  0.00    +0.000 C 
ATOM     27  C   UNL     1       2.506  16.481  17.856  0.00  0.00    +0.000 A 
ATOM     28  C   UNL     1       3.321  15.375  17.604  0.00  0.00    +0.000 A 
ATOM     29  C   UNL     1       3.456  14.357  18.551  0.00  0.00    +0.000 A 
ATOM     30  C   UNL     1       2.760  14.403  19.768  0.00  0.00    +0.000 A 
ATOM     31  C   UNL     1       2.952  13.277  20.744  0.00  0.00    +0.000 C 
ATOM     32  C   UNL     1       1.908  15.497  20.007  0.00  0.00    +0.000 A 
ATOM     33  C   UNL     1       1.788  16.533  19.060  0.00  0.00    +0.000 A 
ENDBRANCH  23  32
ENDBRANCH   1  23
TORSDOF 5
ENDMDL
MODEL 5
REMARK VINA RESULT:      -7.8      2.960      3.690
REMARK  Name = 
REMARK  7 active torsions:
REMARK  status: ('A' for Active; 'I' for Inactive)
REMARK    1  A    between atoms: C_1  and  C_2
REMARK    2  A    between atoms: C_5  and  C_6
REMARK    3  A    between atoms: C_7  and  S_8
REMARK    4  A    between atoms: S_8  and  N_11
REMARK    5  A    between atoms: C_14  and  N_15
REMARK    6  A    between atoms: N_18  and  C_19
REMARK    7  A    between atoms: C_19  and  C_20
REMARK                            x       y       z     vdW  Elec       q    Type
REMARK                         _______ _______ _______ _____ _____    ______ ____
ROOT
ATOM      1  N   UNL     1       1.301  12.956  19.690  0.00  0.00    +0.000 NA
ATOM      2  C   UNL     1       0.451  12.324  18.646  0.00  0.00    +0.000 C 
ATOM      3  C   UNL     1      -0.602  11.397  19.226  0.00  0.00    +0.000 C 
ATOM      4  C   UNL     1      -0.061  10.389  20.238  0.00  0.00    +0.000 C 
ATOM      5  C   UNL     1       0.719  11.120  21.330  0.00  0.00    +0.000 C 
ATOM      6  C   UNL     1       1.771  12.091  20.813  0.00  0.00    +0.000 C 
ENDROOT
BRANCH   4   7
ATOM      7  N   UNL     1       0.670   9.248  19.656  0.00  0.00    +0.000 N 
ATOM      8  C   UNL     1       0.910   9.148  18.220  0.00  0.00    +0.000 C 
ATOM      9  C   UNL     1       2.362   8.787  17.970  0.00  0.00    +0.000 C 
ATOM     10  N   UNL     1       2.548   7.443  18.458  0.00  0.00    +0.000 N 
ATOM     11  C   UNL     1       2.067   7.128  19.735  0.00  0.00    +0.000 C 
ATOM     12  O   UNL     1       2.190   6.020  20.249  0.00  0.00    +0.000 OA
ATOM     13  C   UNL     1       1.297   8.279  20.482  0.00  0.00    +0.000 C 
ATOM     14  O   UNL     1       1.273   8.316  21.705  0.00  0.00    +0.000 OA
BRANCH  10  15
ATOM     15  C   UNL     1       3.191   6.463  17.594  0.00  0.00    +0.000 C 
BRANCH  15  16
ATOM     16  C   UNL     1       4.661   6.336  17.900  0.00  0.00    +0.000 A 
ATOM     17  C   UNL     1       5.077   5.471  18.925  0.00  0.00    +0.000 A 
ATOM     18  C   UNL     1       6.417   5.408  19.295  0.00  0.00    +0.000 A 
ATOM     19  C   UNL     1       7.349   6.197  18.631  0.00  0.00    +0.000 A 
ATOM     20  F   UNL     1       8.632   6.162  19.012  0.00  0.00    +0.000 F 
ATOM     21  C   UNL     1       6.966   7.028  17.585  0.00  0.00    +0.000 A 
ATOM     22  C   UNL     1       5.621   7.101  17.217  0.00  0.00    +0.000 A 
ENDBRANCH  15  16
ENDBRANCH  10  15
ENDBRANCH   4   7
BRANCH   1  23
ATOM     23  S   UNL     1       2.589  13.916  19.037  0.00  0.00    +0.000 S 
ATOM     24  O   UNL     1       2.971  13.279  17.790  0.00  0.00    +0.000 OA
ATOM     25  O   UNL     1       3.559  14.141  20.079  0.00  0.00    +0.000 OA
BRANCH  23  32
ATOM     26  C   UNL     1      -1.559  17.173  19.250  0.00  0.00    +0.000 C 
ATOM     27  C   UNL     1      -0.149  16.918  18.802  0.00  0.00    +0.000 A 
ATOM     28  C   UNL     1       0.487  17.838  17.965  0.00  0.00    +0.000 A 
ATOM     29  C   UNL     1       1.787  17.607  17.508  0.00  0.00    +0.000 A 
ATOM     30  C   UNL     1       2.479  16.437  17.853  0.00  0.00    +0.000 A 
ATOM     31  C   UNL     1       3.876  16.252  17.330  0.00  0.00    +0.000 C 
ATOM     32  C   UNL     1       1.825  15.491  18.664  0.00  0.00    +0.000 A 
ATOM     33  C   UNL     1       0.522  15.734  19.141  0.00  0.00    +0.000 A 
ENDBRANCH  23  32
ENDBRANCH   1  23
TORSDOF 5
ENDMDL
MODEL 6
REMARK VINA RESULT:      -7.8      2.606      4.687
REMARK  Name = 
REMARK  7 active torsions:
REMARK  status: ('A' for Active; 'I' for Inactive)
REMARK    1  A    between atoms: C_1  and  C_2
REMARK    2  A    between atoms: C_5  and  C_6
REMARK    3  A    between atoms: C_7  and  S_8
REMARK    4  A    between atoms: S_8  and  N_11
REMARK    5  A    between atoms: C_14  and  N_15
REMARK    6  A    between atoms: N_18  and  C_19
REMARK    7  A    between atoms: C_19  and  C_20
REMARK                            x       y       z     vdW  Elec       q    Type
REMARK                         _______ _______ _______ _____ _____    ______ ____
ROOT
ATOM      1  N   UNL     1      -0.962  12.651  21.264  0.00  0.00    +0.000 NA
ATOM      2  C   UNL     1       0.503  12.861  21.114  0.00  0.00    +0.000 C 
ATOM      3  C   UNL     1       0.961  12.793  19.669  0.00  0.00    +0.000 C 
ATOM      4  C   UNL     1       0.459  11.568  18.908  0.00  0.00    +0.000 C 
ATOM      5  C   UNL     1      -1.061  11.472  19.028  0.00  0.00    +0.000 C 
ATOM      6  C   UNL     1      -1.590  11.566  20.454  0.00  0.00    +0.000 C 
ENDROOT
BRANCH   4   7
ATOM      7  N   UNL     1       1.155  10.307  19.223  0.00  0.00    +0.000 N 
ATOM      8  C   UNL     1       1.092   9.712  20.554  0.00  0.00    +0.000 C 
ATOM      9  C   UNL     1       0.787   8.230  20.437  0.00  0.00    +0.000 C 
ATOM     10  N   UNL     1       1.938   7.614  19.824  0.00  0.00    +0.000 N 
ATOM     11  C   UNL     1       2.474   8.206  18.673  0.00  0.00    +0.000 C 
ATOM     12  O   UNL     1       3.438   7.751  18.066  0.00  0.00    +0.000 OA
ATOM     13  C   UNL     1       1.790   9.545  18.208  0.00  0.00    +0.000 C 
ATOM     14  O   UNL     1       1.810   9.873  17.029  0.00  0.00    +0.000 OA
BRANCH  10  15
ATOM     15  C   UNL     1       2.517   6.431  20.445  0.00  0.00    +0.000 C 
BRANCH  15  16
ATOM     16  C   UNL     1       1.915   5.166  19.890  0.00  0.00    +0.000 A 
ATOM     17  C   UNL     1       1.264   4.276  20.760  0.00  0.00    +0.000 A 
ATOM     18  C   UNL     1       0.786   3.055  20.294  0.00  0.00    +0.000 A 
ATOM     19  C   UNL     1       0.942   2.726  18.953  0.00  0.00    +0.000 A 
ATOM     20  F   UNL     1       0.514   1.536  18.512  0.00  0.00    +0.000 F 
ATOM     21  C   UNL     1       1.545   3.609  18.065  0.00  0.00    +0.000 A 
ATOM     22  C   UNL     1       2.033   4.832  18.531  0.00  0.00    +0.000 A 
ENDBRANCH  15  16
ENDBRANCH  10  15
ENDBRANCH   4   7
BRANCH   1  23
ATOM     23  S   UNL     1      -1.481  12.598  22.918  0.00  0.00    +0.000 S 
ATOM     24  O   UNL     1      -0.539  13.417  23.660  0.00  0.00    +0.000 OA
ATOM     25  O   UNL     1      -1.705  11.220  23.278  0.00  0.00    +0.000 OA
BRANCH  23  32
ATOM     26  C   UNL     1      -6.626  12.652  24.095  0.00  0.00    +0.000 C 
ATOM     27  C   UNL     1      -5.441  13.344  23.486  0.00  0.00    +0.000 A 
ATOM     28  C   UNL     1      -5.624  14.537  22.782  0.00  0.00    +0.000 A 
ATOM     29  C   UNL     1      -4.543  15.182  22.178  0.00  0.00    +0.000 A 
ATOM     30  C   UNL     1      -3.250  14.642  22.238  0.00  0.00    +0.000 A 
ATOM     31  C   UNL     1      -2.130  15.388  21.569  0.00  0.00    +0.000 C 
ATOM     32  C   UNL     1      -3.071  13.419  22.912  0.00  0.00    +0.000 A 
ATOM     33  C   UNL     1      -4.159  12.779  23.538  0.00  0.00    +0.000 A 
ENDBRANCH  23  32
ENDBRANCH   1  23
TORSDOF 5
ENDMDL
MODEL 7
REMARK VINA RESULT:      -7.7      1.510      2.263
REMARK  Name = 
REMARK  7 active torsions:
REMARK  status: ('A' for Active; 'I' for Inactive)
REMARK    1  A    between atoms: C_1  and  C_2
REMARK    2  A    between atoms: C_5  and  C_6
REMARK    3  A    between atoms: C_7  and  S_8
REMARK    4  A    between atoms: S_8  and  N_11
REMARK    5  A    between atoms: C_14  and  N_15
REMARK    6  A    between atoms: N_18  and  C_19
REMARK    7  A    between atoms: C_19  and  C_20
REMARK                            x       y       z     vdW  Elec       q    Type
REMARK                         _______ _______ _______ _____ _____    ______ ____
ROOT
ATOM      1  N   UNL     1      -0.412  13.787  20.552  0.00  0.00    +0.000 NA
ATOM      2  C   UNL     1      -0.725  13.142  19.249  0.00  0.00    +0.000 C 
ATOM      3  C   UNL     1      -1.592  11.905  19.399  0.00  0.00    +0.000 C 
ATOM      4  C   UNL     1      -1.093  10.911  20.446  0.00  0.00    +0.000 C 
ATOM      5  C   UNL     1      -0.886  11.626  21.780  0.00  0.00    +0.000 C 
ATOM      6  C   UNL     1      -0.049  12.896  21.694  0.00  0.00    +0.000 C 
ENDROOT
BRANCH   4   7
ATOM      7  N   UNL     1       0.061  10.092  20.031  0.00  0.00    +0.000 N 
ATOM      8  C   UNL     1       0.948   9.472  21.011  0.00  0.00    +0.000 C 
ATOM      9  C   UNL     1       1.187   8.022  20.637  0.00  0.00    +0.000 C 
ATOM     10  N   UNL     1       1.952   8.027  19.414  0.00  0.00    +0.000 N 
ATOM     11  C   UNL     1       1.523   8.851  18.365  0.00  0.00    +0.000 C 
ATOM     12  O   UNL     1       2.092   8.914  17.280  0.00  0.00    +0.000 OA
ATOM     13  C   UNL     1       0.270   9.752  18.669  0.00  0.00    +0.000 C 
ATOM     14  O   UNL     1      -0.471  10.108  17.763  0.00  0.00    +0.000 OA
BRANCH  10  15
ATOM     15  C   UNL     1       3.155   7.209  19.333  0.00  0.00    +0.000 C 
BRANCH  15  16
ATOM     16  C   UNL     1       2.823   5.764  19.067  0.00  0.00    +0.000 A 
ATOM     17  C   UNL     1       3.303   4.776  19.943  0.00  0.00    +0.000 A 
ATOM     18  C   UNL     1       3.096   3.428  19.669  0.00  0.00    +0.000 A 
ATOM     19  C   UNL     1       2.395   3.062  18.527  0.00  0.00    +0.000 A 
ATOM     20  F   UNL     1       2.227   1.763  18.245  0.00  0.00    +0.000 F 
ATOM     21  C   UNL     1       1.874   4.022  17.668  0.00  0.00    +0.000 A 
ATOM     22  C   UNL     1       2.087   5.376  17.935  0.00  0.00    +0.000 A 
ENDBRANCH  15  16
ENDBRANCH  10  15
ENDBRANCH   4   7
BRANCH   1  23
ATOM     23  S   UNL     1       0.681  15.125  20.409  0.00  0.00    +0.000 S 
ATOM     24  O   UNL     1       1.795  14.649  19.608  0.00  0.00    +0.000 OA
ATOM     25  O   UNL     1       0.900  15.674  21.725  0.00  0.00    +0.000 OA
BRANCH  23  32
ATOM     26  C   UNL     1       0.398  18.538  16.394  0.00  0.00    +0.000 C 
ATOM     27  C   UNL     1      -0.255  17.903  17.587  0.00  0.00    +0.000 A 
ATOM     28  C   UNL     1      -1.488  18.382  18.037  0.00  0.00    +0.000 A 
ATOM     29  C   UNL     1      -2.100  17.830  19.165  0.00  0.00    +0.000 A 
ATOM     30  C   UNL     1      -1.486  16.799  19.891  0.00  0.00    +0.000 A 
ATOM     31  C   UNL     1      -2.199  16.247  21.093  0.00  0.00    +0.000 C 
ATOM     32  C   UNL     1      -0.225  16.342  19.462  0.00  0.00    +0.000 A 
ATOM     33  C   UNL     1       0.382  16.886  18.313  0.00  0.00    +0.000 A 
ENDBRANCH  23  32
ENDBRANCH   1  23
TORSDOF 5
ENDMDL
MODEL 8
REMARK VINA RESULT:      -7.6      2.616      4.570
REMARK  Name = 
REMARK  7 active torsions:
REMARK  status: ('A' for Active; 'I' for Inactive)
REMARK    1  A    between atoms: C_1  and  C_2
REMARK    2  A    between atoms: C_5  and  C_6
REMARK    3  A    between atoms: C_7  and  S_8
REMARK    4  A    between atoms: S_8  and  N_11
REMARK    5  A    between atoms: C_14  and  N_15
REMARK    6  A    between atoms: N_18  and  C_19
REMARK    7  A    between atoms: C_19  and  C_20
REMARK                            x       y       z     vdW  Elec       q    Type
REMARK                         _______ _______ _______ _____ _____    ______ ____
ROOT
ATOM      1  N   UNL     1      -0.618  12.528  21.095  0.00  0.00    +0.000 NA
ATOM      2  C   UNL     1       0.850  12.602  20.863  0.00  0.00    +0.000 C 
ATOM      3  C   UNL     1       1.232  12.316  19.422  0.00  0.00    +0.000 C 
ATOM      4  C   UNL     1       0.606  11.048  18.847  0.00  0.00    +0.000 C 
ATOM      5  C   UNL     1      -0.909  11.086  19.037  0.00  0.00    +0.000 C 
ATOM      6  C   UNL     1      -1.360  11.401  20.458  0.00  0.00    +0.000 C 
ENDROOT
BRANCH   4   7
ATOM      7  N   UNL     1       1.224   9.786  19.296  0.00  0.00    +0.000 N 
ATOM      8  C   UNL     1       1.083   9.314  20.670  0.00  0.00    +0.000 C 
ATOM      9  C   UNL     1       0.705   7.845  20.668  0.00  0.00    +0.000 C 
ATOM     10  N   UNL     1       1.842   7.121  20.156  0.00  0.00    +0.000 N 
ATOM     11  C   UNL     1       2.449   7.582  18.981  0.00  0.00    +0.000 C 
ATOM     12  O   UNL     1       3.409   7.029  18.454  0.00  0.00    +0.000 OA
ATOM     13  C   UNL     1       1.853   8.908  18.376  0.00  0.00    +0.000 C 
ATOM     14  O   UNL     1       1.931   9.130  17.175  0.00  0.00    +0.000 OA
BRANCH  10  15
ATOM     15  C   UNL     1       2.336   5.970  20.899  0.00  0.00    +0.000 C 
BRANCH  15  16
ATOM     16  C   UNL     1       2.342   4.726  20.049  0.00  0.00    +0.000 A 
ATOM     17  C   UNL     1       3.569   4.142  19.694  0.00  0.00    +0.000 A 
ATOM     18  C   UNL     1       3.608   3.051  18.830  0.00  0.00    +0.000 A 
ATOM     19  C   UNL     1       2.421   2.531  18.331  0.00  0.00    +0.000 A 
ATOM     20  F   UNL     1       2.462   1.504  17.471  0.00  0.00    +0.000 F 
ATOM     21  C   UNL     1       1.193   3.065  18.702  0.00  0.00    +0.000 A 
ATOM     22  C   UNL     1       1.150   4.165  19.562  0.00  0.00    +0.000 A 
ENDBRANCH  15  16
ENDBRANCH  10  15
ENDBRANCH   4   7
BRANCH   1  23
ATOM     23  S   UNL     1      -1.058  12.726  22.761  0.00  0.00    +0.000 S 
ATOM     24  O   UNL     1      -0.160  13.734  23.296  0.00  0.00    +0.000 OA
ATOM     25  O   UNL     1      -1.146  11.419  23.364  0.00  0.00    +0.000 OA
BRANCH  23  32
ATOM     26  C   UNL     1      -6.150  12.533  24.134  0.00  0.00    +0.000 C 
ATOM     27  C   UNL     1      -5.049  13.224  23.383  0.00  0.00    +0.000 A 
ATOM     28  C   UNL     1      -5.355  14.284  22.526  0.00  0.00    +0.000 A 
ATOM     29  C   UNL     1      -4.352  14.920  21.791  0.00  0.00    +0.000 A 
ATOM     30  C   UNL     1      -3.017  14.500  21.872  0.00  0.00    +0.000 A 
ATOM     31  C   UNL     1      -1.986  15.229  21.058  0.00  0.00    +0.000 C 
ATOM     32  C   UNL     1      -2.712  13.406  22.705  0.00  0.00    +0.000 A 
ATOM     33  C   UNL     1      -3.721  12.778  23.461  0.00  0.00    +0.000 A 
ENDBRANCH  23  32
ENDBRANCH   1  23
TORSDOF 5
ENDMDL
MODEL 9
REMARK VINA RESULT:      -7.6      4.971      8.545
REMARK  Name = 
REMARK  7 active torsions:
REMARK  status: ('A' for Active; 'I' for Inactive)
REMARK    1  A    between atoms: C_1  and  C_2
REMARK    2  A    between atoms: C_5  and  C_6
REMARK    3  A    between atoms: C_7  and  S_8
REMARK    4  A    between atoms: S_8  and  N_11
REMARK    5  A    between atoms: C_14  and  N_15
REMARK    6  A    between atoms: N_18  and  C_19
REMARK    7  A    between atoms: C_19  and  C_20
REMARK                            x       y       z     vdW  Elec       q    Type
REMARK                         _______ _______ _______ _____ _____    ______ ____
ROOT
ATOM      1  N   UNL     1      -1.402  10.872  17.881  0.00  0.00    +0.000 NA
ATOM      2  C   UNL     1      -2.093   9.810  18.660  0.00  0.00    +0.000 C 
ATOM      3  C   UNL     1      -3.411   9.386  18.037  0.00  0.00    +0.000 C 
ATOM      4  C   UNL     1      -4.334  10.546  17.672  0.00  0.00    +0.000 C 
ATOM      5  C   UNL     1      -3.585  11.547  16.795  0.00  0.00    +0.000 C 
ATOM      6  C   UNL     1      -2.237  11.990  17.349  0.00  0.00    +0.000 C 
ENDROOT
BRANCH   4   7
ATOM      7  N   UNL     1      -5.035  11.170  18.810  0.00  0.00    +0.000 N 
ATOM      8  C   UNL     1      -4.565  12.419  19.404  0.00  0.00    +0.000 C 
ATOM      9  C   UNL     1      -5.735  13.368  19.587  0.00  0.00    +0.000 C 
ATOM     10  N   UNL     1      -6.588  12.790  20.596  0.00  0.00    +0.000 N 
ATOM     11  C   UNL     1      -6.931  11.436  20.480  0.00  0.00    +0.000 C 
ATOM     12  O   UNL     1      -7.664  10.855  21.274  0.00  0.00    +0.000 OA
ATOM     13  C   UNL     1      -6.275  10.663  19.277  0.00  0.00    +0.000 C 
ATOM     14  O   UNL     1      -6.836   9.693  18.785  0.00  0.00    +0.000 OA
BRANCH  10  15
ATOM     15  C   UNL     1      -7.025  13.621  21.708  0.00  0.00    +0.000 C 
BRANCH  15  16
ATOM     16  C   UNL     1      -5.918  13.828  22.710  0.00  0.00    +0.000 A 
ATOM     17  C   UNL     1      -5.247  15.061  22.747  0.00  0.00    +0.000 A 
ATOM     18  C   UNL     1      -4.157  15.247  23.593  0.00  0.00    +0.000 A 
ATOM     19  C   UNL     1      -3.746  14.207  24.417  0.00  0.00    +0.000 A 
ATOM     20  F   UNL     1      -2.675  14.375  25.205  0.00  0.00    +0.000 F 
ATOM     21  C   UNL     1      -4.421  12.993  24.429  0.00  0.00    +0.000 A 
ATOM     22  C   UNL     1      -5.510  12.800  23.575  0.00  0.00    +0.000 A 
ENDBRANCH  15  16
ENDBRANCH  10  15
ENDBRANCH   4   7
BRANCH   1  23
ATOM     23  S   UNL     1       0.040  11.456  18.647  0.00  0.00    +0.000 S 
ATOM     24  O   UNL     1       0.248  12.799  18.138  0.00  0.00    +0.000 OA
ATOM     25  O   UNL     1       1.063  10.448  18.514  0.00  0.00    +0.000 OA
BRANCH  23  32
ATOM     26  C   UNL     1      -0.143   9.323  23.471  0.00  0.00    +0.000 C 
ATOM     27  C   UNL     1      -0.442  10.486  22.569  0.00  0.00    +0.000 A 
ATOM     28  C   UNL     1      -1.192  11.560  23.054  0.00  0.00    +0.000 A 
ATOM     29  C   UNL     1      -1.511  12.638  22.224  0.00  0.00    +0.000 A 
ATOM     30  C   UNL     1      -1.112  12.662  20.880  0.00  0.00    +0.000 A 
ATOM     31  C   UNL     1      -1.486  13.853  20.044  0.00  0.00    +0.000 C 
ATOM     32  C   UNL     1      -0.390  11.562  20.381  0.00  0.00    +0.000 A 
ATOM     33  C   UNL     1      -0.051  10.484  21.223  0.00  0.00    +0.000 A 
ENDBRANCH  23  32
ENDBRANCH   1  23
TORSDOF 5
ENDMDL
