MODEL 1
REMARK VINA RESULT:      -8.3      0.000      0.000
REMARK  Name = 
REMARK  5 active torsions:
REMARK  status: ('A' for Active; 'I' for Inactive)
REMARK    1  A    between atoms: C_2  and  C_5
REMARK    2  A    between atoms: N_3  and  O_4
REMARK    3  A    between atoms: C_8  and  C_9
REMARK    4  A    between atoms: C_10  and  C_11
REMARK    5  A    between atoms: C_15  and  C_16
REMARK                            x       y       z     vdW  Elec       q    Type
REMARK                         _______ _______ _______ _____ _____    ______ ____
ROOT
ATOM      1  C   UNL     1       8.733   9.061  18.396  0.00  0.00    +0.000 C 
ATOM      2  C   UNL     1       7.779   8.428  17.695  0.00  0.00    +0.000 C 
ENDROOT
BRANCH   1   6
ATOM      3  C   UNL     1       9.687  13.187  17.769  0.00  0.00    +0.000 A 
ATOM      4  C   UNL     1       8.396  12.707  17.529  0.00  0.00    +0.000 A 
ATOM      5  C   UNL     1       8.104  11.358  17.751  0.00  0.00    +0.000 A 
ATOM      6  C   UNL     1       9.092  10.476  18.218  0.00  0.00    +0.000 A 
ATOM      7  C   UNL     1      10.367  10.979  18.501  0.00  0.00    +0.000 A 
ATOM      8  C   UNL     1      10.665  12.324  18.274  0.00  0.00    +0.000 A 
BRANCH   3  10
ATOM      9  O   UNL     1       9.549  15.509  18.235  0.00  0.00    +0.000 OA
ATOM     10  C   UNL     1       9.991  14.618  17.519  0.00  0.00    +0.000 C 
ATOM     11  N   UNL     1      10.780  14.871  16.417  0.00  0.00    +0.000 N 
ATOM     12  H   UNL     1      10.850  14.224  15.638  0.00  0.00    +0.000 HD
BRANCH  11  13
ATOM     13  O   UNL     1      11.002  16.232  16.120  0.00  0.00    +0.000 OA
ATOM     14  H   UNL     1      10.088  16.566  15.973  0.00  0.00    +0.000 HD
ENDBRANCH  11  13
ENDBRANCH   3  10
ENDBRANCH   1   6
BRANCH   2  15
ATOM     15  C   UNL     1       7.325   7.056  17.973  0.00  0.00    +0.000 A 
ATOM     16  C   UNL     1       8.154   6.094  18.548  0.00  0.00    +0.000 A 
ATOM     17  C   UNL     1       7.614   4.862  18.868  0.00  0.00    +0.000 A 
ATOM     18  N   UNL     1       6.324   4.531  18.658  0.00  0.00    +0.000 NA
ATOM     19  C   UNL     1       5.514   5.459  18.094  0.00  0.00    +0.000 A 
ATOM     20  C   UNL     1       5.984   6.730  17.754  0.00  0.00    +0.000 A 
BRANCH  19  21
ATOM     21  C   UNL     1       4.115   5.057  17.886  0.00  0.00    +0.000 A 
ATOM     22  C   UNL     1       3.032   5.829  18.332  0.00  0.00    +0.000 A 
ATOM     23  C   UNL     1       1.723   5.392  18.137  0.00  0.00    +0.000 A 
ATOM     24  C   UNL     1       1.522   4.188  17.491  0.00  0.00    +0.000 A 
ATOM     25  N   UNL     1       2.523   3.413  17.030  0.00  0.00    +0.000 NA
ATOM     26  C   UNL     1       3.788   3.869  17.231  0.00  0.00    +0.000 A 
ENDBRANCH  19  21
ENDBRANCH   2  15
TORSDOF 5
ENDMDL
MODEL 2
REMARK VINA RESULT:      -8.3      0.274      1.015
REMARK  Name = 
REMARK  5 active torsions:
REMARK  status: ('A' for Active; 'I' for Inactive)
REMARK    1  A    between atoms: C_2  and  C_5
REMARK    2  A    between atoms: N_3  and  O_4
REMARK    3  A    between atoms: C_8  and  C_9
REMARK    4  A    between atoms: C_10  and  C_11
REMARK    5  A    between atoms: C_15  and  C_16
REMARK                            x       y       z     vdW  Elec       q    Type
REMARK                         _______ _______ _______ _____ _____    ______ ____
ROOT
ATOM      1  C   UNL     1       8.660   9.320  18.358  0.00  0.00    +0.000 C 
ATOM      2  C   UNL     1       7.795   8.587  17.638  0.00  0.00    +0.000 C 
ENDROOT
BRANCH   1   6
ATOM      3  C   UNL     1       9.686  13.419  17.665  0.00  0.00    +0.000 A 
ATOM      4  C   UNL     1      10.678  12.465  17.913  0.00  0.00    +0.000 A 
ATOM      5  C   UNL     1      10.320  11.130  18.125  0.00  0.00    +0.000 A 
ATOM      6  C   UNL     1       8.975  10.731  18.089  0.00  0.00    +0.000 A 
ATOM      7  C   UNL     1       7.995  11.686  17.791  0.00  0.00    +0.000 A 
ATOM      8  C   UNL     1       8.347  13.022  17.585  0.00  0.00    +0.000 A 
BRANCH   3  10
ATOM      9  O   UNL     1       9.522  15.753  18.050  0.00  0.00    +0.000 OA
ATOM     10  C   UNL     1      10.073  14.836  17.452  0.00  0.00    +0.000 C 
ATOM     11  N   UNL     1      11.069  15.044  16.523  0.00  0.00    +0.000 N 
ATOM     12  H   UNL     1      11.274  14.377  15.785  0.00  0.00    +0.000 HD
BRANCH  11  13
ATOM     13  O   UNL     1      11.381  16.393  16.250  0.00  0.00    +0.000 OA
ATOM     14  H   UNL     1      10.498  16.824  16.283  0.00  0.00    +0.000 HD
ENDBRANCH  11  13
ENDBRANCH   3  10
ENDBRANCH   1   6
BRANCH   2  15
ATOM     15  C   UNL     1       7.376   7.223  17.995  0.00  0.00    +0.000 A 
ATOM     16  C   UNL     1       8.210   6.335  18.671  0.00  0.00    +0.000 A 
ATOM     17  C   UNL     1       7.699   5.109  19.055  0.00  0.00    +0.000 A 
ATOM     18  N   UNL     1       6.431   4.717  18.817  0.00  0.00    +0.000 NA
ATOM     19  C   UNL     1       5.616   5.574  18.156  0.00  0.00    +0.000 A 
ATOM     20  C   UNL     1       6.057   6.833  17.745  0.00  0.00    +0.000 A 
BRANCH  19  21
ATOM     21  C   UNL     1       4.241   5.107  17.920  0.00  0.00    +0.000 A 
ATOM     22  C   UNL     1       3.115   5.873  18.253  0.00  0.00    +0.000 A 
ATOM     23  C   UNL     1       1.831   5.377  18.037  0.00  0.00    +0.000 A 
ATOM     24  C   UNL     1       1.698   4.119  17.483  0.00  0.00    +0.000 A 
ATOM     25  N   UNL     1       2.744   3.345  17.132  0.00  0.00    +0.000 NA
ATOM     26  C   UNL     1       3.982   3.860  17.350  0.00  0.00    +0.000 A 
ENDBRANCH  19  21
ENDBRANCH   2  15
TORSDOF 5
ENDMDL
MODEL 3
REMARK VINA RESULT:      -8.1      4.794      9.899
REMARK  Name = 
REMARK  5 active torsions:
REMARK  status: ('A' for Active; 'I' for Inactive)
REMARK    1  A    between atoms: C_2  and  C_5
REMARK    2  A    between atoms: N_3  and  O_4
REMARK    3  A    between atoms: C_8  and  C_9
REMARK    4  A    between atoms: C_10  and  C_11
REMARK    5  A    between atoms: C_15  and  C_16
REMARK                            x       y       z     vdW  Elec       q    Type
REMARK                         _______ _______ _______ _____ _____    ______ ____
ROOT
ATOM      1  C   UNL     1       8.311   8.895  17.900  0.00  0.00    +0.000 C 
ATOM      2  C   UNL     1       8.945   9.433  18.955  0.00  0.00    +0.000 C 
ENDROOT
BRANCH   1   6
ATOM      3  C   UNL     1       6.069   5.248  17.974  0.00  0.00    +0.000 A 
ATOM      4  C   UNL     1       5.687   6.306  17.143  0.00  0.00    +0.000 A 
ATOM      5  C   UNL     1       6.442   7.483  17.127  0.00  0.00    +0.000 A 
ATOM      6  C   UNL     1       7.582   7.618  17.934  0.00  0.00    +0.000 A 
ATOM      7  C   UNL     1       7.982   6.534  18.725  0.00  0.00    +0.000 A 
ATOM      8  C   UNL     1       7.228   5.359  18.749  0.00  0.00    +0.000 A 
BRANCH   3  10
ATOM      9  O   UNL     1       4.531   3.692  17.058  0.00  0.00    +0.000 OA
ATOM     10  C   UNL     1       5.256   4.007  17.995  0.00  0.00    +0.000 C 
ATOM     11  N   UNL     1       5.357   3.253  19.145  0.00  0.00    +0.000 N 
ATOM     12  H   UNL     1       5.644   3.652  20.033  0.00  0.00    +0.000 HD
BRANCH  11  13
ATOM     13  O   UNL     1       4.521   2.118  19.209  0.00  0.00    +0.000 OA
ATOM     14  H   UNL     1       4.623   1.836  20.146  0.00  0.00    +0.000 HD
ENDBRANCH  11  13
ENDBRANCH   3  10
ENDBRANCH   1   6
BRANCH   2  15
ATOM     15  C   UNL     1       9.549  10.774  18.956  0.00  0.00    +0.000 A 
ATOM     16  C   UNL     1      10.172  11.317  17.834  0.00  0.00    +0.000 A 
ATOM     17  C   UNL     1      10.622  12.623  17.895  0.00  0.00    +0.000 A 
ATOM     18  N   UNL     1      10.494  13.412  18.981  0.00  0.00    +0.000 NA
ATOM     19  C   UNL     1       9.894  12.888  20.077  0.00  0.00    +0.000 A 
ATOM     20  C   UNL     1       9.404  11.580  20.088  0.00  0.00    +0.000 A 
BRANCH  19  21
ATOM     21  C   UNL     1       9.772  13.783  21.237  0.00  0.00    +0.000 A 
ATOM     22  C   UNL     1       8.924  13.507  22.320  0.00  0.00    +0.000 A 
ATOM     23  C   UNL     1       8.821  14.400  23.384  0.00  0.00    +0.000 A 
ATOM     24  C   UNL     1       9.576  15.556  23.348  0.00  0.00    +0.000 A 
ATOM     25  N   UNL     1      10.416  15.866  22.341  0.00  0.00    +0.000 NA
ATOM     26  C   UNL     1      10.499  14.972  21.321  0.00  0.00    +0.000 A 
ENDBRANCH  19  21
ENDBRANCH   2  15
TORSDOF 5
ENDMDL
MODEL 4
REMARK VINA RESULT:      -8.1      6.535      8.599
REMARK  Name = 
REMARK  5 active torsions:
REMARK  status: ('A' for Active; 'I' for Inactive)
REMARK    1  A    between atoms: C_2  and  C_5
REMARK    2  A    between atoms: N_3  and  O_4
REMARK    3  A    between atoms: C_8  and  C_9
REMARK    4  A    between atoms: C_10  and  C_11
REMARK    5  A    between atoms: C_15  and  C_16
REMARK                            x       y       z     vdW  Elec       q    Type
REMARK                         _______ _______ _______ _____ _____    ______ ____
ROOT
ATOM      1  C   UNL     1       1.824   7.533  20.467  0.00  0.00    +0.000 C 
ATOM      2  C   UNL     1       1.584   6.241  20.743  0.00  0.00    +0.000 C 
ENDROOT
BRANCH   1   6
ATOM      3  C   UNL     1      -0.492  10.717  22.149  0.00  0.00    +0.000 A 
ATOM      4  C   UNL     1       0.132   9.774  22.972  0.00  0.00    +0.000 A 
ATOM      5  C   UNL     1       0.893   8.749  22.401  0.00  0.00    +0.000 A 
ATOM      6  C   UNL     1       1.043   8.655  21.008  0.00  0.00    +0.000 A 
ATOM      7  C   UNL     1       0.454   9.633  20.198  0.00  0.00    +0.000 A 
ATOM      8  C   UNL     1      -0.312  10.655  20.763  0.00  0.00    +0.000 A 
BRANCH   3  10
ATOM      9  O   UNL     1      -0.901  12.947  22.845  0.00  0.00    +0.000 OA
ATOM     10  C   UNL     1      -1.308  11.794  22.762  0.00  0.00    +0.000 C 
ATOM     11  N   UNL     1      -2.536  11.401  23.250  0.00  0.00    +0.000 N 
ATOM     12  H   UNL     1      -2.735  10.442  23.515  0.00  0.00    +0.000 HD
BRANCH  11  13
ATOM     13  O   UNL     1      -3.281  12.400  23.913  0.00  0.00    +0.000 OA
ATOM     14  H   UNL     1      -4.195  12.224  23.597  0.00  0.00    +0.000 HD
ENDBRANCH  11  13
ENDBRANCH   3  10
ENDBRANCH   1   6
BRANCH   2  15
ATOM     15  C   UNL     1       2.453   5.133  20.316  0.00  0.00    +0.000 A 
ATOM     16  C   UNL     1       2.336   3.845  20.837  0.00  0.00    +0.000 A 
ATOM     17  C   UNL     1       3.126   2.843  20.306  0.00  0.00    +0.000 A 
ATOM     18  N   UNL     1       4.009   3.034  19.305  0.00  0.00    +0.000 NA
ATOM     19  C   UNL     1       4.131   4.284  18.798  0.00  0.00    +0.000 A 
ATOM     20  C   UNL     1       3.360   5.346  19.275  0.00  0.00    +0.000 A 
BRANCH  19  21
ATOM     21  C   UNL     1       5.103   4.447  17.706  0.00  0.00    +0.000 A 
ATOM     22  C   UNL     1       4.729   4.446  16.355  0.00  0.00    +0.000 A 
ATOM     23  C   UNL     1       5.690   4.575  15.354  0.00  0.00    +0.000 A 
ATOM     24  C   UNL     1       7.013   4.709  15.726  0.00  0.00    +0.000 A 
ATOM     25  N   UNL     1       7.428   4.729  17.008  0.00  0.00    +0.000 NA
ATOM     26  C   UNL     1       6.466   4.607  17.961  0.00  0.00    +0.000 A 
ENDBRANCH  19  21
ENDBRANCH   2  15
TORSDOF 5
ENDMDL
MODEL 5
REMARK VINA RESULT:      -8.1      6.198      8.807
REMARK  Name = 
REMARK  5 active torsions:
REMARK  status: ('A' for Active; 'I' for Inactive)
REMARK    1  A    between atoms: C_2  and  C_5
REMARK    2  A    between atoms: N_3  and  O_4
REMARK    3  A    between atoms: C_8  and  C_9
REMARK    4  A    between atoms: C_10  and  C_11
REMARK    5  A    between atoms: C_15  and  C_16
REMARK                            x       y       z     vdW  Elec       q    Type
REMARK                         _______ _______ _______ _____ _____    ______ ____
ROOT
ATOM      1  C   UNL     1       1.484   7.941  21.208  0.00  0.00    +0.000 C 
ATOM      2  C   UNL     1       1.849   7.562  19.972  0.00  0.00    +0.000 C 
ENDROOT
BRANCH   1   6
ATOM      3  C   UNL     1      -1.104  11.219  22.151  0.00  0.00    +0.000 A 
ATOM      4  C   UNL     1      -0.757  10.278  23.125  0.00  0.00    +0.000 A 
ATOM      5  C   UNL     1       0.099   9.222  22.797  0.00  0.00    +0.000 A 
ATOM      6  C   UNL     1       0.620   9.094  21.500  0.00  0.00    +0.000 A 
ATOM      7  C   UNL     1       0.304  10.070  20.546  0.00  0.00    +0.000 A 
ATOM      8  C   UNL     1      -0.556  11.122  20.868  0.00  0.00    +0.000 A 
BRANCH   3  10
ATOM      9  O   UNL     1      -1.853  13.468  22.083  0.00  0.00    +0.000 OA
ATOM     10  C   UNL     1      -2.023  12.330  22.503  0.00  0.00    +0.000 C 
ATOM     11  N   UNL     1      -3.058  11.996  23.351  0.00  0.00    +0.000 N 
ATOM     12  H   UNL     1      -3.013  11.196  23.974  0.00  0.00    +0.000 HD
BRANCH  11  13
ATOM     13  O   UNL     1      -3.883  13.063  23.762  0.00  0.00    +0.000 OA
ATOM     14  H   UNL     1      -3.763  13.714  23.034  0.00  0.00    +0.000 HD
ENDBRANCH  11  13
ENDBRANCH   3  10
ENDBRANCH   1   6
BRANCH   2  15
ATOM     15  C   UNL     1       2.594   6.329  19.676  0.00  0.00    +0.000 A 
ATOM     16  C   UNL     1       2.364   5.133  20.353  0.00  0.00    +0.000 A 
ATOM     17  C   UNL     1       3.037   3.998  19.940  0.00  0.00    +0.000 A 
ATOM     18  N   UNL     1       3.909   3.976  18.911  0.00  0.00    +0.000 NA
ATOM     19  C   UNL     1       4.141   5.136  18.252  0.00  0.00    +0.000 A 
ATOM     20  C   UNL     1       3.491   6.321  18.604  0.00  0.00    +0.000 A 
BRANCH  19  21
ATOM     21  C   UNL     1       5.096   5.066  17.136  0.00  0.00    +0.000 A 
ATOM     22  C   UNL     1       4.973   4.136  16.093  0.00  0.00    +0.000 A 
ATOM     23  C   UNL     1       5.919   4.089  15.071  0.00  0.00    +0.000 A 
ATOM     24  C   UNL     1       6.973   4.981  15.109  0.00  0.00    +0.000 A 
ATOM     25  N   UNL     1       7.134   5.903  16.079  0.00  0.00    +0.000 NA
ATOM     26  C   UNL     1       6.191   5.927  17.058  0.00  0.00    +0.000 A 
ENDBRANCH  19  21
ENDBRANCH   2  15
TORSDOF 5
ENDMDL
MODEL 6
REMARK VINA RESULT:      -8.0      6.555      8.762
REMARK  Name = 
REMARK  5 active torsions:
REMARK  status: ('A' for Active; 'I' for Inactive)
REMARK    1  A    between atoms: C_2  and  C_5
REMARK    2  A    between atoms: N_3  and  O_4
REMARK    3  A    between atoms: C_8  and  C_9
REMARK    4  A    between atoms: C_10  and  C_11
REMARK    5  A    between atoms: C_15  and  C_16
REMARK                            x       y       z     vdW  Elec       q    Type
REMARK                         _______ _______ _______ _____ _____    ______ ____
ROOT
ATOM      1  C   UNL     1       1.460   8.024  20.843  0.00  0.00    +0.000 C 
ATOM      2  C   UNL     1       1.155   6.716  20.843  0.00  0.00    +0.000 C 
ENDROOT
BRANCH   1   6
ATOM      3  C   UNL     1      -0.905  11.172  22.525  0.00  0.00    +0.000 A 
ATOM      4  C   UNL     1      -0.346  11.300  21.250  0.00  0.00    +0.000 A 
ATOM      5  C   UNL     1       0.414  10.254  20.716  0.00  0.00    +0.000 A 
ATOM      6  C   UNL     1       0.621   9.072  21.443  0.00  0.00    +0.000 A 
ATOM      7  C   UNL     1       0.015   8.936  22.698  0.00  0.00    +0.000 A 
ATOM      8  C   UNL     1      -0.739   9.980  23.238  0.00  0.00    +0.000 A 
BRANCH   3  10
ATOM      9  O   UNL     1      -1.228  13.414  23.228  0.00  0.00    +0.000 OA
ATOM     10  C   UNL     1      -1.699  12.291  23.089  0.00  0.00    +0.000 C 
ATOM     11  N   UNL     1      -2.986  11.971  23.467  0.00  0.00    +0.000 N 
ATOM     12  H   UNL     1      -3.266  11.023  23.696  0.00  0.00    +0.000 HD
BRANCH  11  13
ATOM     13  O   UNL     1      -3.718  13.006  24.087  0.00  0.00    +0.000 OA
ATOM     14  H   UNL     1      -4.109  13.477  23.316  0.00  0.00    +0.000 HD
ENDBRANCH  11  13
ENDBRANCH   3  10
ENDBRANCH   1   6
BRANCH   2  15
ATOM     15  C   UNL     1       2.061   5.658  20.371  0.00  0.00    +0.000 A 
ATOM     16  C   UNL     1       2.154   4.416  20.996  0.00  0.00    +0.000 A 
ATOM     17  C   UNL     1       2.957   3.447  20.424  0.00  0.00    +0.000 A 
ATOM     18  N   UNL     1       3.661   3.628  19.288  0.00  0.00    +0.000 NA
ATOM     19  C   UNL     1       3.579   4.836  18.679  0.00  0.00    +0.000 A 
ATOM     20  C   UNL     1       2.780   5.861  19.190  0.00  0.00    +0.000 A 
BRANCH  19  21
ATOM     21  C   UNL     1       4.359   4.990  17.442  0.00  0.00    +0.000 A 
ATOM     22  C   UNL     1       4.583   6.236  16.839  0.00  0.00    +0.000 A 
ATOM     23  C   UNL     1       5.306   6.329  15.651  0.00  0.00    +0.000 A 
ATOM     24  C   UNL     1       5.797   5.168  15.088  0.00  0.00    +0.000 A 
ATOM     25  N   UNL     1       5.623   3.946  15.630  0.00  0.00    +0.000 NA
ATOM     26  C   UNL     1       4.919   3.889  16.791  0.00  0.00    +0.000 A 
ENDBRANCH  19  21
ENDBRANCH   2  15
TORSDOF 5
ENDMDL
MODEL 7
REMARK VINA RESULT:      -8.0      4.825      9.890
REMARK  Name = 
REMARK  5 active torsions:
REMARK  status: ('A' for Active; 'I' for Inactive)
REMARK    1  A    between atoms: C_2  and  C_5
REMARK    2  A    between atoms: N_3  and  O_4
REMARK    3  A    between atoms: C_8  and  C_9
REMARK    4  A    between atoms: C_10  and  C_11
REMARK    5  A    between atoms: C_15  and  C_16
REMARK                            x       y       z     vdW  Elec       q    Type
REMARK                         _______ _______ _______ _____ _____    ______ ____
ROOT
ATOM      1  C   UNL     1       8.208   8.962  17.837  0.00  0.00    +0.000 C 
ATOM      2  C   UNL     1       8.960   9.397  18.861  0.00  0.00    +0.000 C 
ENDROOT
BRANCH   1   6
ATOM      3  C   UNL     1       6.066   5.255  17.891  0.00  0.00    +0.000 A 
ATOM      4  C   UNL     1       7.237   5.416  18.638  0.00  0.00    +0.000 A 
ATOM      5  C   UNL     1       7.914   6.640  18.614  0.00  0.00    +0.000 A 
ATOM      6  C   UNL     1       7.431   7.714  17.850  0.00  0.00    +0.000 A 
ATOM      7  C   UNL     1       6.232   7.556  17.145  0.00  0.00    +0.000 A 
ATOM      8  C   UNL     1       5.556   6.334  17.161  0.00  0.00    +0.000 A 
BRANCH   3  10
ATOM      9  O   UNL     1       4.799   3.502  16.919  0.00  0.00    +0.000 OA
ATOM     10  C   UNL     1       5.360   3.950  17.912  0.00  0.00    +0.000 C 
ATOM     11  N   UNL     1       5.360   3.297  19.126  0.00  0.00    +0.000 N 
ATOM     12  H   UNL     1       5.488   3.786  20.007  0.00  0.00    +0.000 HD
BRANCH  11  13
ATOM     13  O   UNL     1       4.616   2.099  19.178  0.00  0.00    +0.000 OA
ATOM     14  H   UNL     1       3.691   2.423  19.099  0.00  0.00    +0.000 HD
ENDBRANCH  11  13
ENDBRANCH   3  10
ENDBRANCH   1   6
BRANCH   2  15
ATOM     15  C   UNL     1       9.619  10.712  18.898  0.00  0.00    +0.000 A 
ATOM     16  C   UNL     1      10.346  11.217  17.822  0.00  0.00    +0.000 A 
ATOM     17  C   UNL     1      10.846  12.504  17.907  0.00  0.00    +0.000 A 
ATOM     18  N   UNL     1      10.671  13.308  18.976  0.00  0.00    +0.000 NA
ATOM     19  C   UNL     1       9.970  12.820  20.027  0.00  0.00    +0.000 A 
ATOM     20  C   UNL     1       9.424  11.535  20.011  0.00  0.00    +0.000 A 
BRANCH  19  21
ATOM     21  C   UNL     1       9.800  13.731  21.169  0.00  0.00    +0.000 A 
ATOM     22  C   UNL     1      10.474  14.958  21.265  0.00  0.00    +0.000 A 
ATOM     23  C   UNL     1      10.303  15.775  22.381  0.00  0.00    +0.000 A 
ATOM     24  C   UNL     1       9.452  15.350  23.383  0.00  0.00    +0.000 A 
ATOM     25  N   UNL     1       8.770  14.188  23.337  0.00  0.00    +0.000 NA
ATOM     26  C   UNL     1       8.954  13.417  22.234  0.00  0.00    +0.000 A 
ENDBRANCH  19  21
ENDBRANCH   2  15
TORSDOF 5
ENDMDL
MODEL 8
REMARK VINA RESULT:      -8.0      6.403      8.326
REMARK  Name = 
REMARK  5 active torsions:
REMARK  status: ('A' for Active; 'I' for Inactive)
REMARK    1  A    between atoms: C_2  and  C_5
REMARK    2  A    between atoms: N_3  and  O_4
REMARK    3  A    between atoms: C_8  and  C_9
REMARK    4  A    between atoms: C_10  and  C_11
REMARK    5  A    between atoms: C_15  and  C_16
REMARK                            x       y       z     vdW  Elec       q    Type
REMARK                         _______ _______ _______ _____ _____    ______ ____
ROOT
ATOM      1  C   UNL     1       1.835   7.375  20.279  0.00  0.00    +0.000 C 
ATOM      2  C   UNL     1       1.732   6.113  20.725  0.00  0.00    +0.000 C 
ENDROOT
BRANCH   1   6
ATOM      3  C   UNL     1      -0.168  10.798  21.892  0.00  0.00    +0.000 A 
ATOM      4  C   UNL     1       0.321  10.807  20.583  0.00  0.00    +0.000 A 
ATOM      5  C   UNL     1       0.962   9.673  20.073  0.00  0.00    +0.000 A 
ATOM      6  C   UNL     1       1.119   8.521  20.859  0.00  0.00    +0.000 A 
ATOM      7  C   UNL     1       0.583   8.508  22.152  0.00  0.00    +0.000 A 
ATOM      8  C   UNL     1      -0.052   9.639  22.668  0.00  0.00    +0.000 A 
BRANCH   3  10
ATOM      9  O   UNL     1      -0.259  13.089  22.501  0.00  0.00    +0.000 OA
ATOM     10  C   UNL     1      -0.835  12.009  22.430  0.00  0.00    +0.000 C 
ATOM     11  N   UNL     1      -2.131  11.827  22.865  0.00  0.00    +0.000 N 
ATOM     12  H   UNL     1      -2.487  10.919  23.147  0.00  0.00    +0.000 HD
BRANCH  11  13
ATOM     13  O   UNL     1      -2.743  12.950  23.460  0.00  0.00    +0.000 OA
ATOM     14  H   UNL     1      -1.993  13.583  23.534  0.00  0.00    +0.000 HD
ENDBRANCH  11  13
ENDBRANCH   3  10
ENDBRANCH   1   6
BRANCH   2  15
ATOM     15  C   UNL     1       2.556   4.997  20.236  0.00  0.00    +0.000 A 
ATOM     16  C   UNL     1       2.397   3.690  20.696  0.00  0.00    +0.000 A 
ATOM     17  C   UNL     1       3.146   2.687  20.108  0.00  0.00    +0.000 A 
ATOM     18  N   UNL     1       4.025   2.895  19.107  0.00  0.00    +0.000 NA
ATOM     19  C   UNL     1       4.188   4.163  18.660  0.00  0.00    +0.000 A 
ATOM     20  C   UNL     1       3.460   5.228  19.196  0.00  0.00    +0.000 A 
BRANCH  19  21
ATOM     21  C   UNL     1       5.154   4.344  17.566  0.00  0.00    +0.000 A 
ATOM     22  C   UNL     1       4.800   4.218  16.215  0.00  0.00    +0.000 A 
ATOM     23  C   UNL     1       5.758   4.371  15.214  0.00  0.00    +0.000 A 
ATOM     24  C   UNL     1       7.058   4.653  15.586  0.00  0.00    +0.000 A 
ATOM     25  N   UNL     1       7.451   4.797  16.867  0.00  0.00    +0.000 NA
ATOM     26  C   UNL     1       6.493   4.648  17.819  0.00  0.00    +0.000 A 
ENDBRANCH  19  21
ENDBRANCH   2  15
TORSDOF 5
ENDMDL
MODEL 9
REMARK VINA RESULT:      -8.0      7.177     10.308
REMARK  Name = 
REMARK  5 active torsions:
REMARK  status: ('A' for Active; 'I' for Inactive)
REMARK    1  A    between atoms: C_2  and  C_5
REMARK    2  A    between atoms: N_3  and  O_4
REMARK    3  A    between atoms: C_8  and  C_9
REMARK    4  A    between atoms: C_10  and  C_11
REMARK    5  A    between atoms: C_15  and  C_16
REMARK                            x       y       z     vdW  Elec       q    Type
REMARK                         _______ _______ _______ _____ _____    ______ ____
ROOT
ATOM      1  C   UNL     1       2.050   8.119  18.477  0.00  0.00    +0.000 C 
ATOM      2  C   UNL     1       1.474   8.897  19.407  0.00  0.00    +0.000 C 
ENDROOT
BRANCH   1   6
ATOM      3  C   UNL     1       3.598   4.174  19.087  0.00  0.00    +0.000 A 
ATOM      4  C   UNL     1       3.975   4.925  17.971  0.00  0.00    +0.000 A 
ATOM      5  C   UNL     1       3.466   6.217  17.798  0.00  0.00    +0.000 A 
ATOM      6  C   UNL     1       2.580   6.772  18.734  0.00  0.00    +0.000 A 
ATOM      7  C   UNL     1       2.248   6.028  19.873  0.00  0.00    +0.000 A 
ATOM      8  C   UNL     1       2.749   4.736  20.047  0.00  0.00    +0.000 A 
BRANCH   3  10
ATOM      9  O   UNL     1       4.853   2.499  20.202  0.00  0.00    +0.000 OA
ATOM     10  C   UNL     1       4.133   2.800  19.257  0.00  0.00    +0.000 C 
ATOM     11  N   UNL     1       3.785   1.903  18.270  0.00  0.00    +0.000 N 
ATOM     12  H   UNL     1       3.514   2.199  17.337  0.00  0.00    +0.000 HD
BRANCH  11  13
ATOM     13  O   UNL     1       4.361   0.620  18.376  0.00  0.00    +0.000 OA
ATOM     14  H   UNL     1       4.858   0.682  19.223  0.00  0.00    +0.000 HD
ENDBRANCH  11  13
ENDBRANCH   3  10
ENDBRANCH   1   6
BRANCH   2  15
ATOM     15  C   UNL     1       0.818  10.181  19.117  0.00  0.00    +0.000 A 
ATOM     16  C   UNL     1       1.513  11.388  19.085  0.00  0.00    +0.000 A 
ATOM     17  C   UNL     1       0.836  12.532  18.704  0.00  0.00    +0.000 A 
ATOM     18  N   UNL     1      -0.466  12.552  18.355  0.00  0.00    +0.000 NA
ATOM     19  C   UNL     1      -1.150  11.383  18.389  0.00  0.00    +0.000 A 
ATOM     20  C   UNL     1      -0.532  10.184  18.753  0.00  0.00    +0.000 A 
BRANCH  19  21
ATOM     21  C   UNL     1      -2.566  11.450  17.999  0.00  0.00    +0.000 A 
ATOM     22  C   UNL     1      -3.018  11.073  16.726  0.00  0.00    +0.000 A 
ATOM     23  C   UNL     1      -4.367  11.181  16.392  0.00  0.00    +0.000 A 
ATOM     24  C   UNL     1      -5.243  11.661  17.346  0.00  0.00    +0.000 A 
ATOM     25  N   UNL     1      -4.866  12.025  18.587  0.00  0.00    +0.000 NA
ATOM     26  C   UNL     1      -3.546  11.903  18.883  0.00  0.00    +0.000 A 
ENDBRANCH  19  21
ENDBRANCH   2  15
TORSDOF 5
ENDMDL
