MODEL 1
REMARK VINA RESULT:      -7.1      0.000      0.000
REMARK  Name = 
REMARK  7 active torsions:
REMARK  status: ('A' for Active; 'I' for Inactive)
REMARK    1  A    between atoms: C_2  and  C_4
REMARK    2  A    between atoms: N_7  and  C_8
REMARK    3  A    between atoms: C_8  and  C_9
REMARK    4  A    between atoms: C_10  and  C_11
REMARK    5  A    between atoms: C_11  and  N_12
REMARK    6  A    between atoms: C_15  and  C_16
REMARK    7  A    between atoms: N_17  and  O_18
REMARK                            x       y       z     vdW  Elec       q    Type
REMARK                         _______ _______ _______ _____ _____    ______ ____
ROOT
ATOM      1  C   UNL     1       2.036   6.687  20.060  0.00  0.00    +0.000 C 
ATOM      2  C   UNL     1       2.165   5.462  20.605  0.00  0.00    +0.000 C 
ENDROOT
BRANCH   1   3
ATOM      3  C   UNL     1       1.816   7.968  20.836  0.00  0.00    +0.000 C 
BRANCH   3   7
ATOM      4  C   UNL     1      -0.643  10.748  18.743  0.00  0.00    +0.000 A 
ATOM      5  C   UNL     1       0.409  10.094  18.115  0.00  0.00    +0.000 A 
ATOM      6  C   UNL     1       1.181   9.178  18.817  0.00  0.00    +0.000 A 
ATOM      7  N   UNL     1       0.932   8.929  20.125  0.00  0.00    +0.000 N 
ATOM      8  C   UNL     1      -0.064   9.582  20.764  0.00  0.00    +0.000 A 
ATOM      9  C   UNL     1      -0.877  10.486  20.090  0.00  0.00    +0.000 A 
BRANCH   4  11
ATOM     10  N   UNL     1      -1.005  12.809  17.461  0.00  0.00    +0.000 N 
ATOM     11  C   UNL     1      -1.538  11.705  18.054  0.00  0.00    +0.000 C 
ATOM     12  O   UNL     1      -2.756  11.497  18.038  0.00  0.00    +0.000 OA
ATOM     13  H   UNL     1      -1.625  13.460  16.998  0.00  0.00    +0.000 HD
ATOM     14  H   UNL     1      -0.026  13.110  17.462  0.00  0.00    +0.000 HD
ENDBRANCH   4  11
ENDBRANCH   3   7
ENDBRANCH   1   3
BRANCH   2  15
ATOM     15  C   UNL     1       2.397   4.207  19.816  0.00  0.00    +0.000 C 
BRANCH  15  16
ATOM     16  N   UNL     1       3.470   4.404  18.813  0.00  0.00    +0.000 N 
ATOM     17  C   UNL     1       3.220   4.118  17.513  0.00  0.00    +0.000 A 
ATOM     18  C   UNL     1       4.235   4.195  16.570  0.00  0.00    +0.000 A 
ATOM     19  C   UNL     1       5.519   4.585  16.963  0.00  0.00    +0.000 A 
ATOM     20  C   UNL     1       5.748   4.919  18.295  0.00  0.00    +0.000 A 
ATOM     21 CL   UNL     1       7.278   5.420  18.905  0.00  0.00    +0.000 Cl
ATOM     22  C   UNL     1       4.698   4.816  19.205  0.00  0.00    +0.000 A 
BRANCH  19  23
ATOM     23  C   UNL     1       6.596   4.609  15.953  0.00  0.00    +0.000 C 
ATOM     24  N   UNL     1       6.955   5.720  15.395  0.00  0.00    +0.000 NA
BRANCH  24  25
ATOM     25  O   UNL     1       7.979   5.456  14.481  0.00  0.00    +0.000 OA
ATOM     26  H   UNL     1       8.490   6.289  14.484  0.00  0.00    +0.000 HD
ENDBRANCH  24  25
ENDBRANCH  19  23
ENDBRANCH  15  16
ENDBRANCH   2  15
TORSDOF 7
ENDMDL
MODEL 2
REMARK VINA RESULT:      -7.1      4.280      8.366
REMARK  Name = 
REMARK  7 active torsions:
REMARK  status: ('A' for Active; 'I' for Inactive)
REMARK    1  A    between atoms: C_2  and  C_4
REMARK    2  A    between atoms: N_7  and  C_8
REMARK    3  A    between atoms: C_8  and  C_9
REMARK    4  A    between atoms: C_10  and  C_11
REMARK    5  A    between atoms: C_11  and  N_12
REMARK    6  A    between atoms: C_15  and  C_16
REMARK    7  A    between atoms: N_17  and  O_18
REMARK                            x       y       z     vdW  Elec       q    Type
REMARK                         _______ _______ _______ _____ _____    ______ ____
ROOT
ATOM      1  C   UNL     1       6.053   6.465  17.401  0.00  0.00    +0.000 C 
ATOM      2  C   UNL     1       4.850   6.766  16.878  0.00  0.00    +0.000 C 
ENDROOT
BRANCH   1   3
ATOM      3  C   UNL     1       7.202   5.837  16.642  0.00  0.00    +0.000 C 
BRANCH   3   7
ATOM      4  C   UNL     1       5.908   3.627  13.236  0.00  0.00    +0.000 A 
ATOM      5  C   UNL     1       5.325   3.446  14.483  0.00  0.00    +0.000 A 
ATOM      6  C   UNL     1       5.753   4.195  15.572  0.00  0.00    +0.000 A 
ATOM      7  N   UNL     1       6.758   5.092  15.434  0.00  0.00    +0.000 N 
ATOM      8  C   UNL     1       7.364   5.257  14.237  0.00  0.00    +0.000 A 
ATOM      9  C   UNL     1       6.946   4.548  13.118  0.00  0.00    +0.000 A 
BRANCH   4  11
ATOM     10  N   UNL     1       6.131   1.760  11.660  0.00  0.00    +0.000 N 
ATOM     11  C   UNL     1       5.480   2.901  12.021  0.00  0.00    +0.000 C 
ATOM     12  O   UNL     1       4.548   3.345  11.341  0.00  0.00    +0.000 OA
ATOM     13  H   UNL     1       5.835   1.273  10.825  0.00  0.00    +0.000 HD
ATOM     14  H   UNL     1       6.947   1.335  12.110  0.00  0.00    +0.000 HD
ENDBRANCH   4  11
ENDBRANCH   3   7
ENDBRANCH   1   3
BRANCH   2  15
ATOM     15  C   UNL     1       3.729   7.401  17.648  0.00  0.00    +0.000 C 
BRANCH  15  16
ATOM     16  N   UNL     1       3.008   6.393  18.460  0.00  0.00    +0.000 N 
ATOM     17  C   UNL     1       2.497   6.754  19.661  0.00  0.00    +0.000 A 
ATOM     18  C   UNL     1       1.908   5.807  20.486  0.00  0.00    +0.000 A 
ATOM     19  C   UNL     1       1.827   4.475  20.067  0.00  0.00    +0.000 A 
ATOM     20  C   UNL     1       2.315   4.130  18.810  0.00  0.00    +0.000 A 
ATOM     21 CL   UNL     1       2.270   2.531  18.174  0.00  0.00    +0.000 Cl
ATOM     22  C   UNL     1       2.907   5.116  18.023  0.00  0.00    +0.000 A 
BRANCH  19  23
ATOM     23  C   UNL     1       1.244   3.475  20.984  0.00  0.00    +0.000 C 
ATOM     24  N   UNL     1       1.990   2.836  21.827  0.00  0.00    +0.000 NA
BRANCH  24  25
ATOM     25  O   UNL     1       1.190   1.954  22.559  0.00  0.00    +0.000 OA
ATOM     26  H   UNL     1       0.285   2.237  22.320  0.00  0.00    +0.000 HD
ENDBRANCH  24  25
ENDBRANCH  19  23
ENDBRANCH  15  16
ENDBRANCH   2  15
TORSDOF 7
ENDMDL
MODEL 3
REMARK VINA RESULT:      -7.0      4.243      8.318
REMARK  Name = 
REMARK  7 active torsions:
REMARK  status: ('A' for Active; 'I' for Inactive)
REMARK    1  A    between atoms: C_2  and  C_4
REMARK    2  A    between atoms: N_7  and  C_8
REMARK    3  A    between atoms: C_8  and  C_9
REMARK    4  A    between atoms: C_10  and  C_11
REMARK    5  A    between atoms: C_11  and  N_12
REMARK    6  A    between atoms: C_15  and  C_16
REMARK    7  A    between atoms: N_17  and  O_18
REMARK                            x       y       z     vdW  Elec       q    Type
REMARK                         _______ _______ _______ _____ _____    ______ ____
ROOT
ATOM      1  C   UNL     1       5.784   6.300  17.547  0.00  0.00    +0.000 C 
ATOM      2  C   UNL     1       4.756   6.917  16.935  0.00  0.00    +0.000 C 
ENDROOT
BRANCH   1   3
ATOM      3  C   UNL     1       6.990   5.712  16.847  0.00  0.00    +0.000 C 
BRANCH   3   7
ATOM      4  C   UNL     1       6.004   3.727  13.208  0.00  0.00    +0.000 A 
ATOM      5  C   UNL     1       7.017   4.673  13.266  0.00  0.00    +0.000 A 
ATOM      6  C   UNL     1       7.330   5.290  14.470  0.00  0.00    +0.000 A 
ATOM      7  N   UNL     1       6.637   4.992  15.595  0.00  0.00    +0.000 N 
ATOM      8  C   UNL     1       5.623   4.099  15.552  0.00  0.00    +0.000 A 
ATOM      9  C   UNL     1       5.297   3.440  14.373  0.00  0.00    +0.000 A 
BRANCH   4  11
ATOM     10  N   UNL     1       4.393   3.152  11.449  0.00  0.00    +0.000 N 
ATOM     11  C   UNL     1       5.639   2.995  11.975  0.00  0.00    +0.000 C 
ATOM     12  O   UNL     1       6.463   2.240  11.446  0.00  0.00    +0.000 OA
ATOM     13  H   UNL     1       4.150   2.644  10.609  0.00  0.00    +0.000 HD
ATOM     14  H   UNL     1       3.616   3.700  11.831  0.00  0.00    +0.000 HD
ENDBRANCH   4  11
ENDBRANCH   3   7
ENDBRANCH   1   3
BRANCH   2  15
ATOM     15  C   UNL     1       3.575   7.505  17.651  0.00  0.00    +0.000 C 
BRANCH  15  16
ATOM     16  N   UNL     1       2.873   6.472  18.449  0.00  0.00    +0.000 N 
ATOM     17  C   UNL     1       2.467   6.771  19.706  0.00  0.00    +0.000 A 
ATOM     18  C   UNL     1       1.900   5.793  20.511  0.00  0.00    +0.000 A 
ATOM     19  C   UNL     1       1.733   4.497  20.015  0.00  0.00    +0.000 A 
ATOM     20  C   UNL     1       2.114   4.218  18.705  0.00  0.00    +0.000 A 
ATOM     21 CL   UNL     1       1.955   2.668  17.973  0.00  0.00    +0.000 Cl
ATOM     22  C   UNL     1       2.687   5.232  17.940  0.00  0.00    +0.000 A 
BRANCH  19  23
ATOM     23  C   UNL     1       1.176   3.460  20.907  0.00  0.00    +0.000 C 
ATOM     24  N   UNL     1       1.872   2.992  21.893  0.00  0.00    +0.000 NA
BRANCH  24  25
ATOM     25  O   UNL     1       1.114   2.028  22.563  0.00  0.00    +0.000 OA
ATOM     26  H   UNL     1       0.412   2.561  22.984  0.00  0.00    +0.000 HD
ENDBRANCH  24  25
ENDBRANCH  19  23
ENDBRANCH  15  16
ENDBRANCH   2  15
TORSDOF 7
ENDMDL
MODEL 4
REMARK VINA RESULT:      -7.0      3.273      9.388
REMARK  Name = 
REMARK  7 active torsions:
REMARK  status: ('A' for Active; 'I' for Inactive)
REMARK    1  A    between atoms: C_2  and  C_4
REMARK    2  A    between atoms: N_7  and  C_8
REMARK    3  A    between atoms: C_8  and  C_9
REMARK    4  A    between atoms: C_10  and  C_11
REMARK    5  A    between atoms: C_11  and  N_12
REMARK    6  A    between atoms: C_15  and  C_16
REMARK    7  A    between atoms: N_17  and  O_18
REMARK                            x       y       z     vdW  Elec       q    Type
REMARK                         _______ _______ _______ _____ _____    ______ ____
ROOT
ATOM      1  C   UNL     1       2.405   7.855  18.635  0.00  0.00    +0.000 C 
ATOM      2  C   UNL     1       1.282   8.488  18.247  0.00  0.00    +0.000 C 
ENDROOT
BRANCH   1   3
ATOM      3  C   UNL     1       2.615   6.357  18.612  0.00  0.00    +0.000 C 
BRANCH   3   7
ATOM      4  C   UNL     1       5.482   5.047  15.744  0.00  0.00    +0.000 A 
ATOM      5  C   UNL     1       4.690   4.145  16.442  0.00  0.00    +0.000 A 
ATOM      6  C   UNL     1       3.750   4.602  17.357  0.00  0.00    +0.000 A 
ATOM      7  N   UNL     1       3.610   5.928  17.593  0.00  0.00    +0.000 N 
ATOM      8  C   UNL     1       4.396   6.820  16.950  0.00  0.00    +0.000 A 
ATOM      9  C   UNL     1       5.329   6.405  16.008  0.00  0.00    +0.000 A 
BRANCH   4  11
ATOM     10  N   UNL     1       7.634   5.347  14.605  0.00  0.00    +0.000 N 
ATOM     11  C   UNL     1       6.474   4.643  14.723  0.00  0.00    +0.000 C 
ATOM     12  O   UNL     1       6.233   3.683  13.984  0.00  0.00    +0.000 OA
ATOM     13  H   UNL     1       8.304   5.068  13.901  0.00  0.00    +0.000 HD
ATOM     14  H   UNL     1       7.912   6.188  15.119  0.00  0.00    +0.000 HD
ENDBRANCH   4  11
ENDBRANCH   3   7
ENDBRANCH   1   3
BRANCH   2  15
ATOM     15  C   UNL     1       1.102   9.978  18.266  0.00  0.00    +0.000 C 
BRANCH  15  16
ATOM     16  N   UNL     1      -0.337  10.336  18.268  0.00  0.00    +0.000 N 
ATOM     17  C   UNL     1      -1.167   9.738  17.382  0.00  0.00    +0.000 A 
ATOM     18  C   UNL     1      -2.496  10.129  17.293  0.00  0.00    +0.000 A 
ATOM     19  C   UNL     1      -2.982  11.134  18.135  0.00  0.00    +0.000 A 
ATOM     20  C   UNL     1      -2.126  11.705  19.072  0.00  0.00    +0.000 A 
ATOM     21 CL   UNL     1      -2.601  12.943  20.170  0.00  0.00    +0.000 Cl
ATOM     22  C   UNL     1      -0.798  11.285  19.115  0.00  0.00    +0.000 A 
BRANCH  19  23
ATOM     23  C   UNL     1      -4.385  11.569  17.986  0.00  0.00    +0.000 C 
ATOM     24  N   UNL     1      -4.949  11.598  16.821  0.00  0.00    +0.000 NA
BRANCH  24  25
ATOM     25  O   UNL     1      -6.264  12.051  16.968  0.00  0.00    +0.000 OA
ATOM     26  H   UNL     1      -6.160  13.023  16.943  0.00  0.00    +0.000 HD
ENDBRANCH  24  25
ENDBRANCH  19  23
ENDBRANCH  15  16
ENDBRANCH   2  15
TORSDOF 7
ENDMDL
MODEL 5
REMARK VINA RESULT:      -7.0      0.773      1.251
REMARK  Name = 
REMARK  7 active torsions:
REMARK  status: ('A' for Active; 'I' for Inactive)
REMARK    1  A    between atoms: C_2  and  C_4
REMARK    2  A    between atoms: N_7  and  C_8
REMARK    3  A    between atoms: C_8  and  C_9
REMARK    4  A    between atoms: C_10  and  C_11
REMARK    5  A    between atoms: C_11  and  N_12
REMARK    6  A    between atoms: C_15  and  C_16
REMARK    7  A    between atoms: N_17  and  O_18
REMARK                            x       y       z     vdW  Elec       q    Type
REMARK                         _______ _______ _______ _____ _____    ______ ____
ROOT
ATOM      1  C   UNL     1       1.658   6.838  20.302  0.00  0.00    +0.000 C 
ATOM      2  C   UNL     1       2.151   5.631  20.640  0.00  0.00    +0.000 C 
ENDROOT
BRANCH   1   3
ATOM      3  C   UNL     1       1.507   8.013  21.243  0.00  0.00    +0.000 C 
BRANCH   3   7
ATOM      4  C   UNL     1      -0.500  11.337  19.487  0.00  0.00    +0.000 A 
ATOM      5  C   UNL     1      -0.690  10.996  20.820  0.00  0.00    +0.000 A 
ATOM      6  C   UNL     1      -0.007   9.920  21.371  0.00  0.00    +0.000 A 
ATOM      7  N   UNL     1       0.833   9.178  20.610  0.00  0.00    +0.000 N 
ATOM      8  C   UNL     1       1.004   9.471  19.302  0.00  0.00    +0.000 A 
ATOM      9  C   UNL     1       0.360  10.556  18.720  0.00  0.00    +0.000 A 
BRANCH   4  11
ATOM     10  N   UNL     1      -1.149  12.589  17.480  0.00  0.00    +0.000 N 
ATOM     11  C   UNL     1      -1.156  12.493  18.838  0.00  0.00    +0.000 C 
ATOM     12  O   UNL     1      -1.689  13.364  19.536  0.00  0.00    +0.000 OA
ATOM     13  H   UNL     1      -1.595  13.386  17.045  0.00  0.00    +0.000 HD
ATOM     14  H   UNL     1      -0.692  11.964  16.809  0.00  0.00    +0.000 HD
ENDBRANCH   4  11
ENDBRANCH   3   7
ENDBRANCH   1   3
BRANCH   2  15
ATOM     15  C   UNL     1       2.304   4.484  19.684  0.00  0.00    +0.000 C 
BRANCH  15  16
ATOM     16  N   UNL     1       3.463   4.696  18.786  0.00  0.00    +0.000 N 
ATOM     17  C   UNL     1       3.332   4.430  17.464  0.00  0.00    +0.000 A 
ATOM     18  C   UNL     1       4.428   4.522  16.618  0.00  0.00    +0.000 A 
ATOM     19  C   UNL     1       5.671   4.906  17.131  0.00  0.00    +0.000 A 
ATOM     20  C   UNL     1       5.778   5.220  18.483  0.00  0.00    +0.000 A 
ATOM     21 CL   UNL     1       7.245   5.713  19.236  0.00  0.00    +0.000 Cl
ATOM     22  C   UNL     1       4.650   5.103  19.293  0.00  0.00    +0.000 A 
BRANCH  19  23
ATOM     23  C   UNL     1       6.834   4.945  16.223  0.00  0.00    +0.000 C 
ATOM     24  N   UNL     1       6.759   5.543  15.077  0.00  0.00    +0.000 NA
BRANCH  24  25
ATOM     25  O   UNL     1       7.989   5.423  14.424  0.00  0.00    +0.000 OA
ATOM     26  H   UNL     1       7.741   5.503  13.482  0.00  0.00    +0.000 HD
ENDBRANCH  24  25
ENDBRANCH  19  23
ENDBRANCH  15  16
ENDBRANCH   2  15
TORSDOF 7
ENDMDL
MODEL 6
REMARK VINA RESULT:      -6.8      7.180      9.517
REMARK  Name = 
REMARK  7 active torsions:
REMARK  status: ('A' for Active; 'I' for Inactive)
REMARK    1  A    between atoms: C_2  and  C_4
REMARK    2  A    between atoms: N_7  and  C_8
REMARK    3  A    between atoms: C_8  and  C_9
REMARK    4  A    between atoms: C_10  and  C_11
REMARK    5  A    between atoms: C_11  and  N_12
REMARK    6  A    between atoms: C_15  and  C_16
REMARK    7  A    between atoms: N_17  and  O_18
REMARK                            x       y       z     vdW  Elec       q    Type
REMARK                         _______ _______ _______ _____ _____    ______ ____
ROOT
ATOM      1  C   UNL     1       8.265   8.301  18.070  0.00  0.00    +0.000 C 
ATOM      2  C   UNL     1       8.414   9.632  18.213  0.00  0.00    +0.000 C 
ENDROOT
BRANCH   1   3
ATOM      3  C   UNL     1       7.372   7.628  17.051  0.00  0.00    +0.000 C 
BRANCH   3   7
ATOM      4  C   UNL     1       5.008   4.485  18.692  0.00  0.00    +0.000 A 
ATOM      5  C   UNL     1       4.513   5.325  17.704  0.00  0.00    +0.000 A 
ATOM      6  C   UNL     1       5.313   6.328  17.173  0.00  0.00    +0.000 A 
ATOM      7  N   UNL     1       6.575   6.513  17.628  0.00  0.00    +0.000 N 
ATOM      8  C   UNL     1       7.064   5.728  18.615  0.00  0.00    +0.000 A 
ATOM      9  C   UNL     1       6.305   4.696  19.152  0.00  0.00    +0.000 A 
BRANCH   4  11
ATOM     10  N   UNL     1       4.898   2.311  19.824  0.00  0.00    +0.000 N 
ATOM     11  C   UNL     1       4.235   3.366  19.277  0.00  0.00    +0.000 C 
ATOM     12  O   UNL     1       3.000   3.398  19.248  0.00  0.00    +0.000 OA
ATOM     13  H   UNL     1       4.362   1.549  20.216  0.00  0.00    +0.000 HD
ATOM     14  H   UNL     1       5.910   2.151  19.850  0.00  0.00    +0.000 HD
ENDBRANCH   4  11
ENDBRANCH   3   7
ENDBRANCH   1   3
BRANCH   2  15
ATOM     15  C   UNL     1       9.316  10.277  19.223  0.00  0.00    +0.000 C 
BRANCH  15  16
ATOM     16  N   UNL     1       9.522  11.711  18.908  0.00  0.00    +0.000 N 
ATOM     17  C   UNL     1       9.986  12.058  17.684  0.00  0.00    +0.000 A 
ATOM     18  C   UNL     1      10.284  13.383  17.398  0.00  0.00    +0.000 A 
ATOM     19  C   UNL     1      10.089  14.365  18.373  0.00  0.00    +0.000 A 
ATOM     20  C   UNL     1       9.567  13.998  19.610  0.00  0.00    +0.000 A 
ATOM     21 CL   UNL     1       9.273  15.109  20.891  0.00  0.00    +0.000 Cl
ATOM     22  C   UNL     1       9.293  12.653  19.852  0.00  0.00    +0.000 A 
BRANCH  19  23
ATOM     23  C   UNL     1      10.463  15.760  18.063  0.00  0.00    +0.000 C 
ATOM     24  N   UNL     1      10.864  16.090  16.877  0.00  0.00    +0.000 NA
BRANCH  24  25
ATOM     25  O   UNL     1      11.156  17.456  16.864  0.00  0.00    +0.000 OA
ATOM     26  H   UNL     1      10.375  17.838  16.416  0.00  0.00    +0.000 HD
ENDBRANCH  24  25
ENDBRANCH  19  23
ENDBRANCH  15  16
ENDBRANCH   2  15
TORSDOF 7
ENDMDL
MODEL 7
REMARK VINA RESULT:      -6.8      4.204      9.305
REMARK  Name = 
REMARK  7 active torsions:
REMARK  status: ('A' for Active; 'I' for Inactive)
REMARK    1  A    between atoms: C_2  and  C_4
REMARK    2  A    between atoms: N_7  and  C_8
REMARK    3  A    between atoms: C_8  and  C_9
REMARK    4  A    between atoms: C_10  and  C_11
REMARK    5  A    between atoms: C_11  and  N_12
REMARK    6  A    between atoms: C_15  and  C_16
REMARK    7  A    between atoms: N_17  and  O_18
REMARK                            x       y       z     vdW  Elec       q    Type
REMARK                         _______ _______ _______ _____ _____    ______ ____
ROOT
ATOM      1  C   UNL     1       2.364   9.013  18.297  0.00  0.00    +0.000 C 
ATOM      2  C   UNL     1       1.126   9.500  18.087  0.00  0.00    +0.000 C 
ENDROOT
BRANCH   1   3
ATOM      3  C   UNL     1       2.930   7.763  17.659  0.00  0.00    +0.000 C 
BRANCH   3   7
ATOM      4  C   UNL     1       2.107   4.270  19.957  0.00  0.00    +0.000 A 
ATOM      5  C   UNL     1       2.161   5.528  20.542  0.00  0.00    +0.000 A 
ATOM      6  C   UNL     1       2.412   6.651  19.765  0.00  0.00    +0.000 A 
ATOM      7  N   UNL     1       2.628   6.531  18.434  0.00  0.00    +0.000 N 
ATOM      8  C   UNL     1       2.615   5.311  17.850  0.00  0.00    +0.000 A 
ATOM      9  C   UNL     1       2.341   4.166  18.588  0.00  0.00    +0.000 A 
BRANCH   4  11
ATOM     10  N   UNL     1       1.990   3.006  22.056  0.00  0.00    +0.000 N 
ATOM     11  C   UNL     1       1.803   3.032  20.707  0.00  0.00    +0.000 C 
ATOM     12  O   UNL     1       1.398   2.034  20.100  0.00  0.00    +0.000 OA
ATOM     13  H   UNL     1       1.786   2.153  22.560  0.00  0.00    +0.000 HD
ATOM     14  H   UNL     1       2.374   3.747  22.650  0.00  0.00    +0.000 HD
ENDBRANCH   4  11
ENDBRANCH   3   7
ENDBRANCH   1   3
BRANCH   2  15
ATOM     15  C   UNL     1       0.591  10.750  18.722  0.00  0.00    +0.000 C 
BRANCH  15  16
ATOM     16  N   UNL     1      -0.880  10.837  18.558  0.00  0.00    +0.000 N 
ATOM     17  C   UNL     1      -1.483  10.091  17.602  0.00  0.00    +0.000 A 
ATOM     18  C   UNL     1      -2.842  10.230  17.359  0.00  0.00    +0.000 A 
ATOM     19  C   UNL     1      -3.594  11.133  18.116  0.00  0.00    +0.000 A 
ATOM     20  C   UNL     1      -2.968  11.858  19.126  0.00  0.00    +0.000 A 
ATOM     21 CL   UNL     1      -3.780  12.994  20.132  0.00  0.00    +0.000 Cl
ATOM     22  C   UNL     1      -1.598  11.690  19.324  0.00  0.00    +0.000 A 
BRANCH  19  23
ATOM     23  C   UNL     1      -5.028  11.302  17.804  0.00  0.00    +0.000 C 
ATOM     24  N   UNL     1      -5.932  10.680  18.491  0.00  0.00    +0.000 NA
BRANCH  24  25
ATOM     25  O   UNL     1      -7.192  11.012  17.983  0.00  0.00    +0.000 OA
ATOM     26  H   UNL     1      -7.484  10.176  17.570  0.00  0.00    +0.000 HD
ENDBRANCH  24  25
ENDBRANCH  19  23
ENDBRANCH  15  16
ENDBRANCH   2  15
TORSDOF 7
ENDMDL
MODEL 8
REMARK VINA RESULT:      -6.8      4.050      9.193
REMARK  Name = 
REMARK  7 active torsions:
REMARK  status: ('A' for Active; 'I' for Inactive)
REMARK    1  A    between atoms: C_2  and  C_4
REMARK    2  A    between atoms: N_7  and  C_8
REMARK    3  A    between atoms: C_8  and  C_9
REMARK    4  A    between atoms: C_10  and  C_11
REMARK    5  A    between atoms: C_11  and  N_12
REMARK    6  A    between atoms: C_15  and  C_16
REMARK    7  A    between atoms: N_17  and  O_18
REMARK                            x       y       z     vdW  Elec       q    Type
REMARK                         _______ _______ _______ _____ _____    ______ ____
ROOT
ATOM      1  C   UNL     1       2.344   8.969  18.157  0.00  0.00    +0.000 C 
ATOM      2  C   UNL     1       1.040   9.278  18.285  0.00  0.00    +0.000 C 
ENDROOT
BRANCH   1   3
ATOM      3  C   UNL     1       2.882   7.691  17.552  0.00  0.00    +0.000 C 
BRANCH   3   7
ATOM      4  C   UNL     1       1.967   4.260  19.907  0.00  0.00    +0.000 A 
ATOM      5  C   UNL     1       2.361   5.456  20.491  0.00  0.00    +0.000 A 
ATOM      6  C   UNL     1       2.634   6.564  19.699  0.00  0.00    +0.000 A 
ATOM      7  N   UNL     1       2.540   6.484  18.351  0.00  0.00    +0.000 N 
ATOM      8  C   UNL     1       2.193   5.318  17.761  0.00  0.00    +0.000 A 
ATOM      9  C   UNL     1       1.885   4.195  18.519  0.00  0.00    +0.000 A 
BRANCH   4  11
ATOM     10  N   UNL     1       1.836   3.030  22.026  0.00  0.00    +0.000 N 
ATOM     11  C   UNL     1       1.617   3.049  20.683  0.00  0.00    +0.000 C 
ATOM     12  O   UNL     1       1.145   2.066  20.100  0.00  0.00    +0.000 OA
ATOM     13  H   UNL     1       1.599   2.197  22.547  0.00  0.00    +0.000 HD
ATOM     14  H   UNL     1       2.273   3.758  22.601  0.00  0.00    +0.000 HD
ENDBRANCH   4  11
ENDBRANCH   3   7
ENDBRANCH   1   3
BRANCH   2  15
ATOM     15  C   UNL     1       0.529  10.559  18.877  0.00  0.00    +0.000 C 
BRANCH  15  16
ATOM     16  N   UNL     1      -0.872  10.810  18.464  0.00  0.00    +0.000 N 
ATOM     17  C   UNL     1      -1.654  11.606  19.232  0.00  0.00    +0.000 A 
ATOM     18  C   UNL     1      -2.997  11.775  18.925  0.00  0.00    +0.000 A 
ATOM     19  C   UNL     1      -3.540  11.132  17.809  0.00  0.00    +0.000 A 
ATOM     20  C   UNL     1      -2.712  10.355  17.005  0.00  0.00    +0.000 A 
ATOM     21 CL   UNL     1      -3.254   9.519  15.601  0.00  0.00    +0.000 Cl
ATOM     22  C   UNL     1      -1.373  10.209  17.360  0.00  0.00    +0.000 A 
BRANCH  19  23
ATOM     23  C   UNL     1      -4.983  11.284  17.533  0.00  0.00    +0.000 C 
ATOM     24  N   UNL     1      -5.446  12.377  17.016  0.00  0.00    +0.000 NA
BRANCH  24  25
ATOM     25  O   UNL     1      -6.831  12.255  16.869  0.00  0.00    +0.000 OA
ATOM     26  H   UNL     1      -7.078  13.102  16.448  0.00  0.00    +0.000 HD
ENDBRANCH  24  25
ENDBRANCH  19  23
ENDBRANCH  15  16
ENDBRANCH   2  15
TORSDOF 7
ENDMDL
MODEL 9
REMARK VINA RESULT:      -6.8      3.311      9.336
REMARK  Name = 
REMARK  7 active torsions:
REMARK  status: ('A' for Active; 'I' for Inactive)
REMARK    1  A    between atoms: C_2  and  C_4
REMARK    2  A    between atoms: N_7  and  C_8
REMARK    3  A    between atoms: C_8  and  C_9
REMARK    4  A    between atoms: C_10  and  C_11
REMARK    5  A    between atoms: C_11  and  N_12
REMARK    6  A    between atoms: C_15  and  C_16
REMARK    7  A    between atoms: N_17  and  O_18
REMARK                            x       y       z     vdW  Elec       q    Type
REMARK                         _______ _______ _______ _____ _____    ______ ____
ROOT
ATOM      1  C   UNL     1       2.147   7.667  18.069  0.00  0.00    +0.000 C 
ATOM      2  C   UNL     1       1.755   8.699  18.839  0.00  0.00    +0.000 C 
ENDROOT
BRANCH   1   3
ATOM      3  C   UNL     1       3.012   6.514  18.529  0.00  0.00    +0.000 C 
BRANCH   3   7
ATOM      4  C   UNL     1       5.712   5.068  15.566  0.00  0.00    +0.000 A 
ATOM      5  C   UNL     1       5.086   4.208  16.458  0.00  0.00    +0.000 A 
ATOM      6  C   UNL     1       4.195   4.705  17.401  0.00  0.00    +0.000 A 
ATOM      7  N   UNL     1       3.945   6.034  17.475  0.00  0.00    +0.000 N 
ATOM      8  C   UNL     1       4.572   6.892  16.639  0.00  0.00    +0.000 A 
ATOM      9  C   UNL     1       5.448   6.431  15.664  0.00  0.00    +0.000 A 
BRANCH   4  11
ATOM     10  N   UNL     1       7.803   5.288  14.302  0.00  0.00    +0.000 N 
ATOM     11  C   UNL     1       6.639   4.612  14.507  0.00  0.00    +0.000 C 
ATOM     12  O   UNL     1       6.339   3.634  13.812  0.00  0.00    +0.000 OA
ATOM     13  H   UNL     1       8.428   4.973  13.572  0.00  0.00    +0.000 HD
ATOM     14  H   UNL     1       8.125   6.138  14.774  0.00  0.00    +0.000 HD
ENDBRANCH   4  11
ENDBRANCH   3   7
ENDBRANCH   1   3
BRANCH   2  15
ATOM     15  C   UNL     1       0.885   9.826  18.364  0.00  0.00    +0.000 C 
BRANCH  15  16
ATOM     16  N   UNL     1       0.302  10.563  19.511  0.00  0.00    +0.000 N 
ATOM     17  C   UNL     1      -0.014  11.872  19.362  0.00  0.00    +0.000 A 
ATOM     18  C   UNL     1      -0.464  12.611  20.447  0.00  0.00    +0.000 A 
ATOM     19  C   UNL     1      -0.607  11.997  21.695  0.00  0.00    +0.000 A 
ATOM     20  C   UNL     1      -0.322  10.640  21.819  0.00  0.00    +0.000 A 
ATOM     21 CL   UNL     1      -0.464   9.765  23.294  0.00  0.00    +0.000 Cl
ATOM     22  C   UNL     1       0.136   9.944  20.702  0.00  0.00    +0.000 A 
BRANCH  19  23
ATOM     23  C   UNL     1      -1.037  12.816  22.846  0.00  0.00    +0.000 C 
ATOM     24  N   UNL     1      -0.337  13.834  23.231  0.00  0.00    +0.000 NA
BRANCH  24  25
ATOM     25  O   UNL     1      -0.963  14.420  24.336  0.00  0.00    +0.000 OA
ATOM     26  H   UNL     1      -1.909  14.234  24.170  0.00  0.00    +0.000 HD
ENDBRANCH  24  25
ENDBRANCH  19  23
ENDBRANCH  15  16
ENDBRANCH   2  15
TORSDOF 7
ENDMDL
