MODEL 1
REMARK VINA RESULT:      -8.8      0.000      0.000
REMARK  Name = 
REMARK  5 active torsions:
REMARK  status: ('A' for Active; 'I' for Inactive)
REMARK    1  A    between atoms: C_2  and  C_3
REMARK    2  A    between atoms: N_5  and  C_6
REMARK    3  A    between atoms: C_9  and  C_10
REMARK    4  A    between atoms: C_16  and  N_17
REMARK    5  A    between atoms: C_24  and  C_25
REMARK                            x       y       z     vdW  Elec       q    Type
REMARK                         _______ _______ _______ _____ _____    ______ ____
ROOT
ATOM      1  C   UNL     1       5.783   5.089  17.451  0.00  0.00    +0.000 C 
ATOM      2  O   UNL     1       6.108   4.442  16.453  0.00  0.00    +0.000 OA
ATOM      3  N   UNL     1       4.606   4.823  18.154  0.00  0.00    +0.000 N 
ATOM      4  C   UNL     1       3.901   3.578  17.866  0.00  0.00    +0.000 C 
ATOM      5  C   UNL     1       2.415   3.821  17.646  0.00  0.00    +0.000 C 
ATOM      6  C   UNL     1       1.794   4.618  18.798  0.00  0.00    +0.000 C 
ATOM      7  C   UNL     1       2.550   5.946  19.067  0.00  0.00    +0.000 C 
ATOM      8  C   UNL     1       4.042   5.641  19.235  0.00  0.00    +0.000 C 
ENDROOT
BRANCH   7   9
ATOM      9  N   UNL     1       2.004   6.572  20.255  0.00  0.00    +0.000 N 
ATOM     10  C   UNL     1       1.429   7.804  20.426  0.00  0.00    +0.000 A 
ATOM     11  N   UNL     1       1.050   7.992  21.697  0.00  0.00    +0.000 NA
ATOM     12  C   UNL     1       0.592   9.213  22.025  0.00  0.00    +0.000 A 
ATOM     13  C   UNL     1       0.464  10.261  21.148  0.00  0.00    +0.000 A 
ATOM     14  C   UNL     1       0.030  11.528  21.582  0.00  0.00    +0.000 A 
ATOM     15  C   UNL     1      -0.111  12.569  20.681  0.00  0.00    +0.000 A 
ATOM     16  C   UNL     1       0.153  12.348  19.331  0.00  0.00    +0.000 A 
ATOM     17  C   UNL     1      -0.051  13.488  18.363  0.00  0.00    +0.000 C 
ATOM     18  C   UNL     1       0.601  11.059  18.922  0.00  0.00    +0.000 A 
ATOM     19  C   UNL     1       0.803   9.984  19.819  0.00  0.00    +0.000 A 
ATOM     20  N   UNL     1       1.300   8.748  19.472  0.00  0.00    +0.000 NA
ATOM     21  H   UNL     1       1.841   5.995  21.075  0.00  0.00    +0.000 HD
ENDBRANCH   7   9
BRANCH   1  25
ATOM     22  C   UNL     1       8.440   8.297  18.549  0.00  0.00    +0.000 A 
ATOM     23  C   UNL     1       7.526   8.431  17.500  0.00  0.00    +0.000 A 
ATOM     24  C   UNL     1       6.660   7.384  17.171  0.00  0.00    +0.000 A 
ATOM     25  C   UNL     1       6.706   6.179  17.875  0.00  0.00    +0.000 A 
ATOM     26  C   UNL     1       7.677   6.017  18.870  0.00  0.00    +0.000 A 
ATOM     27  C   UNL     1       8.512   7.079  19.229  0.00  0.00    +0.000 A 
BRANCH  22  30
ATOM     28  C   UNL     1       9.281  10.635  18.529  0.00  0.00    +0.000 C 
ATOM     29  O   UNL     1       8.423  11.149  17.823  0.00  0.00    +0.000 OA
ATOM     30  N   UNL     1       9.326   9.320  18.944  0.00  0.00    +0.000 N 
ATOM     31  H   UNL     1      10.029   9.064  19.624  0.00  0.00    +0.000 HD
BRANCH  28  33
ATOM     32  C   UNL     1      10.491  11.654  20.388  0.00  0.00    +0.000 C 
ATOM     33  C   UNL     1      10.403  11.448  19.067  0.00  0.00    +0.000 C 
ENDBRANCH  28  33
ENDBRANCH  22  30
ENDBRANCH   1  25
TORSDOF 4
ENDMDL
MODEL 2
REMARK VINA RESULT:      -8.6      0.922      1.273
REMARK  Name = 
REMARK  5 active torsions:
REMARK  status: ('A' for Active; 'I' for Inactive)
REMARK    1  A    between atoms: C_2  and  C_3
REMARK    2  A    between atoms: N_5  and  C_6
REMARK    3  A    between atoms: C_9  and  C_10
REMARK    4  A    between atoms: C_16  and  N_17
REMARK    5  A    between atoms: C_24  and  C_25
REMARK                            x       y       z     vdW  Elec       q    Type
REMARK                         _______ _______ _______ _____ _____    ______ ____
ROOT
ATOM      1  C   UNL     1       5.211   4.702  17.798  0.00  0.00    +0.000 C 
ATOM      2  O   UNL     1       5.387   3.839  16.937  0.00  0.00    +0.000 OA
ATOM      3  N   UNL     1       4.221   4.578  18.777  0.00  0.00    +0.000 N 
ATOM      4  C   UNL     1       3.583   3.278  18.947  0.00  0.00    +0.000 C 
ATOM      5  C   UNL     1       2.067   3.406  18.995  0.00  0.00    +0.000 C 
ATOM      6  C   UNL     1       1.619   4.442  20.031  0.00  0.00    +0.000 C 
ATOM      7  C   UNL     1       2.297   5.821  19.812  0.00  0.00    +0.000 C 
ATOM      8  C   UNL     1       3.813   5.620  19.729  0.00  0.00    +0.000 C 
ENDROOT
BRANCH   7   9
ATOM      9  N   UNL     1       1.942   6.704  20.906  0.00  0.00    +0.000 N 
ATOM     10  C   UNL     1       1.366   7.947  20.895  0.00  0.00    +0.000 A 
ATOM     11  N   UNL     1       1.205   8.420  22.138  0.00  0.00    +0.000 NA
ATOM     12  C   UNL     1       0.772   9.687  22.259  0.00  0.00    +0.000 A 
ATOM     13  C   UNL     1       0.461  10.511  21.206  0.00  0.00    +0.000 A 
ATOM     14  C   UNL     1       0.068  11.846  21.415  0.00  0.00    +0.000 A 
ATOM     15  C   UNL     1      -0.260  12.657  20.342  0.00  0.00    +0.000 A 
ATOM     16  C   UNL     1      -0.224  12.135  19.051  0.00  0.00    +0.000 A 
ATOM     17  C   UNL     1      -0.628  13.029  17.903  0.00  0.00    +0.000 C 
ATOM     18  C   UNL     1       0.188  10.783  18.869  0.00  0.00    +0.000 A 
ATOM     19  C   UNL     1       0.576   9.938  19.934  0.00  0.00    +0.000 A 
ATOM     20  N   UNL     1       1.045   8.651  19.791  0.00  0.00    +0.000 NA
ATOM     21  H   UNL     1       1.941   6.328  21.851  0.00  0.00    +0.000 HD
ENDBRANCH   7   9
BRANCH   1  25
ATOM     22  C   UNL     1       7.846   8.109  17.777  0.00  0.00    +0.000 A 
ATOM     23  C   UNL     1       8.142   6.961  18.516  0.00  0.00    +0.000 A 
ATOM     24  C   UNL     1       7.282   5.859  18.496  0.00  0.00    +0.000 A 
ATOM     25  C   UNL     1       6.103   5.895  17.748  0.00  0.00    +0.000 A 
ATOM     26  C   UNL     1       5.768   7.074  17.075  0.00  0.00    +0.000 A 
ATOM     27  C   UNL     1       6.649   8.160  17.059  0.00  0.00    +0.000 A 
BRANCH  22  30
ATOM     28  C   UNL     1       9.064  10.005  18.826  0.00  0.00    +0.000 C 
ATOM     29  O   UNL     1       8.819   9.772  20.001  0.00  0.00    +0.000 OA
ATOM     30  N   UNL     1       8.679   9.245  17.739  0.00  0.00    +0.000 N 
ATOM     31  H   UNL     1       9.056   9.493  16.834  0.00  0.00    +0.000 HD
BRANCH  28  33
ATOM     32  C   UNL     1      11.006  11.453  19.126  0.00  0.00    +0.000 C 
ATOM     33  C   UNL     1       9.885  11.184  18.443  0.00  0.00    +0.000 C 
ENDBRANCH  28  33
ENDBRANCH  22  30
ENDBRANCH   1  25
TORSDOF 4
ENDMDL
MODEL 3
REMARK VINA RESULT:      -8.4      0.950      1.013
REMARK  Name = 
REMARK  5 active torsions:
REMARK  status: ('A' for Active; 'I' for Inactive)
REMARK    1  A    between atoms: C_2  and  C_3
REMARK    2  A    between atoms: N_5  and  C_6
REMARK    3  A    between atoms: C_9  and  C_10
REMARK    4  A    between atoms: C_16  and  N_17
REMARK    5  A    between atoms: C_24  and  C_25
REMARK                            x       y       z     vdW  Elec       q    Type
REMARK                         _______ _______ _______ _____ _____    ______ ____
ROOT
ATOM      1  C   UNL     1       6.660   5.730  17.081  0.00  0.00    +0.000 C 
ATOM      2  O   UNL     1       7.174   5.252  16.068  0.00  0.00    +0.000 OA
ATOM      3  N   UNL     1       5.480   5.216  17.624  0.00  0.00    +0.000 N 
ATOM      4  C   UNL     1       5.012   3.920  17.145  0.00  0.00    +0.000 C 
ATOM      5  C   UNL     1       3.533   3.963  16.790  0.00  0.00    +0.000 C 
ATOM      6  C   UNL     1       2.690   4.526  17.939  0.00  0.00    +0.000 C 
ATOM      7  C   UNL     1       3.198   5.914  18.412  0.00  0.00    +0.000 C 
ATOM      8  C   UNL     1       4.697   5.817  18.711  0.00  0.00    +0.000 C 
ENDROOT
BRANCH   7   9
ATOM      9  N   UNL     1       2.452   6.318  19.588  0.00  0.00    +0.000 N 
ATOM     10  C   UNL     1       1.782   7.482  19.860  0.00  0.00    +0.000 A 
ATOM     11  N   UNL     1       1.217   7.446  21.075  0.00  0.00    +0.000 NA
ATOM     12  C   UNL     1       0.642   8.579  21.516  0.00  0.00    +0.000 A 
ATOM     13  C   UNL     1       0.572   9.749  20.802  0.00  0.00    +0.000 A 
ATOM     14  C   UNL     1       0.003  10.910  21.358  0.00  0.00    +0.000 A 
ATOM     15  C   UNL     1      -0.076  12.077  20.617  0.00  0.00    +0.000 A 
ATOM     16  C   UNL     1       0.389  12.088  19.303  0.00  0.00    +0.000 A 
ATOM     17  C   UNL     1       0.250  13.361  18.504  0.00  0.00    +0.000 C 
ATOM     18  C   UNL     1       0.969  10.901  18.771  0.00  0.00    +0.000 A 
ATOM     19  C   UNL     1       1.112   9.705  19.511  0.00  0.00    +0.000 A 
ATOM     20  N   UNL     1       1.729   8.561  19.055  0.00  0.00    +0.000 NA
ATOM     21  H   UNL     1       2.212   5.609  20.276  0.00  0.00    +0.000 HD
ENDBRANCH   7   9
BRANCH   1  25
ATOM     22  C   UNL     1       8.665   9.154  18.758  0.00  0.00    +0.000 A 
ATOM     23  C   UNL     1       7.865   9.262  17.618  0.00  0.00    +0.000 A 
ATOM     24  C   UNL     1       7.208   8.141  17.099  0.00  0.00    +0.000 A 
ATOM     25  C   UNL     1       7.356   6.891  17.704  0.00  0.00    +0.000 A 
ATOM     26  C   UNL     1       8.222   6.769  18.796  0.00  0.00    +0.000 A 
ATOM     27  C   UNL     1       8.843   7.897  19.342  0.00  0.00    +0.000 A 
BRANCH  22  30
ATOM     28  C   UNL     1      10.208  11.101  18.697  0.00  0.00    +0.000 C 
ATOM     29  O   UNL     1      10.474  11.106  17.503  0.00  0.00    +0.000 OA
ATOM     30  N   UNL     1       9.337  10.246  19.342  0.00  0.00    +0.000 N 
ATOM     31  H   UNL     1       9.124  10.435  20.312  0.00  0.00    +0.000 HD
BRANCH  28  33
ATOM     32  C   UNL     1      12.120  12.035  19.893  0.00  0.00    +0.000 C 
ATOM     33  C   UNL     1      10.812  12.107  19.610  0.00  0.00    +0.000 C 
ENDBRANCH  28  33
ENDBRANCH  22  30
ENDBRANCH   1  25
TORSDOF 4
ENDMDL
MODEL 4
REMARK VINA RESULT:      -8.2      4.947     10.080
REMARK  Name = 
REMARK  5 active torsions:
REMARK  status: ('A' for Active; 'I' for Inactive)
REMARK    1  A    between atoms: C_2  and  C_3
REMARK    2  A    between atoms: N_5  and  C_6
REMARK    3  A    between atoms: C_9  and  C_10
REMARK    4  A    between atoms: C_16  and  N_17
REMARK    5  A    between atoms: C_24  and  C_25
REMARK                            x       y       z     vdW  Elec       q    Type
REMARK                         _______ _______ _______ _____ _____    ______ ____
ROOT
ATOM      1  C   UNL     1      -2.195  11.256  18.939  0.00  0.00    +0.000 C 
ATOM      2  O   UNL     1      -2.845  12.035  19.639  0.00  0.00    +0.000 OA
ATOM      3  N   UNL     1      -0.999  10.686  19.383  0.00  0.00    +0.000 N 
ATOM      4  C   UNL     1      -0.670  10.797  20.800  0.00  0.00    +0.000 C 
ATOM      5  C   UNL     1       0.762  11.272  21.001  0.00  0.00    +0.000 C 
ATOM      6  C   UNL     1       1.759  10.418  20.211  0.00  0.00    +0.000 C 
ATOM      7  C   UNL     1       1.396  10.336  18.704  0.00  0.00    +0.000 C 
ATOM      8  C   UNL     1      -0.065   9.897  18.570  0.00  0.00    +0.000 C 
ENDROOT
BRANCH   7   9
ATOM      9  N   UNL     1       2.290   9.401  18.050  0.00  0.00    +0.000 N 
ATOM     10  C   UNL     1       2.528   8.075  18.301  0.00  0.00    +0.000 A 
ATOM     11  N   UNL     1       3.436   7.575  17.453  0.00  0.00    +0.000 NA
ATOM     12  C   UNL     1       3.857   6.317  17.679  0.00  0.00    +0.000 A 
ATOM     13  C   UNL     1       3.403   5.511  18.692  0.00  0.00    +0.000 A 
ATOM     14  C   UNL     1       3.936   4.224  18.897  0.00  0.00    +0.000 A 
ATOM     15  C   UNL     1       3.454   3.418  19.913  0.00  0.00    +0.000 A 
ATOM     16  C   UNL     1       2.415   3.878  20.719  0.00  0.00    +0.000 A 
ATOM     17  C   UNL     1       1.878   2.961  21.792  0.00  0.00    +0.000 C 
ATOM     18  C   UNL     1       1.902   5.189  20.496  0.00  0.00    +0.000 A 
ATOM     19  C   UNL     1       2.401   6.060  19.500  0.00  0.00    +0.000 A 
ATOM     20  N   UNL     1       1.979   7.356  19.301  0.00  0.00    +0.000 NA
ATOM     21  H   UNL     1       2.700   9.665  17.159  0.00  0.00    +0.000 HD
ENDBRANCH   7   9
BRANCH   1  25
ATOM     22  C   UNL     1      -3.906  10.408  15.078  0.00  0.00    +0.000 A 
ATOM     23  C   UNL     1      -4.516  11.294  15.969  0.00  0.00    +0.000 A 
ATOM     24  C   UNL     1      -3.936  11.569  17.211  0.00  0.00    +0.000 A 
ATOM     25  C   UNL     1      -2.742  10.949  17.588  0.00  0.00    +0.000 A 
ATOM     26  C   UNL     1      -2.176  10.001  16.729  0.00  0.00    +0.000 A 
ATOM     27  C   UNL     1      -2.732   9.760  15.469  0.00  0.00    +0.000 A 
BRANCH  22  30
ATOM     28  C   UNL     1      -3.693   9.751  12.691  0.00  0.00    +0.000 C 
ATOM     29  O   UNL     1      -2.486   9.562  12.644  0.00  0.00    +0.000 OA
ATOM     30  N   UNL     1      -4.428  10.103  13.805  0.00  0.00    +0.000 N 
ATOM     31  H   UNL     1      -5.436  10.108  13.723  0.00  0.00    +0.000 HD
BRANCH  28  33
ATOM     32  C   UNL     1      -5.857   9.393  11.618  0.00  0.00    +0.000 C 
ATOM     33  C   UNL     1      -4.535   9.567  11.480  0.00  0.00    +0.000 C 
ENDBRANCH  28  33
ENDBRANCH  22  30
ENDBRANCH   1  25
TORSDOF 4
ENDMDL
MODEL 5
REMARK VINA RESULT:      -8.1      4.084      7.715
REMARK  Name = 
REMARK  5 active torsions:
REMARK  status: ('A' for Active; 'I' for Inactive)
REMARK    1  A    between atoms: C_2  and  C_3
REMARK    2  A    between atoms: N_5  and  C_6
REMARK    3  A    between atoms: C_9  and  C_10
REMARK    4  A    between atoms: C_16  and  N_17
REMARK    5  A    between atoms: C_24  and  C_25
REMARK                            x       y       z     vdW  Elec       q    Type
REMARK                         _______ _______ _______ _____ _____    ______ ____
ROOT
ATOM      1  C   UNL     1       1.169  13.826  19.175  0.00  0.00    +0.000 C 
ATOM      2  O   UNL     1       0.329  14.537  19.728  0.00  0.00    +0.000 OA
ATOM      3  N   UNL     1       0.851  12.563  18.668  0.00  0.00    +0.000 N 
ATOM      4  C   UNL     1      -0.559  12.210  18.542  0.00  0.00    +0.000 C 
ATOM      5  C   UNL     1      -0.840  10.834  19.127  0.00  0.00    +0.000 C 
ATOM      6  C   UNL     1       0.105   9.772  18.557  0.00  0.00    +0.000 C 
ATOM      7  C   UNL     1       1.597  10.164  18.726  0.00  0.00    +0.000 C 
ATOM      8  C   UNL     1       1.807  11.571  18.159  0.00  0.00    +0.000 C 
ENDROOT
BRANCH   7   9
ATOM      9  N   UNL     1       2.425   9.191  18.038  0.00  0.00    +0.000 N 
ATOM     10  C   UNL     1       2.616   7.857  18.281  0.00  0.00    +0.000 A 
ATOM     11  N   UNL     1       3.469   7.319  17.399  0.00  0.00    +0.000 NA
ATOM     12  C   UNL     1       3.844   6.045  17.609  0.00  0.00    +0.000 A 
ATOM     13  C   UNL     1       3.396   5.258  18.640  0.00  0.00    +0.000 A 
ATOM     14  C   UNL     1       3.881   3.949  18.825  0.00  0.00    +0.000 A 
ATOM     15  C   UNL     1       3.404   3.163  19.859  0.00  0.00    +0.000 A 
ATOM     16  C   UNL     1       2.416   3.666  20.704  0.00  0.00    +0.000 A 
ATOM     17  C   UNL     1       1.883   2.772  21.797  0.00  0.00    +0.000 C 
ATOM     18  C   UNL     1       1.952   4.997  20.500  0.00  0.00    +0.000 A 
ATOM     19  C   UNL     1       2.449   5.848  19.485  0.00  0.00    +0.000 A 
ATOM     20  N   UNL     1       2.075   7.160  19.301  0.00  0.00    +0.000 NA
ATOM     21  H   UNL     1       2.812   9.439  17.132  0.00  0.00    +0.000 HD
ENDBRANCH   7   9
BRANCH   1  25
ATOM     22  C   UNL     1       5.161  15.438  19.019  0.00  0.00    +0.000 A 
ATOM     23  C   UNL     1       4.600  14.989  20.218  0.00  0.00    +0.000 A 
ATOM     24  C   UNL     1       3.309  14.453  20.244  0.00  0.00    +0.000 A 
ATOM     25  C   UNL     1       2.552  14.373  19.073  0.00  0.00    +0.000 A 
ATOM     26  C   UNL     1       3.083  14.897  17.890  0.00  0.00    +0.000 A 
ATOM     27  C   UNL     1       4.390  15.392  17.855  0.00  0.00    +0.000 A 
BRANCH  22  30
ATOM     28  C   UNL     1       6.821  17.282  19.158  0.00  0.00    +0.000 C 
ATOM     29  O   UNL     1       6.093  18.174  19.571  0.00  0.00    +0.000 OA
ATOM     30  N   UNL     1       6.462  15.970  18.921  0.00  0.00    +0.000 N 
ATOM     31  H   UNL     1       7.197  15.314  18.696  0.00  0.00    +0.000 HD
BRANCH  28  33
ATOM     32  C   UNL     1       9.116  16.512  18.844  0.00  0.00    +0.000 C 
ATOM     33  C   UNL     1       8.261  17.542  18.894  0.00  0.00    +0.000 C 
ENDBRANCH  28  33
ENDBRANCH  22  30
ENDBRANCH   1  25
TORSDOF 4
ENDMDL
MODEL 6
REMARK VINA RESULT:      -8.1      3.692      7.505
REMARK  Name = 
REMARK  5 active torsions:
REMARK  status: ('A' for Active; 'I' for Inactive)
REMARK    1  A    between atoms: C_2  and  C_3
REMARK    2  A    between atoms: N_5  and  C_6
REMARK    3  A    between atoms: C_9  and  C_10
REMARK    4  A    between atoms: C_16  and  N_17
REMARK    5  A    between atoms: C_24  and  C_25
REMARK                            x       y       z     vdW  Elec       q    Type
REMARK                         _______ _______ _______ _____ _____    ______ ____
ROOT
ATOM      1  C   UNL     1       1.176  13.946  19.214  0.00  0.00    +0.000 C 
ATOM      2  O   UNL     1       0.334  14.658  19.763  0.00  0.00    +0.000 OA
ATOM      3  N   UNL     1       0.849  12.704  18.665  0.00  0.00    +0.000 N 
ATOM      4  C   UNL     1      -0.563  12.381  18.491  0.00  0.00    +0.000 C 
ATOM      5  C   UNL     1      -0.885  10.995  19.030  0.00  0.00    +0.000 C 
ATOM      6  C   UNL     1       0.057   9.931  18.456  0.00  0.00    +0.000 C 
ATOM      7  C   UNL     1       1.550  10.290  18.676  0.00  0.00    +0.000 C 
ATOM      8  C   UNL     1       1.800  11.708  18.154  0.00  0.00    +0.000 C 
ENDROOT
BRANCH   7   9
ATOM      9  N   UNL     1       2.379   9.322  17.984  0.00  0.00    +0.000 N 
ATOM     10  C   UNL     1       2.589   7.991  18.236  0.00  0.00    +0.000 A 
ATOM     11  N   UNL     1       3.435   7.456  17.345  0.00  0.00    +0.000 NA
ATOM     12  C   UNL     1       3.828   6.188  17.561  0.00  0.00    +0.000 A 
ATOM     13  C   UNL     1       3.404   5.405  18.605  0.00  0.00    +0.000 A 
ATOM     14  C   UNL     1       3.907   4.104  18.794  0.00  0.00    +0.000 A 
ATOM     15  C   UNL     1       3.455   3.321  19.842  0.00  0.00    +0.000 A 
ATOM     16  C   UNL     1       2.474   3.820  20.697  0.00  0.00    +0.000 A 
ATOM     17  C   UNL     1       1.967   2.929  21.806  0.00  0.00    +0.000 C 
ATOM     18  C   UNL     1       1.991   5.144  20.489  0.00  0.00    +0.000 A 
ATOM     19  C   UNL     1       2.463   5.991  19.459  0.00  0.00    +0.000 A 
ATOM     20  N   UNL     1       2.071   7.298  19.269  0.00  0.00    +0.000 NA
ATOM     21  H   UNL     1       2.750   9.566  17.070  0.00  0.00    +0.000 HD
ENDBRANCH   7   9
BRANCH   1  25
ATOM     22  C   UNL     1       5.206  15.442  18.931  0.00  0.00    +0.000 A 
ATOM     23  C   UNL     1       4.340  15.460  17.834  0.00  0.00    +0.000 A 
ATOM     24  C   UNL     1       3.030  14.986  17.951  0.00  0.00    +0.000 A 
ATOM     25  C   UNL     1       2.570  14.470  19.165  0.00  0.00    +0.000 A 
ATOM     26  C   UNL     1       3.462  14.377  20.238  0.00  0.00    +0.000 A 
ATOM     27  C   UNL     1       4.758  14.891  20.134  0.00  0.00    +0.000 A 
BRANCH  22  30
ATOM     28  C   UNL     1       7.611  15.266  18.330  0.00  0.00    +0.000 C 
ATOM     29  O   UNL     1       7.585  14.208  17.716  0.00  0.00    +0.000 OA
ATOM     30  N   UNL     1       6.530  15.922  18.884  0.00  0.00    +0.000 N 
ATOM     31  H   UNL     1       6.682  16.849  19.258  0.00  0.00    +0.000 HD
BRANCH  28  33
ATOM     32  C   UNL     1       8.941  17.309  18.205  0.00  0.00    +0.000 C 
ATOM     33  C   UNL     1       8.888  16.005  18.510  0.00  0.00    +0.000 C 
ENDBRANCH  28  33
ENDBRANCH  22  30
ENDBRANCH   1  25
TORSDOF 4
ENDMDL
MODEL 7
REMARK VINA RESULT:      -8.0      0.854      1.245
REMARK  Name = 
REMARK  5 active torsions:
REMARK  status: ('A' for Active; 'I' for Inactive)
REMARK    1  A    between atoms: C_2  and  C_3
REMARK    2  A    between atoms: N_5  and  C_6
REMARK    3  A    between atoms: C_9  and  C_10
REMARK    4  A    between atoms: C_16  and  N_17
REMARK    5  A    between atoms: C_24  and  C_25
REMARK                            x       y       z     vdW  Elec       q    Type
REMARK                         _______ _______ _______ _____ _____    ______ ____
ROOT
ATOM      1  C   UNL     1       6.129   5.653  17.211  0.00  0.00    +0.000 C 
ATOM      2  O   UNL     1       6.465   5.041  16.196  0.00  0.00    +0.000 OA
ATOM      3  N   UNL     1       4.994   5.300  17.946  0.00  0.00    +0.000 N 
ATOM      4  C   UNL     1       4.365   4.015  17.661  0.00  0.00    +0.000 C 
ATOM      5  C   UNL     1       2.860   4.161  17.489  0.00  0.00    +0.000 C 
ATOM      6  C   UNL     1       2.224   4.900  18.671  0.00  0.00    +0.000 C 
ATOM      7  C   UNL     1       2.898   6.272  18.936  0.00  0.00    +0.000 C 
ATOM      8  C   UNL     1       4.411   6.065  19.055  0.00  0.00    +0.000 C 
ENDROOT
BRANCH   7   9
ATOM      9  N   UNL     1       2.348   6.846  20.149  0.00  0.00    +0.000 N 
ATOM     10  C   UNL     1       1.653   8.010  20.346  0.00  0.00    +0.000 A 
ATOM     11  N   UNL     1       1.321   8.166  21.634  0.00  0.00    +0.000 NA
ATOM     12  C   UNL     1       0.752   9.334  21.982  0.00  0.00    +0.000 A 
ATOM     13  C   UNL     1       0.467  10.355  21.110  0.00  0.00    +0.000 A 
ATOM     14  C   UNL     1      -0.079  11.571  21.562  0.00  0.00    +0.000 A 
ATOM     15  C   UNL     1      -0.378  12.583  20.667  0.00  0.00    +0.000 A 
ATOM     16  C   UNL     1      -0.160  12.381  19.305  0.00  0.00    +0.000 A 
ATOM     17  C   UNL     1      -0.535  13.485  18.346  0.00  0.00    +0.000 C 
ATOM     18  C   UNL     1       0.403  11.144  18.877  0.00  0.00    +0.000 A 
ATOM     19  C   UNL     1       0.766  10.105  19.766  0.00  0.00    +0.000 A 
ATOM     20  N   UNL     1       1.374   8.926  19.397  0.00  0.00    +0.000 NA
ATOM     21  H   UNL     1       2.290   6.261  20.978  0.00  0.00    +0.000 HD
ENDBRANCH   7   9
BRANCH   1  25
ATOM     22  C   UNL     1       8.641   8.895  18.529  0.00  0.00    +0.000 A 
ATOM     23  C   UNL     1       8.722   7.626  19.107  0.00  0.00    +0.000 A 
ATOM     24  C   UNL     1       7.910   6.582  18.653  0.00  0.00    +0.000 A 
ATOM     25  C   UNL     1       6.991   6.796  17.624  0.00  0.00    +0.000 A 
ATOM     26  C   UNL     1       6.853   8.087  17.102  0.00  0.00    +0.000 A 
ATOM     27  C   UNL     1       7.696   9.119  17.525  0.00  0.00    +0.000 A 
BRANCH  22  30
ATOM     28  C   UNL     1       9.397  10.621  20.149  0.00  0.00    +0.000 C 
ATOM     29  O   UNL     1       8.719  10.297  21.115  0.00  0.00    +0.000 OA
ATOM     30  N   UNL     1       9.443   9.983  18.926  0.00  0.00    +0.000 N 
ATOM     31  H   UNL     1      10.140  10.291  18.260  0.00  0.00    +0.000 HD
BRANCH  28  33
ATOM     32  C   UNL     1      11.199  11.993  19.240  0.00  0.00    +0.000 C 
ATOM     33  C   UNL     1      10.320  11.783  20.229  0.00  0.00    +0.000 C 
ENDBRANCH  28  33
ENDBRANCH  22  30
ENDBRANCH   1  25
TORSDOF 4
ENDMDL
MODEL 8
REMARK VINA RESULT:      -8.0      3.791      8.393
REMARK  Name = 
REMARK  5 active torsions:
REMARK  status: ('A' for Active; 'I' for Inactive)
REMARK    1  A    between atoms: C_2  and  C_3
REMARK    2  A    between atoms: N_5  and  C_6
REMARK    3  A    between atoms: C_9  and  C_10
REMARK    4  A    between atoms: C_16  and  N_17
REMARK    5  A    between atoms: C_24  and  C_25
REMARK                            x       y       z     vdW  Elec       q    Type
REMARK                         _______ _______ _______ _____ _____    ______ ____
ROOT
ATOM      1  C   UNL     1       1.921   5.724  19.971  0.00  0.00    +0.000 C 
ATOM      2  O   UNL     1       1.132   5.192  20.755  0.00  0.00    +0.000 OA
ATOM      3  N   UNL     1       2.941   5.003  19.347  0.00  0.00    +0.000 N 
ATOM      4  C   UNL     1       2.889   3.547  19.408  0.00  0.00    +0.000 C 
ATOM      5  C   UNL     1       4.230   2.961  19.825  0.00  0.00    +0.000 C 
ATOM      6  C   UNL     1       5.375   3.492  18.956  0.00  0.00    +0.000 C 
ATOM      7  C   UNL     1       5.419   5.042  18.927  0.00  0.00    +0.000 C 
ATOM      8  C   UNL     1       4.034   5.570  18.545  0.00  0.00    +0.000 C 
ENDROOT
BRANCH   7   9
ATOM      9  N   UNL     1       6.427   5.472  17.977  0.00  0.00    +0.000 N 
ATOM     10  C   UNL     1       6.506   5.287  16.622  0.00  0.00    +0.000 A 
ATOM     11  N   UNL     1       7.611   5.854  16.118  0.00  0.00    +0.000 NA
ATOM     12  C   UNL     1       7.875   5.630  14.818  0.00  0.00    +0.000 A 
ATOM     13  C   UNL     1       7.083   4.891  13.976  0.00  0.00    +0.000 A 
ATOM     14  C   UNL     1       7.459   4.655  12.640  0.00  0.00    +0.000 A 
ATOM     15  C   UNL     1       6.639   3.922  11.799  0.00  0.00    +0.000 A 
ATOM     16  C   UNL     1       5.422   3.440  12.277  0.00  0.00    +0.000 A 
ATOM     17  C   UNL     1       4.528   2.681  11.326  0.00  0.00    +0.000 C 
ATOM     18  C   UNL     1       5.073   3.684  13.636  0.00  0.00    +0.000 A 
ATOM     19  C   UNL     1       5.905   4.387  14.538  0.00  0.00    +0.000 A 
ATOM     20  N   UNL     1       5.633   4.583  15.874  0.00  0.00    +0.000 NA
ATOM     21  H   UNL     1       7.112   6.161  18.275  0.00  0.00    +0.000 HD
ENDBRANCH   7   9
BRANCH   1  25
ATOM     22  C   UNL     1       1.306   9.943  19.354  0.00  0.00    +0.000 A 
ATOM     23  C   UNL     1       1.051   9.340  20.589  0.00  0.00    +0.000 A 
ATOM     24  C   UNL     1       1.274   7.972  20.774  0.00  0.00    +0.000 A 
ATOM     25  C   UNL     1       1.739   7.182  19.720  0.00  0.00    +0.000 A 
ATOM     26  C   UNL     1       1.916   7.770  18.464  0.00  0.00    +0.000 A 
ATOM     27  C   UNL     1       1.736   9.146  18.291  0.00  0.00    +0.000 A 
BRANCH  22  30
ATOM     28  C   UNL     1      -0.065  11.924  18.747  0.00  0.00    +0.000 C 
ATOM     29  O   UNL     1      -1.162  11.390  18.665  0.00  0.00    +0.000 OA
ATOM     30  N   UNL     1       1.121  11.318  19.108  0.00  0.00    +0.000 N 
ATOM     31  H   UNL     1       1.929  11.910  19.251  0.00  0.00    +0.000 HD
BRANCH  28  33
ATOM     32  C   UNL     1       1.246  13.984  18.787  0.00  0.00    +0.000 C 
ATOM     33  C   UNL     1       0.088  13.380  18.485  0.00  0.00    +0.000 C 
ENDBRANCH  28  33
ENDBRANCH  22  30
ENDBRANCH   1  25
TORSDOF 4
ENDMDL
MODEL 9
REMARK VINA RESULT:      -7.6      3.680      5.931
REMARK  Name = 
REMARK  5 active torsions:
REMARK  status: ('A' for Active; 'I' for Inactive)
REMARK    1  A    between atoms: C_2  and  C_3
REMARK    2  A    between atoms: N_5  and  C_6
REMARK    3  A    between atoms: C_9  and  C_10
REMARK    4  A    between atoms: C_16  and  N_17
REMARK    5  A    between atoms: C_24  and  C_25
REMARK                            x       y       z     vdW  Elec       q    Type
REMARK                         _______ _______ _______ _____ _____    ______ ____
ROOT
ATOM      1  C   UNL     1       1.809   6.115  20.276  0.00  0.00    +0.000 C 
ATOM      2  O   UNL     1       1.273   5.288  21.015  0.00  0.00    +0.000 OA
ATOM      3  N   UNL     1       1.597   7.488  20.427  0.00  0.00    +0.000 N 
ATOM      4  C   UNL     1       0.959   7.953  21.653  0.00  0.00    +0.000 C 
ATOM      5  C   UNL     1      -0.173   8.926  21.355  0.00  0.00    +0.000 C 
ATOM      6  C   UNL     1       0.287  10.066  20.440  0.00  0.00    +0.000 C 
ATOM      7  C   UNL     1       0.941   9.542  19.134  0.00  0.00    +0.000 C 
ATOM      8  C   UNL     1       2.039   8.537  19.499  0.00  0.00    +0.000 C 
ENDROOT
BRANCH   7   9
ATOM      9  N   UNL     1       1.481  10.663  18.390  0.00  0.00    +0.000 N 
ATOM     10  C   UNL     1       1.752  11.946  18.787  0.00  0.00    +0.000 A 
ATOM     11  N   UNL     1       2.251  12.672  17.777  0.00  0.00    +0.000 NA
ATOM     12  C   UNL     1       2.435  13.985  18.001  0.00  0.00    +0.000 A 
ATOM     13  C   UNL     1       2.175  14.620  19.190  0.00  0.00    +0.000 A 
ATOM     14  C   UNL     1       2.341  16.011  19.327  0.00  0.00    +0.000 A 
ATOM     15  C   UNL     1       2.091  16.632  20.539  0.00  0.00    +0.000 A 
ATOM     16  C   UNL     1       1.699  15.865  21.634  0.00  0.00    +0.000 A 
ATOM     17  C   UNL     1       1.476  16.561  22.955  0.00  0.00    +0.000 C 
ATOM     18  C   UNL     1       1.529  14.461  21.464  0.00  0.00    +0.000 A 
ATOM     19  C   UNL     1       1.728  13.797  20.231  0.00  0.00    +0.000 A 
ATOM     20  N   UNL     1       1.507  12.456  20.010  0.00  0.00    +0.000 NA
ATOM     21  H   UNL     1       1.897  10.485  17.479  0.00  0.00    +0.000 HD
ENDBRANCH   7   9
BRANCH   1  25
ATOM     22  C   UNL     1       4.277   4.483  17.145  0.00  0.00    +0.000 A 
ATOM     23  C   UNL     1       2.892   4.302  17.153  0.00  0.00    +0.000 A 
ATOM     24  C   UNL     1       2.106   4.855  18.169  0.00  0.00    +0.000 A 
ATOM     25  C   UNL     1       2.697   5.584  19.203  0.00  0.00    +0.000 A 
ATOM     26  C   UNL     1       4.091   5.696  19.238  0.00  0.00    +0.000 A 
ATOM     27  C   UNL     1       4.872   5.181  18.198  0.00  0.00    +0.000 A 
BRANCH  22  30
ATOM     28  C   UNL     1       5.638   4.679  15.075  0.00  0.00    +0.000 C 
ATOM     29  O   UNL     1       5.520   5.880  14.873  0.00  0.00    +0.000 OA
ATOM     30  N   UNL     1       5.122   3.970  16.141  0.00  0.00    +0.000 N 
ATOM     31  H   UNL     1       5.402   3.004  16.243  0.00  0.00    +0.000 HD
BRANCH  28  33
ATOM     32  C   UNL     1       6.018   3.671  12.885  0.00  0.00    +0.000 C 
ATOM     33  C   UNL     1       6.434   3.832  14.149  0.00  0.00    +0.000 C 
ENDBRANCH  28  33
ENDBRANCH  22  30
ENDBRANCH   1  25
TORSDOF 4
ENDMDL
