MODEL 1
REMARK VINA RESULT:      -7.4      0.000      0.000
REMARK  Name = 
REMARK  6 active torsions:
REMARK  status: ('A' for Active; 'I' for Inactive)
REMARK    1  A    between atoms: C_1  and  O_2
REMARK    2  A    between atoms: O_2  and  C_3
REMARK    3  A    between atoms: C_5  and  N_6
REMARK    4  A    between atoms: N_6  and  C_7
REMARK    5  A    between atoms: C_7  and  C_8
REMARK    6  A    between atoms: C_17  and  C_18
REMARK                            x       y       z     vdW  Elec       q    Type
REMARK                         _______ _______ _______ _____ _____    ______ ____
ROOT
ATOM      1  C   UNL     1       2.093   8.003  19.174  0.00  0.00    +0.000 A 
ATOM      2  C   UNL     1       2.670   7.119  18.246  0.00  0.00    +0.000 A 
ATOM      3  C   UNL     1       2.783   5.748  18.500  0.00  0.00    +0.000 A 
ATOM      4  C   UNL     1       2.457   5.299  19.777  0.00  0.00    +0.000 A 
ATOM      5  C   UNL     1       1.922   6.174  20.729  0.00  0.00    +0.000 A 
ATOM      6  C   UNL     1       1.708   7.534  20.444  0.00  0.00    +0.000 A 
ENDROOT
BRANCH   6   7
ATOM      7  C   UNL     1       1.079   8.385  21.454  0.00  0.00    +0.000 A 
ATOM      8  C   UNL     1       1.494   9.273  22.426  0.00  0.00    +0.000 A 
ATOM      9  N   UNL     1       0.415   9.822  23.077  0.00  0.00    +0.000 NA
ATOM     10  C   UNL     1      -0.611   9.258  22.484  0.00  0.00    +0.000 A 
ATOM     11  O   UNL     1      -0.296   8.380  21.498  0.00  0.00    +0.000 OA
ENDBRANCH   6   7
BRANCH   1  13
ATOM     12  C   UNL     1       0.807   9.632  18.037  0.00  0.00    +0.000 C 
ATOM     13  O   UNL     1       1.919   9.336  18.882  0.00  0.00    +0.000 OA
ENDBRANCH   1  13
BRANCH   3  14
ATOM     14  N   UNL     1       3.317   4.931  17.506  0.00  0.00    +0.000 N 
ATOM     15  H   UNL     1       2.655   4.241  17.160  0.00  0.00    +0.000 HD
BRANCH  14  16
ATOM     16  C   UNL     1       4.652   4.360  17.674  0.00  0.00    +0.000 C 
BRANCH  16  17
ATOM     17  C   UNL     1       5.500   4.554  16.446  0.00  0.00    +0.000 A 
ATOM     18  C   UNL     1       5.191   3.972  15.208  0.00  0.00    +0.000 A 
ATOM     19  C   UNL     1       6.022   4.166  14.113  0.00  0.00    +0.000 A 
ATOM     20  C   UNL     1       7.153   4.947  14.278  0.00  0.00    +0.000 A 
ATOM     21  N   UNL     1       7.491   5.531  15.449  0.00  0.00    +0.000 NA
ATOM     22  C   UNL     1       6.662   5.322  16.495  0.00  0.00    +0.000 A 
ATOM     23 CL   UNL     1       7.193   6.110  17.932  0.00  0.00    +0.000 Cl
ENDBRANCH  16  17
ENDBRANCH  14  16
ENDBRANCH   3  14
TORSDOF 5
ENDMDL
MODEL 2
REMARK VINA RESULT:      -7.3      1.285      1.911
REMARK  Name = 
REMARK  6 active torsions:
REMARK  status: ('A' for Active; 'I' for Inactive)
REMARK    1  A    between atoms: C_1  and  O_2
REMARK    2  A    between atoms: O_2  and  C_3
REMARK    3  A    between atoms: C_5  and  N_6
REMARK    4  A    between atoms: N_6  and  C_7
REMARK    5  A    between atoms: C_7  and  C_8
REMARK    6  A    between atoms: C_17  and  C_18
REMARK                            x       y       z     vdW  Elec       q    Type
REMARK                         _______ _______ _______ _____ _____    ______ ____
ROOT
ATOM      1  C   UNL     1       2.015   7.875  19.184  0.00  0.00    +0.000 A 
ATOM      2  C   UNL     1       2.508   6.952  18.246  0.00  0.00    +0.000 A 
ATOM      3  C   UNL     1       2.520   5.577  18.494  0.00  0.00    +0.000 A 
ATOM      4  C   UNL     1       2.180   5.149  19.775  0.00  0.00    +0.000 A 
ATOM      5  C   UNL     1       1.728   6.059  20.738  0.00  0.00    +0.000 A 
ATOM      6  C   UNL     1       1.615   7.432  20.459  0.00  0.00    +0.000 A 
ENDROOT
BRANCH   6   7
ATOM      7  C   UNL     1       1.068   8.326  21.480  0.00  0.00    +0.000 A 
ATOM      8  C   UNL     1       1.563   9.206  22.421  0.00  0.00    +0.000 A 
ATOM      9  N   UNL     1       0.538   9.814  23.106  0.00  0.00    +0.000 NA
ATOM     10  C   UNL     1      -0.537   9.291  22.565  0.00  0.00    +0.000 A 
ATOM     11  O   UNL     1      -0.303   8.385  21.580  0.00  0.00    +0.000 OA
ENDBRANCH   6   7
BRANCH   1  13
ATOM     12  C   UNL     1       0.865   9.596  18.037  0.00  0.00    +0.000 C 
ATOM     13  O   UNL     1       1.939   9.218  18.898  0.00  0.00    +0.000 OA
ENDBRANCH   1  13
BRANCH   3  14
ATOM     14  N   UNL     1       2.975   4.724  17.491  0.00  0.00    +0.000 N 
ATOM     15  H   UNL     1       2.223   4.227  17.020  0.00  0.00    +0.000 HD
BRANCH  14  16
ATOM     16  C   UNL     1       4.124   3.855  17.741  0.00  0.00    +0.000 C 
BRANCH  16  17
ATOM     17  C   UNL     1       5.397   4.643  17.890  0.00  0.00    +0.000 A 
ATOM     18  C   UNL     1       5.950   4.966  19.139  0.00  0.00    +0.000 A 
ATOM     19  C   UNL     1       7.116   5.716  19.218  0.00  0.00    +0.000 A 
ATOM     20  C   UNL     1       7.712   6.128  18.039  0.00  0.00    +0.000 A 
ATOM     21  N   UNL     1       7.220   5.839  16.814  0.00  0.00    +0.000 NA
ATOM     22  C   UNL     1       6.085   5.108  16.771  0.00  0.00    +0.000 A 
ATOM     23 CL   UNL     1       5.550   4.805  15.162  0.00  0.00    +0.000 Cl
ENDBRANCH  16  17
ENDBRANCH  14  16
ENDBRANCH   3  14
TORSDOF 5
ENDMDL
MODEL 3
REMARK VINA RESULT:      -7.2      1.706      2.839
REMARK  Name = 
REMARK  6 active torsions:
REMARK  status: ('A' for Active; 'I' for Inactive)
REMARK    1  A    between atoms: C_1  and  O_2
REMARK    2  A    between atoms: O_2  and  C_3
REMARK    3  A    between atoms: C_5  and  N_6
REMARK    4  A    between atoms: N_6  and  C_7
REMARK    5  A    between atoms: C_7  and  C_8
REMARK    6  A    between atoms: C_17  and  C_18
REMARK                            x       y       z     vdW  Elec       q    Type
REMARK                         _______ _______ _______ _____ _____    ______ ____
ROOT
ATOM      1  C   UNL     1       1.449   8.224  19.984  0.00  0.00    +0.000 A 
ATOM      2  C   UNL     1       2.186   7.028  19.995  0.00  0.00    +0.000 A 
ATOM      3  C   UNL     1       3.043   6.675  18.949  0.00  0.00    +0.000 A 
ATOM      4  C   UNL     1       3.026   7.468  17.805  0.00  0.00    +0.000 A 
ATOM      5  C   UNL     1       2.264   8.642  17.758  0.00  0.00    +0.000 A 
ATOM      6  C   UNL     1       1.481   9.056  18.849  0.00  0.00    +0.000 A 
ENDROOT
BRANCH   6   7
ATOM      7  C   UNL     1       0.763  10.329  18.770  0.00  0.00    +0.000 A 
ATOM      8  C   UNL     1      -0.534  10.743  18.542  0.00  0.00    +0.000 A 
ATOM      9  N   UNL     1      -0.627  12.113  18.622  0.00  0.00    +0.000 NA
ATOM     10  C   UNL     1       0.602  12.483  18.894  0.00  0.00    +0.000 A 
ATOM     11  O   UNL     1       1.498  11.469  18.998  0.00  0.00    +0.000 OA
ENDBRANCH   6   7
BRANCH   1  13
ATOM     12  C   UNL     1       1.381   9.123  22.172  0.00  0.00    +0.000 C 
ATOM     13  O   UNL     1       0.669   8.596  21.053  0.00  0.00    +0.000 OA
ENDBRANCH   1  13
BRANCH   3  14
ATOM     14  N   UNL     1       3.779   5.497  19.061  0.00  0.00    +0.000 N 
ATOM     15  H   UNL     1       3.456   4.896  19.815  0.00  0.00    +0.000 HD
BRANCH  14  16
ATOM     16  C   UNL     1       5.239   5.543  18.996  0.00  0.00    +0.000 C 
BRANCH  16  17
ATOM     17  C   UNL     1       5.745   5.252  17.609  0.00  0.00    +0.000 A 
ATOM     18  C   UNL     1       5.133   4.321  16.756  0.00  0.00    +0.000 A 
ATOM     19  C   UNL     1       5.656   4.075  15.494  0.00  0.00    +0.000 A 
ATOM     20  C   UNL     1       6.788   4.771  15.106  0.00  0.00    +0.000 A 
ATOM     21  N   UNL     1       7.411   5.678  15.890  0.00  0.00    +0.000 NA
ATOM     22  C   UNL     1       6.877   5.895  17.112  0.00  0.00    +0.000 A 
ATOM     23 CL   UNL     1       7.753   7.066  18.022  0.00  0.00    +0.000 Cl
ENDBRANCH  16  17
ENDBRANCH  14  16
ENDBRANCH   3  14
TORSDOF 5
ENDMDL
MODEL 4
REMARK VINA RESULT:      -7.1      1.905      2.875
REMARK  Name = 
REMARK  6 active torsions:
REMARK  status: ('A' for Active; 'I' for Inactive)
REMARK    1  A    between atoms: C_1  and  O_2
REMARK    2  A    between atoms: O_2  and  C_3
REMARK    3  A    between atoms: C_5  and  N_6
REMARK    4  A    between atoms: N_6  and  C_7
REMARK    5  A    between atoms: C_7  and  C_8
REMARK    6  A    between atoms: C_17  and  C_18
REMARK                            x       y       z     vdW  Elec       q    Type
REMARK                         _______ _______ _______ _____ _____    ______ ____
ROOT
ATOM      1  C   UNL     1       1.478   8.581  20.123  0.00  0.00    +0.000 A 
ATOM      2  C   UNL     1       2.057   7.301  20.138  0.00  0.00    +0.000 A 
ATOM      3  C   UNL     1       2.703   6.765  19.019  0.00  0.00    +0.000 A 
ATOM      4  C   UNL     1       2.615   7.473  17.823  0.00  0.00    +0.000 A 
ATOM      5  C   UNL     1       2.004   8.731  17.779  0.00  0.00    +0.000 A 
ATOM      6  C   UNL     1       1.445   9.321  18.926  0.00  0.00    +0.000 A 
ENDROOT
BRANCH   6   7
ATOM      7  C   UNL     1       0.884  10.669  18.835  0.00  0.00    +0.000 A 
ATOM      8  C   UNL     1       1.360  11.964  18.862  0.00  0.00    +0.000 A 
ATOM      9  N   UNL     1       0.335  12.864  18.692  0.00  0.00    +0.000 NA
ATOM     10  C   UNL     1      -0.721  12.095  18.566  0.00  0.00    +0.000 A 
ATOM     11  O   UNL     1      -0.475  10.762  18.642  0.00  0.00    +0.000 OA
ENDBRANCH   6   7
BRANCH   1  13
ATOM     12  C   UNL     1      -0.314   8.529  21.667  0.00  0.00    +0.000 C 
ATOM     13  O   UNL     1       0.914   9.126  21.252  0.00  0.00    +0.000 OA
ENDBRANCH   1  13
BRANCH   3  14
ATOM     14  N   UNL     1       3.297   5.511  19.133  0.00  0.00    +0.000 N 
ATOM     15  H   UNL     1       2.795   4.887  19.760  0.00  0.00    +0.000 HD
BRANCH  14  16
ATOM     16  C   UNL     1       4.745   5.406  19.313  0.00  0.00    +0.000 C 
BRANCH  16  17
ATOM     17  C   UNL     1       5.439   5.019  18.034  0.00  0.00    +0.000 A 
ATOM     18  C   UNL     1       4.753   4.520  16.917  0.00  0.00    +0.000 A 
ATOM     19  C   UNL     1       5.447   4.157  15.771  0.00  0.00    +0.000 A 
ATOM     20  C   UNL     1       6.823   4.304  15.763  0.00  0.00    +0.000 A 
ATOM     21  N   UNL     1       7.527   4.783  16.812  0.00  0.00    +0.000 NA
ATOM     22  C   UNL     1       6.823   5.127  17.912  0.00  0.00    +0.000 A 
ATOM     23 CL   UNL     1       7.822   5.721  19.184  0.00  0.00    +0.000 Cl
ENDBRANCH  16  17
ENDBRANCH  14  16
ENDBRANCH   3  14
TORSDOF 5
ENDMDL
MODEL 5
REMARK VINA RESULT:      -7.1      4.276      6.636
REMARK  Name = 
REMARK  6 active torsions:
REMARK  status: ('A' for Active; 'I' for Inactive)
REMARK    1  A    between atoms: C_1  and  O_2
REMARK    2  A    between atoms: O_2  and  C_3
REMARK    3  A    between atoms: C_5  and  N_6
REMARK    4  A    between atoms: N_6  and  C_7
REMARK    5  A    between atoms: C_7  and  C_8
REMARK    6  A    between atoms: C_17  and  C_18
REMARK                            x       y       z     vdW  Elec       q    Type
REMARK                         _______ _______ _______ _____ _____    ______ ____
ROOT
ATOM      1  C   UNL     1       6.117   4.959  16.675  0.00  0.00    +0.000 A 
ATOM      2  C   UNL     1       5.077   4.037  16.463  0.00  0.00    +0.000 A 
ATOM      3  C   UNL     1       3.840   4.156  17.103  0.00  0.00    +0.000 A 
ATOM      4  C   UNL     1       3.715   5.128  18.092  0.00  0.00    +0.000 A 
ATOM      5  C   UNL     1       4.757   6.027  18.348  0.00  0.00    +0.000 A 
ATOM      6  C   UNL     1       5.966   5.978  17.633  0.00  0.00    +0.000 A 
ENDROOT
BRANCH   6   7
ATOM      7  C   UNL     1       6.991   6.989  17.894  0.00  0.00    +0.000 A 
ATOM      8  C   UNL     1       8.102   7.115  18.702  0.00  0.00    +0.000 A 
ATOM      9  N   UNL     1       8.724   8.323  18.490  0.00  0.00    +0.000 NA
ATOM     10  C   UNL     1       7.980   8.886  17.568  0.00  0.00    +0.000 A 
ATOM     11  O   UNL     1       6.916   8.149  17.157  0.00  0.00    +0.000 OA
ENDBRANCH   6   7
BRANCH   1  13
ATOM     12  C   UNL     1       7.173   4.806  14.563  0.00  0.00    +0.000 C 
ATOM     13  O   UNL     1       7.302   4.874  15.982  0.00  0.00    +0.000 OA
ENDBRANCH   1  13
BRANCH   3  14
ATOM     14  N   UNL     1       2.843   3.233  16.798  0.00  0.00    +0.000 N 
ATOM     15  H   UNL     1       1.950   3.668  16.581  0.00  0.00    +0.000 HD
BRANCH  14  16
ATOM     16  C   UNL     1       2.675   2.042  17.630  0.00  0.00    +0.000 C 
BRANCH  16  17
ATOM     17  C   UNL     1       2.253   2.396  19.031  0.00  0.00    +0.000 A 
ATOM     18  C   UNL     1       0.964   2.854  19.344  0.00  0.00    +0.000 A 
ATOM     19  C   UNL     1       0.636   3.188  20.651  0.00  0.00    +0.000 A 
ATOM     20  C   UNL     1       1.610   3.054  21.626  0.00  0.00    +0.000 A 
ATOM     21  N   UNL     1       2.862   2.615  21.374  0.00  0.00    +0.000 NA
ATOM     22  C   UNL     1       3.149   2.298  20.093  0.00  0.00    +0.000 A 
ATOM     23 CL   UNL     1       4.772   1.754  19.890  0.00  0.00    +0.000 Cl
ENDBRANCH  16  17
ENDBRANCH  14  16
ENDBRANCH   3  14
TORSDOF 5
ENDMDL
MODEL 6
REMARK VINA RESULT:      -7.1      3.621      4.953
REMARK  Name = 
REMARK  6 active torsions:
REMARK  status: ('A' for Active; 'I' for Inactive)
REMARK    1  A    between atoms: C_1  and  O_2
REMARK    2  A    between atoms: O_2  and  C_3
REMARK    3  A    between atoms: C_5  and  N_6
REMARK    4  A    between atoms: N_6  and  C_7
REMARK    5  A    between atoms: C_7  and  C_8
REMARK    6  A    between atoms: C_17  and  C_18
REMARK                            x       y       z     vdW  Elec       q    Type
REMARK                         _______ _______ _______ _____ _____    ______ ____
ROOT
ATOM      1  C   UNL     1       0.903   9.897  20.898  0.00  0.00    +0.000 A 
ATOM      2  C   UNL     1       1.329   8.589  21.187  0.00  0.00    +0.000 A 
ATOM      3  C   UNL     1       1.881   7.756  20.209  0.00  0.00    +0.000 A 
ATOM      4  C   UNL     1       1.848   8.199  18.890  0.00  0.00    +0.000 A 
ATOM      5  C   UNL     1       1.386   9.483  18.577  0.00  0.00    +0.000 A 
ATOM      6  C   UNL     1       0.927  10.365  19.571  0.00  0.00    +0.000 A 
ENDROOT
BRANCH   6   7
ATOM      7  C   UNL     1       0.525  11.720  19.193  0.00  0.00    +0.000 A 
ATOM      8  C   UNL     1      -0.650  12.374  18.885  0.00  0.00    +0.000 A 
ATOM      9  N   UNL     1      -0.413  13.705  18.631  0.00  0.00    +0.000 NA
ATOM     10  C   UNL     1       0.884  13.816  18.793  0.00  0.00    +0.000 A 
ATOM     11  O   UNL     1       1.522  12.666  19.130  0.00  0.00    +0.000 OA
ENDBRANCH   6   7
BRANCH   1  13
ATOM     12  C   UNL     1      -0.500  10.142  22.788  0.00  0.00    +0.000 C 
ATOM     13  O   UNL     1       0.433  10.732  21.884  0.00  0.00    +0.000 OA
ENDBRANCH   1  13
BRANCH   3  14
ATOM     14  N   UNL     1       2.328   6.493  20.589  0.00  0.00    +0.000 N 
ATOM     15  H   UNL     1       3.211   6.235  20.153  0.00  0.00    +0.000 HD
BRANCH  14  16
ATOM     16  C   UNL     1       1.394   5.368  20.618  0.00  0.00    +0.000 C 
BRANCH  16  17
ATOM     17  C   UNL     1       1.772   4.303  19.623  0.00  0.00    +0.000 A 
ATOM     18  C   UNL     1       1.949   4.567  18.257  0.00  0.00    +0.000 A 
ATOM     19  C   UNL     1       2.276   3.541  17.380  0.00  0.00    +0.000 A 
ATOM     20  C   UNL     1       2.421   2.263  17.891  0.00  0.00    +0.000 A 
ATOM     21  N   UNL     1       2.264   1.960  19.199  0.00  0.00    +0.000 NA
ATOM     22  C   UNL     1       1.947   2.981  20.026  0.00  0.00    +0.000 A 
ATOM     23 CL   UNL     1       1.768   2.478  21.664  0.00  0.00    +0.000 Cl
ENDBRANCH  16  17
ENDBRANCH  14  16
ENDBRANCH   3  14
TORSDOF 5
ENDMDL
MODEL 7
REMARK VINA RESULT:      -7.0      3.239      4.690
REMARK  Name = 
REMARK  6 active torsions:
REMARK  status: ('A' for Active; 'I' for Inactive)
REMARK    1  A    between atoms: C_1  and  O_2
REMARK    2  A    between atoms: O_2  and  C_3
REMARK    3  A    between atoms: C_5  and  N_6
REMARK    4  A    between atoms: N_6  and  C_7
REMARK    5  A    between atoms: C_7  and  C_8
REMARK    6  A    between atoms: C_17  and  C_18
REMARK                            x       y       z     vdW  Elec       q    Type
REMARK                         _______ _______ _______ _____ _____    ______ ____
ROOT
ATOM      1  C   UNL     1       0.512   9.279  20.638  0.00  0.00    +0.000 A 
ATOM      2  C   UNL     1       1.214   8.090  20.900  0.00  0.00    +0.000 A 
ATOM      3  C   UNL     1       2.112   7.541  19.979  0.00  0.00    +0.000 A 
ATOM      4  C   UNL     1       2.171   8.118  18.713  0.00  0.00    +0.000 A 
ATOM      5  C   UNL     1       1.444   9.277  18.420  0.00  0.00    +0.000 A 
ATOM      6  C   UNL     1       0.620   9.894  19.377  0.00  0.00    +0.000 A 
ENDROOT
BRANCH   6   7
ATOM      7  C   UNL     1      -0.058  11.145  19.036  0.00  0.00    +0.000 A 
ATOM      8  C   UNL     1       0.257  12.488  19.004  0.00  0.00    +0.000 A 
ATOM      9  N   UNL     1      -0.810  13.228  18.552  0.00  0.00    +0.000 NA
ATOM     10  C   UNL     1      -1.730  12.320  18.326  0.00  0.00    +0.000 A 
ATOM     11  O   UNL     1      -1.357  11.043  18.593  0.00  0.00    +0.000 OA
ENDBRANCH   6   7
BRANCH   1  13
ATOM     12  C   UNL     1       0.060   9.603  22.939  0.00  0.00    +0.000 C 
ATOM     13  O   UNL     1      -0.310   9.850  21.582  0.00  0.00    +0.000 OA
ENDBRANCH   1  13
BRANCH   3  14
ATOM     14  N   UNL     1       2.809   6.390  20.337  0.00  0.00    +0.000 N 
ATOM     15  H   UNL     1       3.474   6.545  21.090  0.00  0.00    +0.000 HD
BRANCH  14  16
ATOM     16  C   UNL     1       3.364   5.523  19.298  0.00  0.00    +0.000 C 
BRANCH  16  17
ATOM     17  C   UNL     1       2.497   4.317  19.056  0.00  0.00    +0.000 A 
ATOM     18  C   UNL     1       1.416   3.979  19.883  0.00  0.00    +0.000 A 
ATOM     19  C   UNL     1       0.663   2.841  19.625  0.00  0.00    +0.000 A 
ATOM     20  C   UNL     1       1.008   2.060  18.537  0.00  0.00    +0.000 A 
ATOM     21  N   UNL     1       2.038   2.345  17.710  0.00  0.00    +0.000 NA
ATOM     22  C   UNL     1       2.750   3.459  17.988  0.00  0.00    +0.000 A 
ATOM     23 CL   UNL     1       4.037   3.721  16.872  0.00  0.00    +0.000 Cl
ENDBRANCH  16  17
ENDBRANCH  14  16
ENDBRANCH   3  14
TORSDOF 5
ENDMDL
MODEL 8
REMARK VINA RESULT:      -6.9      3.281      7.992
REMARK  Name = 
REMARK  6 active torsions:
REMARK  status: ('A' for Active; 'I' for Inactive)
REMARK    1  A    between atoms: C_1  and  O_2
REMARK    2  A    between atoms: O_2  and  C_3
REMARK    3  A    between atoms: C_5  and  N_6
REMARK    4  A    between atoms: N_6  and  C_7
REMARK    5  A    between atoms: C_7  and  C_8
REMARK    6  A    between atoms: C_17  and  C_18
REMARK                            x       y       z     vdW  Elec       q    Type
REMARK                         _______ _______ _______ _____ _____    ______ ____
ROOT
ATOM      1  C   UNL     1       4.290   5.102  18.992  0.00  0.00    +0.000 A 
ATOM      2  C   UNL     1       3.273   5.593  19.828  0.00  0.00    +0.000 A 
ATOM      3  C   UNL     1       2.484   6.690  19.470  0.00  0.00    +0.000 A 
ATOM      4  C   UNL     1       2.841   7.396  18.325  0.00  0.00    +0.000 A 
ATOM      5  C   UNL     1       3.880   6.948  17.502  0.00  0.00    +0.000 A 
ATOM      6  C   UNL     1       4.610   5.784  17.803  0.00  0.00    +0.000 A 
ENDROOT
BRANCH   6   7
ATOM      7  C   UNL     1       5.637   5.323  16.868  0.00  0.00    +0.000 A 
ATOM      8  C   UNL     1       6.950   5.633  16.579  0.00  0.00    +0.000 A 
ATOM      9  N   UNL     1       7.435   4.816  15.585  0.00  0.00    +0.000 NA
ATOM     10  C   UNL     1       6.412   4.044  15.305  0.00  0.00    +0.000 A 
ATOM     11  O   UNL     1       5.292   4.286  16.032  0.00  0.00    +0.000 OA
ENDBRANCH   6   7
BRANCH   1  13
ATOM     12  C   UNL     1       4.227   2.812  19.585  0.00  0.00    +0.000 C 
ATOM     13  O   UNL     1       5.008   3.977  19.320  0.00  0.00    +0.000 OA
ENDBRANCH   1  13
BRANCH   3  14
ATOM     14  N   UNL     1       1.460   7.081  20.331  0.00  0.00    +0.000 N 
ATOM     15  H   UNL     1       0.546   7.088  19.885  0.00  0.00    +0.000 HD
BRANCH  14  16
ATOM     16  C   UNL     1       1.645   8.241  21.201  0.00  0.00    +0.000 C 
BRANCH  16  17
ATOM     17  C   UNL     1       0.690   9.353  20.857  0.00  0.00    +0.000 A 
ATOM     18  C   UNL     1       0.531   9.843  19.552  0.00  0.00    +0.000 A 
ATOM     19  C   UNL     1      -0.348  10.887  19.296  0.00  0.00    +0.000 A 
ATOM     20  C   UNL     1      -1.057  11.422  20.357  0.00  0.00    +0.000 A 
ATOM     21  N   UNL     1      -0.941  10.983  21.629  0.00  0.00    +0.000 NA
ATOM     22  C   UNL     1      -0.078   9.966  21.845  0.00  0.00    +0.000 A 
ATOM     23 CL   UNL     1      -0.010   9.492  23.500  0.00  0.00    +0.000 Cl
ENDBRANCH  16  17
ENDBRANCH  14  16
ENDBRANCH   3  14
TORSDOF 5
ENDMDL
MODEL 9
REMARK VINA RESULT:      -6.9      3.187      4.712
REMARK  Name = 
REMARK  6 active torsions:
REMARK  status: ('A' for Active; 'I' for Inactive)
REMARK    1  A    between atoms: C_1  and  O_2
REMARK    2  A    between atoms: O_2  and  C_3
REMARK    3  A    between atoms: C_5  and  N_6
REMARK    4  A    between atoms: N_6  and  C_7
REMARK    5  A    between atoms: C_7  and  C_8
REMARK    6  A    between atoms: C_17  and  C_18
REMARK                            x       y       z     vdW  Elec       q    Type
REMARK                         _______ _______ _______ _____ _____    ______ ____
ROOT
ATOM      1  C   UNL     1       1.024   9.149  20.402  0.00  0.00    +0.000 A 
ATOM      2  C   UNL     1       1.793   7.999  20.150  0.00  0.00    +0.000 A 
ATOM      3  C   UNL     1       2.286   7.700  18.877  0.00  0.00    +0.000 A 
ATOM      4  C   UNL     1       1.854   8.491  17.815  0.00  0.00    +0.000 A 
ATOM      5  C   UNL     1       1.051   9.616  18.041  0.00  0.00    +0.000 A 
ATOM      6  C   UNL     1       0.639   9.981  19.334  0.00  0.00    +0.000 A 
ENDROOT
BRANCH   6   7
ATOM      7  C   UNL     1      -0.138  11.207  19.516  0.00  0.00    +0.000 A 
ATOM      8  C   UNL     1       0.117  12.527  19.826  0.00  0.00    +0.000 A 
ATOM      9  N   UNL     1      -1.046  13.261  19.826  0.00  0.00    +0.000 NA
ATOM     10  C   UNL     1      -1.961  12.373  19.519  0.00  0.00    +0.000 A 
ATOM     11  O   UNL     1      -1.497  11.113  19.318  0.00  0.00    +0.000 OA
ENDBRANCH   6   7
BRANCH   1  13
ATOM     12  C   UNL     1      -0.493   8.712  22.164  0.00  0.00    +0.000 C 
ATOM     13  O   UNL     1       0.611   9.471  21.673  0.00  0.00    +0.000 OA
ENDBRANCH   1  13
BRANCH   3  14
ATOM     14  N   UNL     1       3.085   6.570  18.722  0.00  0.00    +0.000 N 
ATOM     15  H   UNL     1       3.960   6.764  18.241  0.00  0.00    +0.000 HD
BRANCH  14  16
ATOM     16  C   UNL     1       2.489   5.313  18.271  0.00  0.00    +0.000 C 
BRANCH  16  17
ATOM     17  C   UNL     1       2.382   4.314  19.392  0.00  0.00    +0.000 A 
ATOM     18  C   UNL     1       1.204   4.119  20.128  0.00  0.00    +0.000 A 
ATOM     19  C   UNL     1       1.169   3.199  21.167  0.00  0.00    +0.000 A 
ATOM     20  C   UNL     1       2.320   2.484  21.449  0.00  0.00    +0.000 A 
ATOM     21  N   UNL     1       3.477   2.634  20.768  0.00  0.00    +0.000 NA
ATOM     22  C   UNL     1       3.478   3.537  19.763  0.00  0.00    +0.000 A 
ATOM     23 CL   UNL     1       5.003   3.645  18.968  0.00  0.00    +0.000 Cl
ENDBRANCH  16  17
ENDBRANCH  14  16
ENDBRANCH   3  14
TORSDOF 5
ENDMDL
