MODEL 1
REMARK VINA RESULT:      -7.1      0.000      0.000
REMARK  Name = 
REMARK  5 active torsions:
REMARK  status: ('A' for Active; 'I' for Inactive)
REMARK    1  A    between atoms: C_2  and  C_3
REMARK    2  A    between atoms: C_2  and  N_4
REMARK    3  A    between atoms: C_8  and  C_10
REMARK    4  A    between atoms: C_10  and  C_11
REMARK    5  A    between atoms: C_11  and  C_12
REMARK                            x       y       z     vdW  Elec       q    Type
REMARK                         _______ _______ _______ _____ _____    ______ ____
ROOT
ATOM      1  N   UNL     1       3.054   6.185  18.120  0.00  0.00    +0.000 N 
ATOM      2  C   UNL     1       4.312   6.237  17.429  0.00  0.00    +0.000 A 
ATOM      3  O   UNL     1       4.979   7.236  17.195  0.00  0.00    +0.000 OA
ATOM      4  N   UNL     1       4.658   4.884  17.105  0.00  0.00    +0.000 N 
ATOM      5  C   UNL     1       5.794   4.425  16.456  0.00  0.00    +0.000 C 
ATOM      6  O   UNL     1       5.822   3.422  15.736  0.00  0.00    +0.000 OA
ATOM      7  C   UNL     1       3.591   4.056  17.505  0.00  0.00    +0.000 A 
ATOM      8  C   UNL     1       3.426   2.689  17.370  0.00  0.00    +0.000 A 
ATOM      9  C   UNL     1       2.256   2.116  17.876  0.00  0.00    +0.000 A 
ATOM     10  C   UNL     1       1.281   2.912  18.500  0.00  0.00    +0.000 A 
ATOM     11  C   UNL     1       1.464   4.290  18.636  0.00  0.00    +0.000 A 
ATOM     12  C   UNL     1       2.636   4.841  18.151  0.00  0.00    +0.000 A 
ENDROOT
BRANCH   1  14
ATOM     13  C   UNL     1       2.201   7.319  20.019  0.00  0.00    +0.000 C 
ATOM     14  C   UNL     1       2.449   7.284  18.700  0.00  0.00    +0.000 C 
ATOM     15  C   UNL     1       1.971   8.381  17.786  0.00  0.00    +0.000 C 
ENDBRANCH   1  14
BRANCH   5  16
ATOM     16  C   UNL     1       7.072   5.212  16.701  0.00  0.00    +0.000 C 
BRANCH  16  17
ATOM     17  C   UNL     1       7.722   4.862  18.042  0.00  0.00    +0.000 C 
ATOM     18  C   UNL     1       7.849   6.068  18.965  0.00  0.00    +0.000 C 
ENDBRANCH  16  17
ENDBRANCH   5  16
TORSDOF 3
ENDMDL
MODEL 2
REMARK VINA RESULT:      -6.9      1.954      4.808
REMARK  Name = 
REMARK  5 active torsions:
REMARK  status: ('A' for Active; 'I' for Inactive)
REMARK    1  A    between atoms: C_2  and  C_3
REMARK    2  A    between atoms: C_2  and  N_4
REMARK    3  A    between atoms: C_8  and  C_10
REMARK    4  A    between atoms: C_10  and  C_11
REMARK    5  A    between atoms: C_11  and  C_12
REMARK                            x       y       z     vdW  Elec       q    Type
REMARK                         _______ _______ _______ _____ _____    ______ ____
ROOT
ATOM      1  N   UNL     1       6.381   5.545  17.719  0.00  0.00    +0.000 N 
ATOM      2  C   UNL     1       5.135   5.225  18.358  0.00  0.00    +0.000 A 
ATOM      3  O   UNL     1       4.829   5.448  19.522  0.00  0.00    +0.000 OA
ATOM      4  N   UNL     1       4.299   4.633  17.354  0.00  0.00    +0.000 N 
ATOM      5  C   UNL     1       2.996   4.181  17.486  0.00  0.00    +0.000 C 
ATOM      6  O   UNL     1       2.521   3.240  16.841  0.00  0.00    +0.000 OA
ATOM      7  C   UNL     1       5.060   4.514  16.174  0.00  0.00    +0.000 A 
ATOM      8  C   UNL     1       4.720   3.969  14.948  0.00  0.00    +0.000 A 
ATOM      9  C   UNL     1       5.678   3.993  13.931  0.00  0.00    +0.000 A 
ATOM     10  C   UNL     1       6.946   4.555  14.156  0.00  0.00    +0.000 A 
ATOM     11  C   UNL     1       7.273   5.109  15.396  0.00  0.00    +0.000 A 
ATOM     12  C   UNL     1       6.307   5.098  16.386  0.00  0.00    +0.000 A 
ENDROOT
BRANCH   1  14
ATOM     13  C   UNL     1       8.039   5.731  19.403  0.00  0.00    +0.000 C 
ATOM     14  C   UNL     1       7.404   6.241  18.335  0.00  0.00    +0.000 C 
ATOM     15  C   UNL     1       7.695   7.634  17.845  0.00  0.00    +0.000 C 
ENDBRANCH   1  14
BRANCH   5  16
ATOM     16  C   UNL     1       2.117   4.939  18.468  0.00  0.00    +0.000 C 
BRANCH  16  17
ATOM     17  C   UNL     1       1.328   4.001  19.386  0.00  0.00    +0.000 C 
ATOM     18  C   UNL     1       1.664   4.201  20.858  0.00  0.00    +0.000 C 
ENDBRANCH  16  17
ENDBRANCH   5  16
TORSDOF 3
ENDMDL
MODEL 3
REMARK VINA RESULT:      -6.9      1.805      4.834
REMARK  Name = 
REMARK  5 active torsions:
REMARK  status: ('A' for Active; 'I' for Inactive)
REMARK    1  A    between atoms: C_2  and  C_3
REMARK    2  A    between atoms: C_2  and  N_4
REMARK    3  A    between atoms: C_8  and  C_10
REMARK    4  A    between atoms: C_10  and  C_11
REMARK    5  A    between atoms: C_11  and  C_12
REMARK                            x       y       z     vdW  Elec       q    Type
REMARK                         _______ _______ _______ _____ _____    ______ ____
ROOT
ATOM      1  N   UNL     1       4.915   4.968  17.916  0.00  0.00    +0.000 N 
ATOM      2  C   UNL     1       4.365   6.291  17.826  0.00  0.00    +0.000 A 
ATOM      3  O   UNL     1       4.737   7.191  17.083  0.00  0.00    +0.000 OA
ATOM      4  N   UNL     1       3.264   6.342  18.743  0.00  0.00    +0.000 N 
ATOM      5  C   UNL     1       2.410   7.404  18.994  0.00  0.00    +0.000 C 
ATOM      6  O   UNL     1       1.877   7.620  20.087  0.00  0.00    +0.000 OA
ATOM      7  C   UNL     1       3.219   5.114  19.433  0.00  0.00    +0.000 A 
ATOM      8  C   UNL     1       2.373   4.692  20.444  0.00  0.00    +0.000 A 
ATOM      9  C   UNL     1       2.546   3.400  20.947  0.00  0.00    +0.000 A 
ATOM     10  C   UNL     1       3.551   2.562  20.436  0.00  0.00    +0.000 A 
ATOM     11  C   UNL     1       4.393   2.998  19.411  0.00  0.00    +0.000 A 
ATOM     12  C   UNL     1       4.197   4.271  18.907  0.00  0.00    +0.000 A 
ENDROOT
BRANCH   1  14
ATOM     13  C   UNL     1       5.630   3.870  15.941  0.00  0.00    +0.000 C 
ATOM     14  C   UNL     1       5.920   4.495  17.094  0.00  0.00    +0.000 C 
ATOM     15  C   UNL     1       7.336   4.597  17.592  0.00  0.00    +0.000 C 
ENDBRANCH   1  14
BRANCH   5  16
ATOM     16  C   UNL     1       2.105   8.315  17.815  0.00  0.00    +0.000 C 
BRANCH  16  17
ATOM     17  C   UNL     1       1.688   9.720  18.259  0.00  0.00    +0.000 C 
ATOM     18  C   UNL     1       0.186   9.948  18.151  0.00  0.00    +0.000 C 
ENDBRANCH  16  17
ENDBRANCH   5  16
TORSDOF 3
ENDMDL
MODEL 4
REMARK VINA RESULT:      -6.9      1.325      4.523
REMARK  Name = 
REMARK  5 active torsions:
REMARK  status: ('A' for Active; 'I' for Inactive)
REMARK    1  A    between atoms: C_2  and  C_3
REMARK    2  A    between atoms: C_2  and  N_4
REMARK    3  A    between atoms: C_8  and  C_10
REMARK    4  A    between atoms: C_10  and  C_11
REMARK    5  A    between atoms: C_11  and  C_12
REMARK                            x       y       z     vdW  Elec       q    Type
REMARK                         _______ _______ _______ _____ _____    ______ ____
ROOT
ATOM      1  N   UNL     1       4.798   4.863  17.027  0.00  0.00    +0.000 N 
ATOM      2  C   UNL     1       4.492   6.216  17.403  0.00  0.00    +0.000 A 
ATOM      3  O   UNL     1       5.139   7.218  17.129  0.00  0.00    +0.000 OA
ATOM      4  N   UNL     1       3.254   6.170  18.126  0.00  0.00    +0.000 N 
ATOM      5  C   UNL     1       2.545   7.229  18.672  0.00  0.00    +0.000 C 
ATOM      6  O   UNL     1       1.849   7.144  19.689  0.00  0.00    +0.000 OA
ATOM      7  C   UNL     1       2.882   4.819  18.262  0.00  0.00    +0.000 A 
ATOM      8  C   UNL     1       1.797   4.256  18.913  0.00  0.00    +0.000 A 
ATOM      9  C   UNL     1       1.662   2.865  18.879  0.00  0.00    +0.000 A 
ATOM     10  C   UNL     1       2.603   2.071  18.203  0.00  0.00    +0.000 A 
ATOM     11  C   UNL     1       3.688   2.653  17.543  0.00  0.00    +0.000 A 
ATOM     12  C   UNL     1       3.798   4.032  17.566  0.00  0.00    +0.000 A 
ENDROOT
BRANCH   1  14
ATOM     13  C   UNL     1       7.108   4.450  16.697  0.00  0.00    +0.000 C 
ATOM     14  C   UNL     1       5.857   4.513  16.212  0.00  0.00    +0.000 C 
ATOM     15  C   UNL     1       5.578   4.327  14.745  0.00  0.00    +0.000 C 
ENDBRANCH   1  14
BRANCH   5  16
ATOM     16  C   UNL     1       2.626   8.550  17.924  0.00  0.00    +0.000 C 
BRANCH  16  17
ATOM     17  C   UNL     1       1.287   9.293  17.910  0.00  0.00    +0.000 C 
ATOM     18  C   UNL     1       1.356  10.640  18.617  0.00  0.00    +0.000 C 
ENDBRANCH  16  17
ENDBRANCH   5  16
TORSDOF 3
ENDMDL
MODEL 5
REMARK VINA RESULT:      -6.7      1.784      3.974
REMARK  Name = 
REMARK  5 active torsions:
REMARK  status: ('A' for Active; 'I' for Inactive)
REMARK    1  A    between atoms: C_2  and  C_3
REMARK    2  A    between atoms: C_2  and  N_4
REMARK    3  A    between atoms: C_8  and  C_10
REMARK    4  A    between atoms: C_10  and  C_11
REMARK    5  A    between atoms: C_11  and  C_12
REMARK                            x       y       z     vdW  Elec       q    Type
REMARK                         _______ _______ _______ _____ _____    ______ ____
ROOT
ATOM      1  N   UNL     1       2.984   4.207  18.793  0.00  0.00    +0.000 N 
ATOM      2  C   UNL     1       3.973   3.830  17.822  0.00  0.00    +0.000 A 
ATOM      3  O   UNL     1       4.407   2.704  17.617  0.00  0.00    +0.000 OA
ATOM      4  N   UNL     1       4.324   5.023  17.108  0.00  0.00    +0.000 N 
ATOM      5  C   UNL     1       5.222   5.159  16.062  0.00  0.00    +0.000 C 
ATOM      6  O   UNL     1       5.888   6.178  15.849  0.00  0.00    +0.000 OA
ATOM      7  C   UNL     1       3.635   6.100  17.701  0.00  0.00    +0.000 A 
ATOM      8  C   UNL     1       3.672   7.451  17.403  0.00  0.00    +0.000 A 
ATOM      9  C   UNL     1       2.864   8.310  18.154  0.00  0.00    +0.000 A 
ATOM     10  C   UNL     1       2.043   7.808  19.178  0.00  0.00    +0.000 A 
ATOM     11  C   UNL     1       2.010   6.441  19.462  0.00  0.00    +0.000 A 
ATOM     12  C   UNL     1       2.798   5.600  18.697  0.00  0.00    +0.000 A 
ENDROOT
BRANCH   1  14
ATOM     13  C   UNL     1       2.800   2.953  20.796  0.00  0.00    +0.000 C 
ATOM     14  C   UNL     1       2.311   3.306  19.596  0.00  0.00    +0.000 C 
ATOM     15  C   UNL     1       1.084   2.645  19.027  0.00  0.00    +0.000 C 
ENDBRANCH   1  14
BRANCH   5  16
ATOM     16  C   UNL     1       5.341   3.972  15.118  0.00  0.00    +0.000 C 
BRANCH  16  17
ATOM     17  C   UNL     1       6.363   4.215  14.005  0.00  0.00    +0.000 C 
ATOM     18  C   UNL     1       5.977   3.540  12.695  0.00  0.00    +0.000 C 
ENDBRANCH  16  17
ENDBRANCH   5  16
TORSDOF 3
ENDMDL
MODEL 6
REMARK VINA RESULT:      -6.6      2.465      5.478
REMARK  Name = 
REMARK  5 active torsions:
REMARK  status: ('A' for Active; 'I' for Inactive)
REMARK    1  A    between atoms: C_2  and  C_3
REMARK    2  A    between atoms: C_2  and  N_4
REMARK    3  A    between atoms: C_8  and  C_10
REMARK    4  A    between atoms: C_10  and  C_11
REMARK    5  A    between atoms: C_11  and  C_12
REMARK                            x       y       z     vdW  Elec       q    Type
REMARK                         _______ _______ _______ _____ _____    ______ ____
ROOT
ATOM      1  N   UNL     1       3.108   4.171  18.951  0.00  0.00    +0.000 N 
ATOM      2  C   UNL     1       2.278   5.130  19.625  0.00  0.00    +0.000 A 
ATOM      3  O   UNL     1       1.472   4.903  20.519  0.00  0.00    +0.000 OA
ATOM      4  N   UNL     1       2.606   6.414  19.077  0.00  0.00    +0.000 N 
ATOM      5  C   UNL     1       2.083   7.649  19.425  0.00  0.00    +0.000 C 
ATOM      6  O   UNL     1       1.957   8.593  18.638  0.00  0.00    +0.000 OA
ATOM      7  C   UNL     1       3.537   6.216  18.039  0.00  0.00    +0.000 A 
ATOM      8  C   UNL     1       4.122   7.132  17.182  0.00  0.00    +0.000 A 
ATOM      9  C   UNL     1       5.035   6.656  16.237  0.00  0.00    +0.000 A 
ATOM     10  C   UNL     1       5.344   5.287  16.166  0.00  0.00    +0.000 A 
ATOM     11  C   UNL     1       4.752   4.374  17.043  0.00  0.00    +0.000 A 
ATOM     12  C   UNL     1       3.866   4.862  17.987  0.00  0.00    +0.000 A 
ENDROOT
BRANCH   1  14
ATOM     13  C   UNL     1       4.151   2.361  20.071  0.00  0.00    +0.000 C 
ATOM     14  C   UNL     1       3.167   2.832  19.290  0.00  0.00    +0.000 C 
ATOM     15  C   UNL     1       2.163   1.907  18.655  0.00  0.00    +0.000 C 
ENDBRANCH   1  14
BRANCH   5  16
ATOM     16  C   UNL     1       1.687   7.826  20.883  0.00  0.00    +0.000 C 
BRANCH  16  17
ATOM     17  C   UNL     1       0.823   9.071  21.103  0.00  0.00    +0.000 C 
ATOM     18  C   UNL     1      -0.385   8.798  21.989  0.00  0.00    +0.000 C 
ENDBRANCH  16  17
ENDBRANCH   5  16
TORSDOF 3
ENDMDL
MODEL 7
REMARK VINA RESULT:      -6.4      1.880      4.068
REMARK  Name = 
REMARK  5 active torsions:
REMARK  status: ('A' for Active; 'I' for Inactive)
REMARK    1  A    between atoms: C_2  and  C_3
REMARK    2  A    between atoms: C_2  and  N_4
REMARK    3  A    between atoms: C_8  and  C_10
REMARK    4  A    between atoms: C_10  and  C_11
REMARK    5  A    between atoms: C_11  and  C_12
REMARK                            x       y       z     vdW  Elec       q    Type
REMARK                         _______ _______ _______ _____ _____    ______ ____
ROOT
ATOM      1  N   UNL     1       2.704   4.006  19.430  0.00  0.00    +0.000 N 
ATOM      2  C   UNL     1       3.673   3.816  18.387  0.00  0.00    +0.000 A 
ATOM      3  O   UNL     1       4.185   2.757  18.046  0.00  0.00    +0.000 OA
ATOM      4  N   UNL     1       3.892   5.101  17.790  0.00  0.00    +0.000 N 
ATOM      5  C   UNL     1       4.725   5.419  16.730  0.00  0.00    +0.000 C 
ATOM      6  O   UNL     1       5.295   6.507  16.599  0.00  0.00    +0.000 OA
ATOM      7  C   UNL     1       3.148   6.049  18.520  0.00  0.00    +0.000 A 
ATOM      8  C   UNL     1       3.062   7.422  18.366  0.00  0.00    +0.000 A 
ATOM      9  C   UNL     1       2.225   8.128  19.235  0.00  0.00    +0.000 A 
ATOM     10  C   UNL     1       1.497   7.456  20.231  0.00  0.00    +0.000 A 
ATOM     11  C   UNL     1       1.587   6.069  20.370  0.00  0.00    +0.000 A 
ATOM     12  C   UNL     1       2.402   5.380  19.489  0.00  0.00    +0.000 A 
ENDROOT
BRANCH   1  14
ATOM     13  C   UNL     1       1.099   2.280  19.681  0.00  0.00    +0.000 C 
ATOM     14  C   UNL     1       2.145   2.974  20.159  0.00  0.00    +0.000 C 
ATOM     15  C   UNL     1       2.670   2.736  21.549  0.00  0.00    +0.000 C 
ENDBRANCH   1  14
BRANCH   5  16
ATOM     16  C   UNL     1       4.893   4.349  15.661  0.00  0.00    +0.000 C 
BRANCH  16  17
ATOM     17  C   UNL     1       6.219   4.484  14.907  0.00  0.00    +0.000 C 
ATOM     18  C   UNL     1       6.175   3.847  13.524  0.00  0.00    +0.000 C 
ENDBRANCH  16  17
ENDBRANCH   5  16
TORSDOF 3
ENDMDL
MODEL 8
REMARK VINA RESULT:      -6.4      1.822      4.022
REMARK  Name = 
REMARK  5 active torsions:
REMARK  status: ('A' for Active; 'I' for Inactive)
REMARK    1  A    between atoms: C_2  and  C_3
REMARK    2  A    between atoms: C_2  and  N_4
REMARK    3  A    between atoms: C_8  and  C_10
REMARK    4  A    between atoms: C_10  and  C_11
REMARK    5  A    between atoms: C_11  and  C_12
REMARK                            x       y       z     vdW  Elec       q    Type
REMARK                         _______ _______ _______ _____ _____    ______ ____
ROOT
ATOM      1  N   UNL     1       3.809   3.856  18.442  0.00  0.00    +0.000 N 
ATOM      2  C   UNL     1       4.662   3.910  17.287  0.00  0.00    +0.000 A 
ATOM      3  O   UNL     1       5.302   2.985  16.805  0.00  0.00    +0.000 OA
ATOM      4  N   UNL     1       4.583   5.249  16.781  0.00  0.00    +0.000 N 
ATOM      5  C   UNL     1       5.215   5.779  15.667  0.00  0.00    +0.000 C 
ATOM      6  O   UNL     1       5.571   6.958  15.568  0.00  0.00    +0.000 OA
ATOM      7  C   UNL     1       3.783   6.000  17.665  0.00  0.00    +0.000 A 
ATOM      8  C   UNL     1       3.446   7.342  17.638  0.00  0.00    +0.000 A 
ATOM      9  C   UNL     1       2.613   7.829  18.648  0.00  0.00    +0.000 A 
ATOM     10  C   UNL     1       2.137   6.975  19.658  0.00  0.00    +0.000 A 
ATOM     11  C   UNL     1       2.479   5.621  19.668  0.00  0.00    +0.000 A 
ATOM     12  C   UNL     1       3.286   5.147  18.650  0.00  0.00    +0.000 A 
ENDROOT
BRANCH   1  14
ATOM     13  C   UNL     1       4.342   2.262  20.112  0.00  0.00    +0.000 C 
ATOM     14  C   UNL     1       3.528   2.696  19.137  0.00  0.00    +0.000 C 
ATOM     15  C   UNL     1       2.350   1.877  18.681  0.00  0.00    +0.000 C 
ENDBRANCH   1  14
BRANCH   5  16
ATOM     16  C   UNL     1       5.431   4.827  14.500  0.00  0.00    +0.000 C 
BRANCH  16  17
ATOM     17  C   UNL     1       6.904   4.735  14.092  0.00  0.00    +0.000 C 
ATOM     18  C   UNL     1       7.089   4.199  12.678  0.00  0.00    +0.000 C 
ENDBRANCH  16  17
ENDBRANCH   5  16
TORSDOF 3
ENDMDL
MODEL 9
REMARK VINA RESULT:      -6.4      2.099      5.020
REMARK  Name = 
REMARK  5 active torsions:
REMARK  status: ('A' for Active; 'I' for Inactive)
REMARK    1  A    between atoms: C_2  and  C_3
REMARK    2  A    between atoms: C_2  and  N_4
REMARK    3  A    between atoms: C_8  and  C_10
REMARK    4  A    between atoms: C_10  and  C_11
REMARK    5  A    between atoms: C_11  and  C_12
REMARK                            x       y       z     vdW  Elec       q    Type
REMARK                         _______ _______ _______ _____ _____    ______ ____
ROOT
ATOM      1  N   UNL     1       4.868   4.490  17.004  0.00  0.00    +0.000 N 
ATOM      2  C   UNL     1       4.066   3.419  17.528  0.00  0.00    +0.000 A 
ATOM      3  O   UNL     1       4.307   2.221  17.459  0.00  0.00    +0.000 OA
ATOM      4  N   UNL     1       2.948   4.029  18.188  0.00  0.00    +0.000 N 
ATOM      5  C   UNL     1       1.911   3.404  18.864  0.00  0.00    +0.000 C 
ATOM      6  O   UNL     1       0.761   3.849  18.930  0.00  0.00    +0.000 OA
ATOM      7  C   UNL     1       3.028   5.420  17.980  0.00  0.00    +0.000 A 
ATOM      8  C   UNL     1       2.168   6.430  18.375  0.00  0.00    +0.000 A 
ATOM      9  C   UNL     1       2.503   7.744  18.040  0.00  0.00    +0.000 A 
ATOM     10  C   UNL     1       3.678   8.023  17.323  0.00  0.00    +0.000 A 
ATOM     11  C   UNL     1       4.541   6.995  16.936  0.00  0.00    +0.000 A 
ATOM     12  C   UNL     1       4.209   5.700  17.294  0.00  0.00    +0.000 A 
ENDROOT
BRANCH   1  14
ATOM     13  C   UNL     1       7.236   4.514  17.083  0.00  0.00    +0.000 C 
ATOM     14  C   UNL     1       6.098   4.306  16.403  0.00  0.00    +0.000 C 
ATOM     15  C   UNL     1       6.114   3.984  14.932  0.00  0.00    +0.000 C 
ENDBRANCH   1  14
BRANCH   5  16
ATOM     16  C   UNL     1       2.261   2.113  19.587  0.00  0.00    +0.000 C 
BRANCH  16  17
ATOM     17  C   UNL     1       2.972   2.368  20.920  0.00  0.00    +0.000 C 
ATOM     18  C   UNL     1       2.109   3.146  21.905  0.00  0.00    +0.000 C 
ENDBRANCH  16  17
ENDBRANCH   5  16
TORSDOF 3
ENDMDL
