MODEL 1
REMARK VINA RESULT:      -7.5      0.000      0.000
REMARK  Name = 
REMARK  5 active torsions:
REMARK  status: ('A' for Active; 'I' for Inactive)
REMARK    1  A    between atoms: N_1  and  C_2
REMARK    2  A    between atoms: C_2  and  C_3
REMARK    3  A    between atoms: N_5  and  C_6
REMARK    4  A    between atoms: C_6  and  C_7
REMARK    5  A    between atoms: C_11  and  C_12
REMARK                            x       y       z     vdW  Elec       q    Type
REMARK                         _______ _______ _______ _____ _____    ______ ____
ROOT
ATOM      1  C   UNL     1       5.631   4.956  15.932  0.00  0.00    +0.000 A 
ATOM      2  C   UNL     1       5.702   6.352  16.020  0.00  0.00    +0.000 A 
ATOM      3  C   UNL     1       4.815   7.049  16.839  0.00  0.00    +0.000 A 
ATOM      4  C   UNL     1       3.837   6.364  17.561  0.00  0.00    +0.000 A 
ATOM      5  C   UNL     1       3.747   4.958  17.502  0.00  0.00    +0.000 A 
ATOM      6  C   UNL     1       4.668   4.263  16.685  0.00  0.00    +0.000 A 
ENDROOT
BRANCH   5   7
ATOM      7  C   UNL     1       2.702   4.225  18.284  0.00  0.00    +0.000 A 
ATOM      8  C   UNL     1       2.137   4.787  19.453  0.00  0.00    +0.000 A 
ATOM      9  C   UNL     1       1.159   4.095  20.173  0.00  0.00    +0.000 A 
ATOM     10  C   UNL     1       0.740   2.832  19.756  0.00  0.00    +0.000 A 
ATOM     11  C   UNL     1       1.288   2.263  18.608  0.00  0.00    +0.000 A 
ATOM     12  C   UNL     1       2.251   2.955  17.871  0.00  0.00    +0.000 A 
ENDBRANCH   5   7
BRANCH   1  13
ATOM     13  C   UNL     1       6.549   4.204  15.005  0.00  0.00    +0.000 C 
BRANCH  13  16
ATOM     14  C   UNL     1       6.143   3.478  12.665  0.00  0.00    +0.000 C 
ATOM     15  O   UNL     1       7.101   4.118  12.258  0.00  0.00    +0.000 OA
ATOM     16  N   UNL     1       5.795   3.499  13.986  0.00  0.00    +0.000 N 
ATOM     17  H   UNL     1       4.976   2.953  14.292  0.00  0.00    +0.000 HD
BRANCH  14  18
ATOM     18  C   UNL     1       5.355   2.628  11.710  0.00  0.00    +0.000 C 
BRANCH  18  19
ATOM     19  N   UNL     1       6.073   1.395  11.405  0.00  0.00    +0.000 NA
ATOM     20  H   UNL     1       6.672   1.144  12.224  0.00  0.00    +0.000 HD
ATOM     21  H   UNL     1       6.699   1.560  10.584  0.00  0.00    +0.000 HD
ENDBRANCH  18  19
ENDBRANCH  14  18
ENDBRANCH  13  16
ENDBRANCH   1  13
TORSDOF 5
ENDMDL
MODEL 2
REMARK VINA RESULT:      -7.4      1.528      1.749
REMARK  Name = 
REMARK  5 active torsions:
REMARK  status: ('A' for Active; 'I' for Inactive)
REMARK    1  A    between atoms: N_1  and  C_2
REMARK    2  A    between atoms: C_2  and  C_3
REMARK    3  A    between atoms: N_5  and  C_6
REMARK    4  A    between atoms: C_6  and  C_7
REMARK    5  A    between atoms: C_11  and  C_12
REMARK                            x       y       z     vdW  Elec       q    Type
REMARK                         _______ _______ _______ _____ _____    ______ ____
ROOT
ATOM      1  C   UNL     1       6.357   4.503  15.163  0.00  0.00    +0.000 A 
ATOM      2  C   UNL     1       7.400   4.849  16.033  0.00  0.00    +0.000 A 
ATOM      3  C   UNL     1       7.215   4.778  17.412  0.00  0.00    +0.000 A 
ATOM      4  C   UNL     1       5.984   4.382  17.938  0.00  0.00    +0.000 A 
ATOM      5  C   UNL     1       4.920   4.015  17.089  0.00  0.00    +0.000 A 
ATOM      6  C   UNL     1       5.130   4.071  15.693  0.00  0.00    +0.000 A 
ENDROOT
BRANCH   5   7
ATOM      7  C   UNL     1       3.604   3.583  17.657  0.00  0.00    +0.000 A 
ATOM      8  C   UNL     1       2.533   4.496  17.797  0.00  0.00    +0.000 A 
ATOM      9  C   UNL     1       1.308   4.081  18.325  0.00  0.00    +0.000 A 
ATOM     10  C   UNL     1       1.132   2.760  18.738  0.00  0.00    +0.000 A 
ATOM     11  C   UNL     1       2.177   1.847  18.610  0.00  0.00    +0.000 A 
ATOM     12  C   UNL     1       3.398   2.249  18.064  0.00  0.00    +0.000 A 
ENDBRANCH   5   7
BRANCH   1  13
ATOM     13  C   UNL     1       6.533   4.632  13.674  0.00  0.00    +0.000 C 
BRANCH  13  16
ATOM     14  C   UNL     1       5.606   2.958  12.090  0.00  0.00    +0.000 C 
ATOM     15  O   UNL     1       4.693   3.706  11.772  0.00  0.00    +0.000 OA
ATOM     16  N   UNL     1       6.521   3.330  13.034  0.00  0.00    +0.000 N 
ATOM     17  H   UNL     1       7.273   2.671  13.283  0.00  0.00    +0.000 HD
BRANCH  14  18
ATOM     18  C   UNL     1       5.748   1.626  11.412  0.00  0.00    +0.000 C 
BRANCH  18  19
ATOM     19  N   UNL     1       7.154   1.313  11.182  0.00  0.00    +0.000 NA
ATOM     20  H   UNL     1       7.216   0.429  10.626  0.00  0.00    +0.000 HD
ATOM     21  H   UNL     1       7.622   1.150  12.103  0.00  0.00    +0.000 HD
ENDBRANCH  18  19
ENDBRANCH  14  18
ENDBRANCH  13  16
ENDBRANCH   1  13
TORSDOF 5
ENDMDL
MODEL 3
REMARK VINA RESULT:      -7.4      1.022      1.072
REMARK  Name = 
REMARK  5 active torsions:
REMARK  status: ('A' for Active; 'I' for Inactive)
REMARK    1  A    between atoms: N_1  and  C_2
REMARK    2  A    between atoms: C_2  and  C_3
REMARK    3  A    between atoms: N_5  and  C_6
REMARK    4  A    between atoms: C_6  and  C_7
REMARK    5  A    between atoms: C_11  and  C_12
REMARK                            x       y       z     vdW  Elec       q    Type
REMARK                         _______ _______ _______ _____ _____    ______ ____
ROOT
ATOM      1  C   UNL     1       5.712   5.022  16.651  0.00  0.00    +0.000 A 
ATOM      2  C   UNL     1       5.577   6.396  16.413  0.00  0.00    +0.000 A 
ATOM      3  C   UNL     1       4.497   7.097  16.944  0.00  0.00    +0.000 A 
ATOM      4  C   UNL     1       3.530   6.433  17.700  0.00  0.00    +0.000 A 
ATOM      5  C   UNL     1       3.643   5.053  17.968  0.00  0.00    +0.000 A 
ATOM      6  C   UNL     1       4.757   4.360  17.441  0.00  0.00    +0.000 A 
ENDROOT
BRANCH   5   7
ATOM      7  C   UNL     1       2.608   4.345  18.785  0.00  0.00    +0.000 A 
ATOM      8  C   UNL     1       2.429   4.645  20.156  0.00  0.00    +0.000 A 
ATOM      9  C   UNL     1       1.457   3.981  20.909  0.00  0.00    +0.000 A 
ATOM     10  C   UNL     1       0.662   2.999  20.320  0.00  0.00    +0.000 A 
ATOM     11  C   UNL     1       0.825   2.689  18.971  0.00  0.00    +0.000 A 
ATOM     12  C   UNL     1       1.780   3.362  18.206  0.00  0.00    +0.000 A 
ENDBRANCH   5   7
BRANCH   1  13
ATOM     13  C   UNL     1       6.846   4.249  16.033  0.00  0.00    +0.000 C 
BRANCH  13  16
ATOM     14  C   UNL     1       7.078   4.516  13.574  0.00  0.00    +0.000 C 
ATOM     15  O   UNL     1       7.817   5.480  13.708  0.00  0.00    +0.000 OA
ATOM     16  N   UNL     1       6.541   3.886  14.662  0.00  0.00    +0.000 N 
ATOM     17  H   UNL     1       5.915   3.082  14.511  0.00  0.00    +0.000 HD
BRANCH  14  18
ATOM     18  C   UNL     1       6.779   3.991  12.199  0.00  0.00    +0.000 C 
BRANCH  18  19
ATOM     19  N   UNL     1       6.216   2.647  12.272  0.00  0.00    +0.000 NA
ATOM     20  H   UNL     1       5.494   2.544  11.523  0.00  0.00    +0.000 HD
ATOM     21  H   UNL     1       5.743   2.526  13.197  0.00  0.00    +0.000 HD
ENDBRANCH  18  19
ENDBRANCH  14  18
ENDBRANCH  13  16
ENDBRANCH   1  13
TORSDOF 5
ENDMDL
MODEL 4
REMARK VINA RESULT:      -7.4      1.528      1.785
REMARK  Name = 
REMARK  5 active torsions:
REMARK  status: ('A' for Active; 'I' for Inactive)
REMARK    1  A    between atoms: N_1  and  C_2
REMARK    2  A    between atoms: C_2  and  C_3
REMARK    3  A    between atoms: N_5  and  C_6
REMARK    4  A    between atoms: C_6  and  C_7
REMARK    5  A    between atoms: C_11  and  C_12
REMARK                            x       y       z     vdW  Elec       q    Type
REMARK                         _______ _______ _______ _____ _____    ______ ____
ROOT
ATOM      1  C   UNL     1       6.565   4.515  16.043  0.00  0.00    +0.000 A 
ATOM      2  C   UNL     1       7.421   4.992  17.044  0.00  0.00    +0.000 A 
ATOM      3  C   UNL     1       7.011   4.993  18.376  0.00  0.00    +0.000 A 
ATOM      4  C   UNL     1       5.737   4.538  18.721  0.00  0.00    +0.000 A 
ATOM      5  C   UNL     1       4.857   4.040  17.738  0.00  0.00    +0.000 A 
ATOM      6  C   UNL     1       5.296   4.025  16.394  0.00  0.00    +0.000 A 
ENDROOT
BRANCH   5   7
ATOM      7  C   UNL     1       3.495   3.545  18.112  0.00  0.00    +0.000 A 
ATOM      8  C   UNL     1       3.329   2.354  18.857  0.00  0.00    +0.000 A 
ATOM      9  C   UNL     1       2.052   1.903  19.203  0.00  0.00    +0.000 A 
ATOM     10  C   UNL     1       0.923   2.616  18.803  0.00  0.00    +0.000 A 
ATOM     11  C   UNL     1       1.067   3.791  18.067  0.00  0.00    +0.000 A 
ATOM     12  C   UNL     1       2.340   4.259  17.733  0.00  0.00    +0.000 A 
ENDBRANCH   5   7
BRANCH   1  13
ATOM     13  C   UNL     1       6.981   4.564  14.597  0.00  0.00    +0.000 C 
BRANCH  13  16
ATOM     14  C   UNL     1       6.332   3.509  12.445  0.00  0.00    +0.000 C 
ATOM     15  O   UNL     1       7.179   4.143  11.833  0.00  0.00    +0.000 OA
ATOM     16  N   UNL     1       6.157   3.687  13.788  0.00  0.00    +0.000 N 
ATOM     17  H   UNL     1       5.427   3.142  14.269  0.00  0.00    +0.000 HD
BRANCH  14  18
ATOM     18  C   UNL     1       5.492   2.497  11.721  0.00  0.00    +0.000 C 
BRANCH  18  19
ATOM     19  N   UNL     1       4.212   3.076  11.327  0.00  0.00    +0.000 NA
ATOM     20  H   UNL     1       3.758   2.446  10.627  0.00  0.00    +0.000 HD
ATOM     21  H   UNL     1       4.384   4.000  10.868  0.00  0.00    +0.000 HD
ENDBRANCH  18  19
ENDBRANCH  14  18
ENDBRANCH  13  16
ENDBRANCH   1  13
TORSDOF 5
ENDMDL
MODEL 5
REMARK VINA RESULT:      -7.4      0.692      1.053
REMARK  Name = 
REMARK  5 active torsions:
REMARK  status: ('A' for Active; 'I' for Inactive)
REMARK    1  A    between atoms: N_1  and  C_2
REMARK    2  A    between atoms: C_2  and  C_3
REMARK    3  A    between atoms: N_5  and  C_6
REMARK    4  A    between atoms: C_6  and  C_7
REMARK    5  A    between atoms: C_11  and  C_12
REMARK                            x       y       z     vdW  Elec       q    Type
REMARK                         _______ _______ _______ _____ _____    ______ ____
ROOT
ATOM      1  C   UNL     1       5.630   4.840  15.876  0.00  0.00    +0.000 A 
ATOM      2  C   UNL     1       5.536   6.238  15.846  0.00  0.00    +0.000 A 
ATOM      3  C   UNL     1       4.624   6.896  16.667  0.00  0.00    +0.000 A 
ATOM      4  C   UNL     1       3.783   6.169  17.511  0.00  0.00    +0.000 A 
ATOM      5  C   UNL     1       3.862   4.763  17.573  0.00  0.00    +0.000 A 
ATOM      6  C   UNL     1       4.808   4.110  16.751  0.00  0.00    +0.000 A 
ENDROOT
BRANCH   5   7
ATOM      7  C   UNL     1       2.964   3.987  18.486  0.00  0.00    +0.000 A 
ATOM      8  C   UNL     1       1.696   3.535  18.052  0.00  0.00    +0.000 A 
ATOM      9  C   UNL     1       0.867   2.809  18.912  0.00  0.00    +0.000 A 
ATOM     10  C   UNL     1       1.276   2.534  20.217  0.00  0.00    +0.000 A 
ATOM     11  C   UNL     1       2.522   2.973  20.661  0.00  0.00    +0.000 A 
ATOM     12  C   UNL     1       3.365   3.682  19.803  0.00  0.00    +0.000 A 
ENDBRANCH   5   7
BRANCH   1  13
ATOM     13  C   UNL     1       6.574   4.120  14.950  0.00  0.00    +0.000 C 
BRANCH  13  16
ATOM     14  C   UNL     1       6.169   3.496  12.580  0.00  0.00    +0.000 C 
ATOM     15  O   UNL     1       7.075   4.218  12.193  0.00  0.00    +0.000 OA
ATOM     16  N   UNL     1       5.847   3.423  13.906  0.00  0.00    +0.000 N 
ATOM     17  H   UNL     1       5.071   2.810  14.195  0.00  0.00    +0.000 HD
BRANCH  14  18
ATOM     18  C   UNL     1       5.418   2.649  11.593  0.00  0.00    +0.000 C 
BRANCH  18  19
ATOM     19  N   UNL     1       5.987   1.307  11.528  0.00  0.00    +0.000 NA
ATOM     20  H   UNL     1       6.366   1.149  10.566  0.00  0.00    +0.000 HD
ATOM     21  H   UNL     1       5.229   0.608  11.697  0.00  0.00    +0.000 HD
ENDBRANCH  18  19
ENDBRANCH  14  18
ENDBRANCH  13  16
ENDBRANCH   1  13
TORSDOF 5
ENDMDL
MODEL 6
REMARK VINA RESULT:      -7.3      1.421      1.969
REMARK  Name = 
REMARK  5 active torsions:
REMARK  status: ('A' for Active; 'I' for Inactive)
REMARK    1  A    between atoms: N_1  and  C_2
REMARK    2  A    between atoms: C_2  and  C_3
REMARK    3  A    between atoms: N_5  and  C_6
REMARK    4  A    between atoms: C_6  and  C_7
REMARK    5  A    between atoms: C_11  and  C_12
REMARK                            x       y       z     vdW  Elec       q    Type
REMARK                         _______ _______ _______ _____ _____    ______ ____
ROOT
ATOM      1  C   UNL     1       6.078   4.477  15.248  0.00  0.00    +0.000 A 
ATOM      2  C   UNL     1       7.225   4.711  16.018  0.00  0.00    +0.000 A 
ATOM      3  C   UNL     1       7.167   4.620  17.407  0.00  0.00    +0.000 A 
ATOM      4  C   UNL     1       5.963   4.315  18.043  0.00  0.00    +0.000 A 
ATOM      5  C   UNL     1       4.794   4.063  17.295  0.00  0.00    +0.000 A 
ATOM      6  C   UNL     1       4.874   4.136  15.886  0.00  0.00    +0.000 A 
ENDROOT
BRANCH   5   7
ATOM      7  C   UNL     1       3.506   3.728  17.981  0.00  0.00    +0.000 A 
ATOM      8  C   UNL     1       2.915   2.451  17.842  0.00  0.00    +0.000 A 
ATOM      9  C   UNL     1       1.714   2.148  18.489  0.00  0.00    +0.000 A 
ATOM     10  C   UNL     1       1.073   3.112  19.267  0.00  0.00    +0.000 A 
ATOM     11  C   UNL     1       1.640   4.377  19.413  0.00  0.00    +0.000 A 
ATOM     12  C   UNL     1       2.850   4.681  18.787  0.00  0.00    +0.000 A 
ENDBRANCH   5   7
BRANCH   1  13
ATOM     13  C   UNL     1       6.122   4.629  13.751  0.00  0.00    +0.000 C 
BRANCH  13  16
ATOM     14  C   UNL     1       5.498   2.891  12.090  0.00  0.00    +0.000 C 
ATOM     15  O   UNL     1       4.536   3.542  11.711  0.00  0.00    +0.000 OA
ATOM     16  N   UNL     1       6.296   3.343  13.102  0.00  0.00    +0.000 N 
ATOM     17  H   UNL     1       7.094   2.763  13.402  0.00  0.00    +0.000 HD
BRANCH  14  18
ATOM     18  C   UNL     1       5.830   1.591  11.415  0.00  0.00    +0.000 C 
BRANCH  18  19
ATOM     19  N   UNL     1       7.274   1.443  11.268  0.00  0.00    +0.000 NA
ATOM     20  H   UNL     1       7.543   1.716  10.295  0.00  0.00    +0.000 HD
ATOM     21  H   UNL     1       7.528   0.438  11.404  0.00  0.00    +0.000 HD
ENDBRANCH  18  19
ENDBRANCH  14  18
ENDBRANCH  13  16
ENDBRANCH   1  13
TORSDOF 5
ENDMDL
MODEL 7
REMARK VINA RESULT:      -7.2      1.934      2.273
REMARK  Name = 
REMARK  5 active torsions:
REMARK  status: ('A' for Active; 'I' for Inactive)
REMARK    1  A    between atoms: N_1  and  C_2
REMARK    2  A    between atoms: C_2  and  C_3
REMARK    3  A    between atoms: N_5  and  C_6
REMARK    4  A    between atoms: C_6  and  C_7
REMARK    5  A    between atoms: C_11  and  C_12
REMARK                            x       y       z     vdW  Elec       q    Type
REMARK                         _______ _______ _______ _____ _____    ______ ____
ROOT
ATOM      1  C   UNL     1       5.886   5.354  17.122  0.00  0.00    +0.000 A 
ATOM      2  C   UNL     1       5.646   6.700  16.815  0.00  0.00    +0.000 A 
ATOM      3  C   UNL     1       4.424   7.286  17.139  0.00  0.00    +0.000 A 
ATOM      4  C   UNL     1       3.423   6.533  17.754  0.00  0.00    +0.000 A 
ATOM      5  C   UNL     1       3.638   5.180  18.087  0.00  0.00    +0.000 A 
ATOM      6  C   UNL     1       4.890   4.605  17.772  0.00  0.00    +0.000 A 
ENDROOT
BRANCH   5   7
ATOM      7  C   UNL     1       2.564   4.378  18.754  0.00  0.00    +0.000 A 
ATOM      8  C   UNL     1       2.048   3.206  18.152  0.00  0.00    +0.000 A 
ATOM      9  C   UNL     1       1.047   2.463  18.785  0.00  0.00    +0.000 A 
ATOM     10  C   UNL     1       0.533   2.879  20.013  0.00  0.00    +0.000 A 
ATOM     11  C   UNL     1       1.029   4.032  20.619  0.00  0.00    +0.000 A 
ATOM     12  C   UNL     1       2.043   4.769  20.003  0.00  0.00    +0.000 A 
ENDBRANCH   5   7
BRANCH   1  13
ATOM     13  C   UNL     1       7.182   4.701  16.723  0.00  0.00    +0.000 C 
BRANCH  13  16
ATOM     14  C   UNL     1       7.099   4.569  14.244  0.00  0.00    +0.000 C 
ATOM     15  O   UNL     1       6.318   3.630  14.280  0.00  0.00    +0.000 OA
ATOM     16  N   UNL     1       7.588   5.120  15.395  0.00  0.00    +0.000 N 
ATOM     17  H   UNL     1       8.252   5.905  15.326  0.00  0.00    +0.000 HD
BRANCH  14  18
ATOM     18  C   UNL     1       7.506   5.149  12.920  0.00  0.00    +0.000 C 
BRANCH  18  19
ATOM     19  N   UNL     1       8.702   5.973  13.065  0.00  0.00    +0.000 NA
ATOM     20  H   UNL     1       9.540   5.392  12.835  0.00  0.00    +0.000 HD
ATOM     21  H   UNL     1       8.784   6.280  14.061  0.00  0.00    +0.000 HD
ENDBRANCH  18  19
ENDBRANCH  14  18
ENDBRANCH  13  16
ENDBRANCH   1  13
TORSDOF 5
ENDMDL
MODEL 8
REMARK VINA RESULT:      -7.2      1.255      1.291
REMARK  Name = 
REMARK  5 active torsions:
REMARK  status: ('A' for Active; 'I' for Inactive)
REMARK    1  A    between atoms: N_1  and  C_2
REMARK    2  A    between atoms: C_2  and  C_3
REMARK    3  A    between atoms: N_5  and  C_6
REMARK    4  A    between atoms: C_6  and  C_7
REMARK    5  A    between atoms: C_11  and  C_12
REMARK                            x       y       z     vdW  Elec       q    Type
REMARK                         _______ _______ _______ _____ _____    ______ ____
ROOT
ATOM      1  C   UNL     1       6.565   4.787  16.505  0.00  0.00    +0.000 A 
ATOM      2  C   UNL     1       7.339   5.442  17.473  0.00  0.00    +0.000 A 
ATOM      3  C   UNL     1       6.856   5.593  18.771  0.00  0.00    +0.000 A 
ATOM      4  C   UNL     1       5.592   5.111  19.113  0.00  0.00    +0.000 A 
ATOM      5  C   UNL     1       4.795   4.437  18.165  0.00  0.00    +0.000 A 
ATOM      6  C   UNL     1       5.307   4.272  16.858  0.00  0.00    +0.000 A 
ENDROOT
BRANCH   5   7
ATOM      7  C   UNL     1       3.442   3.915  18.537  0.00  0.00    +0.000 A 
ATOM      8  C   UNL     1       2.662   4.549  19.532  0.00  0.00    +0.000 A 
ATOM      9  C   UNL     1       1.399   4.055  19.869  0.00  0.00    +0.000 A 
ATOM     10  C   UNL     1       0.899   2.916  19.239  0.00  0.00    +0.000 A 
ATOM     11  C   UNL     1       1.655   2.277  18.258  0.00  0.00    +0.000 A 
ATOM     12  C   UNL     1       2.909   2.776  17.900  0.00  0.00    +0.000 A 
ENDBRANCH   5   7
BRANCH   1  13
ATOM     13  C   UNL     1       7.058   4.672  15.087  0.00  0.00    +0.000 C 
BRANCH  13  16
ATOM     14  C   UNL     1       6.245   3.788  12.913  0.00  0.00    +0.000 C 
ATOM     15  O   UNL     1       7.185   4.288  12.313  0.00  0.00    +0.000 OA
ATOM     16  N   UNL     1       6.101   3.961  14.261  0.00  0.00    +0.000 N 
ATOM     17  H   UNL     1       5.291   3.533  14.732  0.00  0.00    +0.000 HD
BRANCH  14  18
ATOM     18  C   UNL     1       5.251   2.944  12.169  0.00  0.00    +0.000 C 
BRANCH  18  19
ATOM     19  N   UNL     1       5.901   1.774  11.588  0.00  0.00    +0.000 NA
ATOM     20  H   UNL     1       6.919   1.802  11.828  0.00  0.00    +0.000 HD
ATOM     21  H   UNL     1       5.812   1.817  10.548  0.00  0.00    +0.000 HD
ENDBRANCH  18  19
ENDBRANCH  14  18
ENDBRANCH  13  16
ENDBRANCH   1  13
TORSDOF 5
ENDMDL
MODEL 9
REMARK VINA RESULT:      -7.2      3.237      6.526
REMARK  Name = 
REMARK  5 active torsions:
REMARK  status: ('A' for Active; 'I' for Inactive)
REMARK    1  A    between atoms: N_1  and  C_2
REMARK    2  A    between atoms: C_2  and  C_3
REMARK    3  A    between atoms: N_5  and  C_6
REMARK    4  A    between atoms: C_6  and  C_7
REMARK    5  A    between atoms: C_11  and  C_12
REMARK                            x       y       z     vdW  Elec       q    Type
REMARK                         _______ _______ _______ _____ _____    ______ ____
ROOT
ATOM      1  C   UNL     1       4.650   5.526  17.776  0.00  0.00    +0.000 A 
ATOM      2  C   UNL     1       5.676   5.363  18.717  0.00  0.00    +0.000 A 
ATOM      3  C   UNL     1       6.947   4.968  18.306  0.00  0.00    +0.000 A 
ATOM      4  C   UNL     1       7.204   4.712  16.958  0.00  0.00    +0.000 A 
ATOM      5  C   UNL     1       6.196   4.878  15.986  0.00  0.00    +0.000 A 
ATOM      6  C   UNL     1       4.917   5.301  16.415  0.00  0.00    +0.000 A 
ENDROOT
BRANCH   5   7
ATOM      7  C   UNL     1       6.477   4.609  14.540  0.00  0.00    +0.000 A 
ATOM      8  C   UNL     1       5.710   3.673  13.808  0.00  0.00    +0.000 A 
ATOM      9  C   UNL     1       5.979   3.433  12.458  0.00  0.00    +0.000 A 
ATOM     10  C   UNL     1       7.021   4.103  11.819  0.00  0.00    +0.000 A 
ATOM     11  C   UNL     1       7.789   5.027  12.525  0.00  0.00    +0.000 A 
ATOM     12  C   UNL     1       7.514   5.288  13.870  0.00  0.00    +0.000 A 
ENDBRANCH   5   7
BRANCH   1  13
ATOM     13  C   UNL     1       3.261   5.897  18.221  0.00  0.00    +0.000 C 
BRANCH  13  16
ATOM     14  C   UNL     1       1.637   4.029  18.423  0.00  0.00    +0.000 C 
ATOM     15  O   UNL     1       1.169   4.263  17.318  0.00  0.00    +0.000 OA
ATOM     16  N   UNL     1       2.636   4.804  18.941  0.00  0.00    +0.000 N 
ATOM     17  H   UNL     1       3.000   4.582  19.879  0.00  0.00    +0.000 HD
BRANCH  14  18
ATOM     18  C   UNL     1       1.133   2.854  19.210  0.00  0.00    +0.000 C 
BRANCH  18  19
ATOM     19  N   UNL     1       1.546   1.601  18.587  0.00  0.00    +0.000 NA
ATOM     20  H   UNL     1       0.701   1.004  18.439  0.00  0.00    +0.000 HD
ATOM     21  H   UNL     1       2.191   1.095  19.237  0.00  0.00    +0.000 HD
ENDBRANCH  18  19
ENDBRANCH  14  18
ENDBRANCH  13  16
ENDBRANCH   1  13
TORSDOF 5
ENDMDL
