MODEL 1
REMARK VINA RESULT:      -6.2      0.000      0.000
REMARK  Name = 
REMARK  15 active torsions:
REMARK  status: ('A' for Active; 'I' for Inactive)
REMARK    1  A    between atoms: C_1  and  C_2
REMARK    2  A    between atoms: C_2  and  O_3
REMARK    3  A    between atoms: O_3  and  C_4
REMARK    4  A    between atoms: C_4  and  C_6
REMARK    5  A    between atoms: C_6  and  C_7
REMARK    6  A    between atoms: C_7  and  C_8
REMARK    7  A    between atoms: C_8  and  C_9
REMARK    8  A    between atoms: C_9  and  C_10
REMARK    9  A    between atoms: C_10  and  O_11
REMARK   10  A    between atoms: O_11  and  C_12
REMARK   11  A    between atoms: C_17  and  C_18
REMARK   12  A    between atoms: C_18  and  N_19
REMARK   13  A    between atoms: N_19  and  C_20
REMARK   14  A    between atoms: C_20  and  C_21
REMARK   15  A    between atoms: C_20  and  C_22
REMARK                            x       y       z     vdW  Elec       q    Type
REMARK                         _______ _______ _______ _____ _____    ______ ____
ROOT
ATOM      1  C   UNL     1       6.631   5.013  18.271  0.00  0.00    +0.000 A 
ATOM      2  C   UNL     1       7.560   5.593  19.155  0.00  0.00    +0.000 A 
ATOM      3  C   UNL     1       8.142   6.835  18.902  0.00  0.00    +0.000 A 
ATOM      4  C   UNL     1       7.788   7.533  17.759  0.00  0.00    +0.000 A 
ATOM      5  C   UNL     1       6.875   6.971  16.868  0.00  0.00    +0.000 A 
ATOM      6  C   UNL     1       6.291   5.697  17.089  0.00  0.00    +0.000 A 
ENDROOT
BRANCH   1   7
ATOM      7  O   UNL     1       6.114   3.855  18.789  0.00  0.00    +0.000 OA
BRANCH   7   8
ATOM      8  C   UNL     1       4.814   3.859  19.363  0.00  0.00    +0.000 C 
BRANCH   8   9
ATOM      9  C   UNL     1       4.519   2.457  19.890  0.00  0.00    +0.000 C 
BRANCH   9  10
ATOM     10  C   UNL     1       4.047   1.484  18.801  0.00  0.00    +0.000 C 
BRANCH  10  11
ATOM     11  C   UNL     1       3.183   2.151  17.734  0.00  0.00    +0.000 C 
BRANCH  11  12
ATOM     12  C   UNL     1       1.725   2.256  18.174  0.00  0.00    +0.000 C 
BRANCH  12  13
ATOM     13  C   UNL     1       1.281   3.696  18.239  0.00  0.00    +0.000 C 
ATOM     14  O   UNL     1       0.991   4.391  17.276  0.00  0.00    +0.000 OA
BRANCH  13  15
ATOM     15  O   UNL     1       1.328   4.123  19.533  0.00  0.00    +0.000 OA
BRANCH  15  17
ATOM     16  C   UNL     1       1.732   3.176  21.689  0.00  0.00    +0.000 C 
ATOM     17  C   UNL     1       0.795   3.203  20.494  0.00  0.00    +0.000 C 
ENDBRANCH  15  17
ENDBRANCH  13  15
ENDBRANCH  12  13
ENDBRANCH  11  12
ENDBRANCH  10  11
ENDBRANCH   9  10
ENDBRANCH   8   9
ENDBRANCH   7   8
ENDBRANCH   1   7
BRANCH   6  18
ATOM     18  C   UNL     1       5.305   5.243  16.036  0.00  0.00    +0.000 C 
BRANCH  18  19
ATOM     19  N   UNL     1       5.771   5.570  14.688  0.00  0.00    +0.000 NA
ATOM     20  H   UNL     1       6.275   6.457  14.739  0.00  0.00    +0.000 HD
BRANCH  19  21
ATOM     21  C   UNL     1       6.637   4.547  14.102  0.00  0.00    +0.000 C 
ATOM     22  C   UNL     1       5.869   3.615  13.158  0.00  0.00    +0.000 C 
ATOM     23  C   UNL     1       7.758   5.242  13.321  0.00  0.00    +0.000 C 
ENDBRANCH  19  21
ENDBRANCH  18  19
ENDBRANCH   6  18
TORSDOF 12
ENDMDL
MODEL 2
REMARK VINA RESULT:      -6.2      1.704      2.470
REMARK  Name = 
REMARK  15 active torsions:
REMARK  status: ('A' for Active; 'I' for Inactive)
REMARK    1  A    between atoms: C_1  and  C_2
REMARK    2  A    between atoms: C_2  and  O_3
REMARK    3  A    between atoms: O_3  and  C_4
REMARK    4  A    between atoms: C_4  and  C_6
REMARK    5  A    between atoms: C_6  and  C_7
REMARK    6  A    between atoms: C_7  and  C_8
REMARK    7  A    between atoms: C_8  and  C_9
REMARK    8  A    between atoms: C_9  and  C_10
REMARK    9  A    between atoms: C_10  and  O_11
REMARK   10  A    between atoms: O_11  and  C_12
REMARK   11  A    between atoms: C_17  and  C_18
REMARK   12  A    between atoms: C_18  and  N_19
REMARK   13  A    between atoms: N_19  and  C_20
REMARK   14  A    between atoms: C_20  and  C_21
REMARK   15  A    between atoms: C_20  and  C_22
REMARK                            x       y       z     vdW  Elec       q    Type
REMARK                         _______ _______ _______ _____ _____    ______ ____
ROOT
ATOM      1  C   UNL     1       5.693   4.341  17.295  0.00  0.00    +0.000 A 
ATOM      2  C   UNL     1       5.929   4.587  18.661  0.00  0.00    +0.000 A 
ATOM      3  C   UNL     1       6.789   5.597  19.090  0.00  0.00    +0.000 A 
ATOM      4  C   UNL     1       7.420   6.398  18.153  0.00  0.00    +0.000 A 
ATOM      5  C   UNL     1       7.205   6.165  16.796  0.00  0.00    +0.000 A 
ATOM      6  C   UNL     1       6.358   5.125  16.334  0.00  0.00    +0.000 A 
ENDROOT
BRANCH   1   7
ATOM      7  O   UNL     1       4.727   3.384  17.126  0.00  0.00    +0.000 OA
BRANCH   7   8
ATOM      8  C   UNL     1       3.376   3.774  16.930  0.00  0.00    +0.000 C 
BRANCH   8   9
ATOM      9  C   UNL     1       2.475   2.653  17.441  0.00  0.00    +0.000 C 
BRANCH   9  10
ATOM     10  C   UNL     1       2.959   2.037  18.760  0.00  0.00    +0.000 C 
BRANCH  10  11
ATOM     11  C   UNL     1       1.930   2.139  19.883  0.00  0.00    +0.000 C 
BRANCH  11  12
ATOM     12  C   UNL     1       1.078   3.398  19.755  0.00  0.00    +0.000 C 
BRANCH  12  13
ATOM     13  C   UNL     1       1.802   4.602  20.303  0.00  0.00    +0.000 C 
ATOM     14  O   UNL     1       2.227   4.713  21.445  0.00  0.00    +0.000 OA
BRANCH  13  15
ATOM     15  O   UNL     1       1.840   5.577  19.351  0.00  0.00    +0.000 OA
BRANCH  15  17
ATOM     16  C   UNL     1       2.996   7.323  18.200  0.00  0.00    +0.000 C 
ATOM     17  C   UNL     1       2.925   6.505  19.478  0.00  0.00    +0.000 C 
ENDBRANCH  15  17
ENDBRANCH  13  15
ENDBRANCH  12  13
ENDBRANCH  11  12
ENDBRANCH  10  11
ENDBRANCH   9  10
ENDBRANCH   8   9
ENDBRANCH   7   8
ENDBRANCH   1   7
BRANCH   6  18
ATOM     18  C   UNL     1       6.217   5.021  14.832  0.00  0.00    +0.000 C 
BRANCH  18  19
ATOM     19  N   UNL     1       6.246   3.628  14.386  0.00  0.00    +0.000 NA
ATOM     20  H   UNL     1       5.392   3.176  14.717  0.00  0.00    +0.000 HD
BRANCH  19  21
ATOM     21  C   UNL     1       6.349   3.478  12.934  0.00  0.00    +0.000 C 
ATOM     22  C   UNL     1       4.980   3.553  12.250  0.00  0.00    +0.000 C 
ATOM     23  C   UNL     1       7.246   4.595  12.389  0.00  0.00    +0.000 C 
ENDBRANCH  19  21
ENDBRANCH  18  19
ENDBRANCH   6  18
TORSDOF 12
ENDMDL
MODEL 3
REMARK VINA RESULT:      -6.1      3.154      6.452
REMARK  Name = 
REMARK  15 active torsions:
REMARK  status: ('A' for Active; 'I' for Inactive)
REMARK    1  A    between atoms: C_1  and  C_2
REMARK    2  A    between atoms: C_2  and  O_3
REMARK    3  A    between atoms: O_3  and  C_4
REMARK    4  A    between atoms: C_4  and  C_6
REMARK    5  A    between atoms: C_6  and  C_7
REMARK    6  A    between atoms: C_7  and  C_8
REMARK    7  A    between atoms: C_8  and  C_9
REMARK    8  A    between atoms: C_9  and  C_10
REMARK    9  A    between atoms: C_10  and  O_11
REMARK   10  A    between atoms: O_11  and  C_12
REMARK   11  A    between atoms: C_17  and  C_18
REMARK   12  A    between atoms: C_18  and  N_19
REMARK   13  A    between atoms: N_19  and  C_20
REMARK   14  A    between atoms: C_20  and  C_21
REMARK   15  A    between atoms: C_20  and  C_22
REMARK                            x       y       z     vdW  Elec       q    Type
REMARK                         _______ _______ _______ _____ _____    ______ ____
ROOT
ATOM      1  C   UNL     1       2.731   6.354  18.595  0.00  0.00    +0.000 A 
ATOM      2  C   UNL     1       2.741   7.528  17.819  0.00  0.00    +0.000 A 
ATOM      3  C   UNL     1       2.195   8.724  18.284  0.00  0.00    +0.000 A 
ATOM      4  C   UNL     1       1.641   8.772  19.552  0.00  0.00    +0.000 A 
ATOM      5  C   UNL     1       1.615   7.617  20.333  0.00  0.00    +0.000 A 
ATOM      6  C   UNL     1       2.138   6.383  19.871  0.00  0.00    +0.000 A 
ENDROOT
BRANCH   1   7
ATOM      7  O   UNL     1       3.425   5.348  17.977  0.00  0.00    +0.000 OA
BRANCH   7   8
ATOM      8  C   UNL     1       2.720   4.328  17.284  0.00  0.00    +0.000 C 
BRANCH   8   9
ATOM      9  C   UNL     1       3.707   3.218  16.933  0.00  0.00    +0.000 C 
BRANCH   9  10
ATOM     10  C   UNL     1       5.136   3.725  16.696  0.00  0.00    +0.000 C 
BRANCH  10  11
ATOM     11  C   UNL     1       5.356   4.258  15.283  0.00  0.00    +0.000 C 
BRANCH  11  12
ATOM     12  C   UNL     1       6.836   4.501  14.995  0.00  0.00    +0.000 C 
BRANCH  12  13
ATOM     13  C   UNL     1       7.561   4.960  16.235  0.00  0.00    +0.000 C 
ATOM     14  O   UNL     1       8.095   4.226  17.055  0.00  0.00    +0.000 OA
BRANCH  13  15
ATOM     15  O   UNL     1       7.462   6.316  16.338  0.00  0.00    +0.000 OA
BRANCH  15  17
ATOM     16  C   UNL     1       7.768   8.314  17.612  0.00  0.00    +0.000 C 
ATOM     17  C   UNL     1       7.485   6.823  17.678  0.00  0.00    +0.000 C 
ENDBRANCH  15  17
ENDBRANCH  13  15
ENDBRANCH  12  13
ENDBRANCH  11  12
ENDBRANCH  10  11
ENDBRANCH   9  10
ENDBRANCH   8   9
ENDBRANCH   7   8
ENDBRANCH   1   7
BRANCH   6  18
ATOM     18  C   UNL     1       2.049   5.233  20.850  0.00  0.00    +0.000 C 
BRANCH  18  19
ATOM     19  N   UNL     1       0.931   4.344  20.534  0.00  0.00    +0.000 NA
ATOM     20  H   UNL     1       0.701   4.471  19.546  0.00  0.00    +0.000 HD
BRANCH  19  21
ATOM     21  C   UNL     1       1.212   2.932  20.794  0.00  0.00    +0.000 C 
ATOM     22  C   UNL     1       1.220   2.100  19.507  0.00  0.00    +0.000 C 
ATOM     23  C   UNL     1       2.581   2.822  21.474  0.00  0.00    +0.000 C 
ENDBRANCH  19  21
ENDBRANCH  18  19
ENDBRANCH   6  18
TORSDOF 12
ENDMDL
MODEL 4
REMARK VINA RESULT:      -6.1      2.364      2.898
REMARK  Name = 
REMARK  15 active torsions:
REMARK  status: ('A' for Active; 'I' for Inactive)
REMARK    1  A    between atoms: C_1  and  C_2
REMARK    2  A    between atoms: C_2  and  O_3
REMARK    3  A    between atoms: O_3  and  C_4
REMARK    4  A    between atoms: C_4  and  C_6
REMARK    5  A    between atoms: C_6  and  C_7
REMARK    6  A    between atoms: C_7  and  C_8
REMARK    7  A    between atoms: C_8  and  C_9
REMARK    8  A    between atoms: C_9  and  C_10
REMARK    9  A    between atoms: C_10  and  O_11
REMARK   10  A    between atoms: O_11  and  C_12
REMARK   11  A    between atoms: C_17  and  C_18
REMARK   12  A    between atoms: C_18  and  N_19
REMARK   13  A    between atoms: N_19  and  C_20
REMARK   14  A    between atoms: C_20  and  C_21
REMARK   15  A    between atoms: C_20  and  C_22
REMARK                            x       y       z     vdW  Elec       q    Type
REMARK                         _______ _______ _______ _____ _____    ______ ____
ROOT
ATOM      1  C   UNL     1       5.095   4.790  17.564  0.00  0.00    +0.000 A 
ATOM      2  C   UNL     1       5.476   4.893  18.915  0.00  0.00    +0.000 A 
ATOM      3  C   UNL     1       6.642   5.552  19.303  0.00  0.00    +0.000 A 
ATOM      4  C   UNL     1       7.445   6.140  18.341  0.00  0.00    +0.000 A 
ATOM      5  C   UNL     1       7.089   6.040  16.996  0.00  0.00    +0.000 A 
ATOM      6  C   UNL     1       5.923   5.352  16.574  0.00  0.00    +0.000 A 
ENDROOT
BRANCH   1   7
ATOM      7  O   UNL     1       3.861   4.206  17.443  0.00  0.00    +0.000 OA
BRANCH   7   8
ATOM      8  C   UNL     1       3.687   2.844  17.808  0.00  0.00    +0.000 C 
BRANCH   8   9
ATOM      9  C   UNL     1       2.213   2.621  18.134  0.00  0.00    +0.000 C 
BRANCH   9  10
ATOM     10  C   UNL     1       1.466   3.912  18.492  0.00  0.00    +0.000 C 
BRANCH  10  11
ATOM     11  C   UNL     1       1.225   4.070  19.990  0.00  0.00    +0.000 C 
BRANCH  11  12
ATOM     12  C   UNL     1       2.267   4.979  20.637  0.00  0.00    +0.000 C 
BRANCH  12  13
ATOM     13  C   UNL     1       2.073   6.413  20.216  0.00  0.00    +0.000 C 
ATOM     14  O   UNL     1       2.690   6.979  19.325  0.00  0.00    +0.000 OA
BRANCH  13  15
ATOM     15  O   UNL     1       1.157   7.003  21.037  0.00  0.00    +0.000 OA
BRANCH  15  17
ATOM     16  C   UNL     1       0.133   9.148  20.792  0.00  0.00    +0.000 C 
ATOM     17  C   UNL     1       1.366   8.401  21.271  0.00  0.00    +0.000 C 
ENDBRANCH  15  17
ENDBRANCH  13  15
ENDBRANCH  12  13
ENDBRANCH  11  12
ENDBRANCH  10  11
ENDBRANCH   9  10
ENDBRANCH   8   9
ENDBRANCH   7   8
ENDBRANCH   1   7
BRANCH   6  18
ATOM     18  C   UNL     1       5.670   5.355  15.083  0.00  0.00    +0.000 C 
BRANCH  18  19
ATOM     19  N   UNL     1       5.473   4.001  14.569  0.00  0.00    +0.000 NA
ATOM     20  H   UNL     1       4.484   3.897  14.334  0.00  0.00    +0.000 HD
BRANCH  19  21
ATOM     21  C   UNL     1       6.290   3.693  13.395  0.00  0.00    +0.000 C 
ATOM     22  C   UNL     1       5.437   3.485  12.138  0.00  0.00    +0.000 C 
ATOM     23  C   UNL     1       7.262   4.853  13.157  0.00  0.00    +0.000 C 
ENDBRANCH  19  21
ENDBRANCH  18  19
ENDBRANCH   6  18
TORSDOF 12
ENDMDL
MODEL 5
REMARK VINA RESULT:      -6.1      3.406      7.143
REMARK  Name = 
REMARK  15 active torsions:
REMARK  status: ('A' for Active; 'I' for Inactive)
REMARK    1  A    between atoms: C_1  and  C_2
REMARK    2  A    between atoms: C_2  and  O_3
REMARK    3  A    between atoms: O_3  and  C_4
REMARK    4  A    between atoms: C_4  and  C_6
REMARK    5  A    between atoms: C_6  and  C_7
REMARK    6  A    between atoms: C_7  and  C_8
REMARK    7  A    between atoms: C_8  and  C_9
REMARK    8  A    between atoms: C_9  and  C_10
REMARK    9  A    between atoms: C_10  and  O_11
REMARK   10  A    between atoms: O_11  and  C_12
REMARK   11  A    between atoms: C_17  and  C_18
REMARK   12  A    between atoms: C_18  and  N_19
REMARK   13  A    between atoms: N_19  and  C_20
REMARK   14  A    between atoms: C_20  and  C_21
REMARK   15  A    between atoms: C_20  and  C_22
REMARK                            x       y       z     vdW  Elec       q    Type
REMARK                         _______ _______ _______ _____ _____    ______ ____
ROOT
ATOM      1  C   UNL     1       2.462   3.951  18.279  0.00  0.00    +0.000 A 
ATOM      2  C   UNL     1       1.568   2.877  18.111  0.00  0.00    +0.000 A 
ATOM      3  C   UNL     1       0.714   2.462  19.131  0.00  0.00    +0.000 A 
ATOM      4  C   UNL     1       0.725   3.132  20.344  0.00  0.00    +0.000 A 
ATOM      5  C   UNL     1       1.610   4.193  20.533  0.00  0.00    +0.000 A 
ATOM      6  C   UNL     1       2.508   4.615  19.520  0.00  0.00    +0.000 A 
ENDROOT
BRANCH   1   7
ATOM      7  O   UNL     1       3.108   4.244  17.107  0.00  0.00    +0.000 OA
BRANCH   7   8
ATOM      8  C   UNL     1       4.468   3.872  16.939  0.00  0.00    +0.000 C 
BRANCH   8   9
ATOM      9  C   UNL     1       5.267   5.124  16.588  0.00  0.00    +0.000 C 
BRANCH   9  10
ATOM     10  C   UNL     1       5.526   5.279  15.083  0.00  0.00    +0.000 C 
BRANCH  10  11
ATOM     11  C   UNL     1       5.194   4.022  14.285  0.00  0.00    +0.000 C 
BRANCH  11  12
ATOM     12  C   UNL     1       6.229   3.755  13.196  0.00  0.00    +0.000 C 
BRANCH  12  13
ATOM     13  C   UNL     1       5.606   3.057  12.013  0.00  0.00    +0.000 C 
ATOM     14  O   UNL     1       5.977   1.990  11.546  0.00  0.00    +0.000 OA
BRANCH  13  15
ATOM     15  O   UNL     1       4.615   3.840  11.499  0.00  0.00    +0.000 OA
BRANCH  15  17
ATOM     16  C   UNL     1       3.022   3.967   9.722  0.00  0.00    +0.000 C 
ATOM     17  C   UNL     1       3.541   3.125  10.875  0.00  0.00    +0.000 C 
ENDBRANCH  15  17
ENDBRANCH  13  15
ENDBRANCH  12  13
ENDBRANCH  11  12
ENDBRANCH  10  11
ENDBRANCH   9  10
ENDBRANCH   8   9
ENDBRANCH   7   8
ENDBRANCH   1   7
BRANCH   6  18
ATOM     18  C   UNL     1       3.385   5.793  19.879  0.00  0.00    +0.000 C 
BRANCH  18  19
ATOM     19  N   UNL     1       3.207   6.901  18.941  0.00  0.00    +0.000 NA
ATOM     20  H   UNL     1       3.306   6.527  17.995  0.00  0.00    +0.000 HD
BRANCH  19  21
ATOM     21  C   UNL     1       1.917   7.577  19.069  0.00  0.00    +0.000 C 
ATOM     22  C   UNL     1       1.641   8.025  20.508  0.00  0.00    +0.000 C 
ATOM     23  C   UNL     1       1.914   8.804  18.150  0.00  0.00    +0.000 C 
ENDBRANCH  19  21
ENDBRANCH  18  19
ENDBRANCH   6  18
TORSDOF 12
ENDMDL
MODEL 6
REMARK VINA RESULT:      -6.0      1.865      2.789
REMARK  Name = 
REMARK  15 active torsions:
REMARK  status: ('A' for Active; 'I' for Inactive)
REMARK    1  A    between atoms: C_1  and  C_2
REMARK    2  A    between atoms: C_2  and  O_3
REMARK    3  A    between atoms: O_3  and  C_4
REMARK    4  A    between atoms: C_4  and  C_6
REMARK    5  A    between atoms: C_6  and  C_7
REMARK    6  A    between atoms: C_7  and  C_8
REMARK    7  A    between atoms: C_8  and  C_9
REMARK    8  A    between atoms: C_9  and  C_10
REMARK    9  A    between atoms: C_10  and  O_11
REMARK   10  A    between atoms: O_11  and  C_12
REMARK   11  A    between atoms: C_17  and  C_18
REMARK   12  A    between atoms: C_18  and  N_19
REMARK   13  A    between atoms: N_19  and  C_20
REMARK   14  A    between atoms: C_20  and  C_21
REMARK   15  A    between atoms: C_20  and  C_22
REMARK                            x       y       z     vdW  Elec       q    Type
REMARK                         _______ _______ _______ _____ _____    ______ ____
ROOT
ATOM      1  C   UNL     1       5.523   3.877  16.849  0.00  0.00    +0.000 A 
ATOM      2  C   UNL     1       6.007   4.403  18.061  0.00  0.00    +0.000 A 
ATOM      3  C   UNL     1       6.763   5.574  18.107  0.00  0.00    +0.000 A 
ATOM      4  C   UNL     1       7.034   6.256  16.933  0.00  0.00    +0.000 A 
ATOM      5  C   UNL     1       6.570   5.747  15.721  0.00  0.00    +0.000 A 
ATOM      6  C   UNL     1       5.824   4.543  15.645  0.00  0.00    +0.000 A 
ENDROOT
BRANCH   1   7
ATOM      7  O   UNL     1       4.714   2.794  17.069  0.00  0.00    +0.000 OA
BRANCH   7   8
ATOM      8  C   UNL     1       3.575   2.924  17.909  0.00  0.00    +0.000 C 
BRANCH   8   9
ATOM      9  C   UNL     1       2.434   3.509  17.080  0.00  0.00    +0.000 C 
BRANCH   9  10
ATOM     10  C   UNL     1       1.690   4.650  17.787  0.00  0.00    +0.000 C 
BRANCH  10  11
ATOM     11  C   UNL     1       2.588   5.841  18.111  0.00  0.00    +0.000 C 
BRANCH  11  12
ATOM     12  C   UNL     1       3.012   5.847  19.577  0.00  0.00    +0.000 C 
BRANCH  12  13
ATOM     13  C   UNL     1       1.854   6.201  20.476  0.00  0.00    +0.000 C 
ATOM     14  O   UNL     1       1.493   7.337  20.750  0.00  0.00    +0.000 OA
BRANCH  13  15
ATOM     15  O   UNL     1       1.322   5.058  20.996  0.00  0.00    +0.000 OA
BRANCH  15  17
ATOM     16  C   UNL     1       1.553   2.728  21.470  0.00  0.00    +0.000 C 
ATOM     17  C   UNL     1       2.280   4.057  21.362  0.00  0.00    +0.000 C 
ENDBRANCH  15  17
ENDBRANCH  13  15
ENDBRANCH  12  13
ENDBRANCH  11  12
ENDBRANCH  10  11
ENDBRANCH   9  10
ENDBRANCH   8   9
ENDBRANCH   7   8
ENDBRANCH   1   7
BRANCH   6  18
ATOM     18  C   UNL     1       5.379   4.140  14.257  0.00  0.00    +0.000 C 
BRANCH  18  19
ATOM     19  N   UNL     1       6.442   3.445  13.533  0.00  0.00    +0.000 NA
ATOM     20  H   UNL     1       6.516   2.501  13.918  0.00  0.00    +0.000 HD
BRANCH  19  21
ATOM     21  C   UNL     1       6.217   3.369  12.089  0.00  0.00    +0.000 C 
ATOM     22  C   UNL     1       6.824   2.101  11.478  0.00  0.00    +0.000 C 
ATOM     23  C   UNL     1       4.707   3.381  11.828  0.00  0.00    +0.000 C 
ENDBRANCH  19  21
ENDBRANCH  18  19
ENDBRANCH   6  18
TORSDOF 12
ENDMDL
MODEL 7
REMARK VINA RESULT:      -5.9      1.547      2.261
REMARK  Name = 
REMARK  15 active torsions:
REMARK  status: ('A' for Active; 'I' for Inactive)
REMARK    1  A    between atoms: C_1  and  C_2
REMARK    2  A    between atoms: C_2  and  O_3
REMARK    3  A    between atoms: O_3  and  C_4
REMARK    4  A    between atoms: C_4  and  C_6
REMARK    5  A    between atoms: C_6  and  C_7
REMARK    6  A    between atoms: C_7  and  C_8
REMARK    7  A    between atoms: C_8  and  C_9
REMARK    8  A    between atoms: C_9  and  C_10
REMARK    9  A    between atoms: C_10  and  O_11
REMARK   10  A    between atoms: O_11  and  C_12
REMARK   11  A    between atoms: C_17  and  C_18
REMARK   12  A    between atoms: C_18  and  N_19
REMARK   13  A    between atoms: N_19  and  C_20
REMARK   14  A    between atoms: C_20  and  C_21
REMARK   15  A    between atoms: C_20  and  C_22
REMARK                            x       y       z     vdW  Elec       q    Type
REMARK                         _______ _______ _______ _____ _____    ______ ____
ROOT
ATOM      1  C   UNL     1       5.791   4.452  17.193  0.00  0.00    +0.000 A 
ATOM      2  C   UNL     1       6.125   4.709  18.536  0.00  0.00    +0.000 A 
ATOM      3  C   UNL     1       7.031   5.708  18.891  0.00  0.00    +0.000 A 
ATOM      4  C   UNL     1       7.610   6.486  17.902  0.00  0.00    +0.000 A 
ATOM      5  C   UNL     1       7.298   6.240  16.566  0.00  0.00    +0.000 A 
ATOM      6  C   UNL     1       6.401   5.212  16.178  0.00  0.00    +0.000 A 
ENDROOT
BRANCH   1   7
ATOM      7  O   UNL     1       4.798   3.512  17.103  0.00  0.00    +0.000 OA
BRANCH   7   8
ATOM      8  C   UNL     1       3.469   3.853  17.470  0.00  0.00    +0.000 C 
BRANCH   8   9
ATOM      9  C   UNL     1       2.669   2.563  17.627  0.00  0.00    +0.000 C 
BRANCH   9  10
ATOM     10  C   UNL     1       3.135   1.697  18.806  0.00  0.00    +0.000 C 
BRANCH  10  11
ATOM     11  C   UNL     1       3.870   2.493  19.881  0.00  0.00    +0.000 C 
BRANCH  11  12
ATOM     12  C   UNL     1       3.192   2.364  21.242  0.00  0.00    +0.000 C 
BRANCH  12  13
ATOM     13  C   UNL     1       1.950   3.216  21.313  0.00  0.00    +0.000 C 
ATOM     14  O   UNL     1       0.801   2.797  21.276  0.00  0.00    +0.000 OA
BRANCH  13  15
ATOM     15  O   UNL     1       2.308   4.531  21.347  0.00  0.00    +0.000 OA
BRANCH  15  17
ATOM     16  C   UNL     1       2.469   6.362  19.819  0.00  0.00    +0.000 C 
ATOM     17  C   UNL     1       1.525   5.393  20.510  0.00  0.00    +0.000 C 
ENDBRANCH  15  17
ENDBRANCH  13  15
ENDBRANCH  12  13
ENDBRANCH  11  12
ENDBRANCH  10  11
ENDBRANCH   9  10
ENDBRANCH   8   9
ENDBRANCH   7   8
ENDBRANCH   1   7
BRANCH   6  18
ATOM     18  C   UNL     1       6.156   5.092  14.690  0.00  0.00    +0.000 C 
BRANCH  18  19
ATOM     19  N   UNL     1       6.072   3.693  14.271  0.00  0.00    +0.000 NA
ATOM     20  H   UNL     1       5.122   3.367  14.459  0.00  0.00    +0.000 HD
BRANCH  19  21
ATOM     21  C   UNL     1       6.392   3.483  12.859  0.00  0.00    +0.000 C 
ATOM     22  C   UNL     1       5.132   3.334  11.999  0.00  0.00    +0.000 C 
ATOM     23  C   UNL     1       7.206   4.681  12.357  0.00  0.00    +0.000 C 
ENDBRANCH  19  21
ENDBRANCH  18  19
ENDBRANCH   6  18
TORSDOF 12
ENDMDL
MODEL 8
REMARK VINA RESULT:      -5.9      2.244      6.207
REMARK  Name = 
REMARK  15 active torsions:
REMARK  status: ('A' for Active; 'I' for Inactive)
REMARK    1  A    between atoms: C_1  and  C_2
REMARK    2  A    between atoms: C_2  and  O_3
REMARK    3  A    between atoms: O_3  and  C_4
REMARK    4  A    between atoms: C_4  and  C_6
REMARK    5  A    between atoms: C_6  and  C_7
REMARK    6  A    between atoms: C_7  and  C_8
REMARK    7  A    between atoms: C_8  and  C_9
REMARK    8  A    between atoms: C_9  and  C_10
REMARK    9  A    between atoms: C_10  and  O_11
REMARK   10  A    between atoms: O_11  and  C_12
REMARK   11  A    between atoms: C_17  and  C_18
REMARK   12  A    between atoms: C_18  and  N_19
REMARK   13  A    between atoms: N_19  and  C_20
REMARK   14  A    between atoms: C_20  and  C_21
REMARK   15  A    between atoms: C_20  and  C_22
REMARK                            x       y       z     vdW  Elec       q    Type
REMARK                         _______ _______ _______ _____ _____    ______ ____
ROOT
ATOM      1  C   UNL     1       3.208   3.386  19.601  0.00  0.00    +0.000 A 
ATOM      2  C   UNL     1       3.458   2.623  20.757  0.00  0.00    +0.000 A 
ATOM      3  C   UNL     1       2.455   2.339  21.683  0.00  0.00    +0.000 A 
ATOM      4  C   UNL     1       1.169   2.800  21.458  0.00  0.00    +0.000 A 
ATOM      5  C   UNL     1       0.903   3.565  20.322  0.00  0.00    +0.000 A 
ATOM      6  C   UNL     1       1.913   3.891  19.381  0.00  0.00    +0.000 A 
ENDROOT
BRANCH   1   7
ATOM      7  O   UNL     1       4.312   3.431  18.791  0.00  0.00    +0.000 OA
BRANCH   7   8
ATOM      8  C   UNL     1       5.573   3.792  19.338  0.00  0.00    +0.000 C 
BRANCH   8   9
ATOM      9  C   UNL     1       5.688   5.314  19.311  0.00  0.00    +0.000 C 
BRANCH   9  10
ATOM     10  C   UNL     1       6.798   5.824  18.382  0.00  0.00    +0.000 C 
BRANCH  10  11
ATOM     11  C   UNL     1       7.311   4.757  17.418  0.00  0.00    +0.000 C 
BRANCH  11  12
ATOM     12  C   UNL     1       7.042   5.134  15.964  0.00  0.00    +0.000 C 
BRANCH  12  13
ATOM     13  C   UNL     1       5.848   4.390  15.422  0.00  0.00    +0.000 C 
ATOM     14  O   UNL     1       4.692   4.543  15.790  0.00  0.00    +0.000 OA
BRANCH  13  15
ATOM     15  O   UNL     1       6.270   3.464  14.514  0.00  0.00    +0.000 OA
BRANCH  15  17
ATOM     16  C   UNL     1       5.331   3.349  12.319  0.00  0.00    +0.000 C 
ATOM     17  C   UNL     1       6.428   3.956  13.177  0.00  0.00    +0.000 C 
ENDBRANCH  15  17
ENDBRANCH  13  15
ENDBRANCH  12  13
ENDBRANCH  11  12
ENDBRANCH  10  11
ENDBRANCH   9  10
ENDBRANCH   8   9
ENDBRANCH   7   8
ENDBRANCH   1   7
BRANCH   6  18
ATOM     18  C   UNL     1       1.454   4.710  18.194  0.00  0.00    +0.000 C 
BRANCH  18  19
ATOM     19  N   UNL     1       2.518   5.584  17.702  0.00  0.00    +0.000 NA
ATOM     20  H   UNL     1       2.520   5.530  16.682  0.00  0.00    +0.000 HD
BRANCH  19  21
ATOM     21  C   UNL     1       2.372   6.979  18.119  0.00  0.00    +0.000 C 
ATOM     22  C   UNL     1       2.371   7.127  19.644  0.00  0.00    +0.000 C 
ATOM     23  C   UNL     1       3.535   7.789  17.535  0.00  0.00    +0.000 C 
ENDBRANCH  19  21
ENDBRANCH  18  19
ENDBRANCH   6  18
TORSDOF 12
ENDMDL
MODEL 9
REMARK VINA RESULT:      -5.9      3.262      6.737
REMARK  Name = 
REMARK  15 active torsions:
REMARK  status: ('A' for Active; 'I' for Inactive)
REMARK    1  A    between atoms: C_1  and  C_2
REMARK    2  A    between atoms: C_2  and  O_3
REMARK    3  A    between atoms: O_3  and  C_4
REMARK    4  A    between atoms: C_4  and  C_6
REMARK    5  A    between atoms: C_6  and  C_7
REMARK    6  A    between atoms: C_7  and  C_8
REMARK    7  A    between atoms: C_8  and  C_9
REMARK    8  A    between atoms: C_9  and  C_10
REMARK    9  A    between atoms: C_10  and  O_11
REMARK   10  A    between atoms: O_11  and  C_12
REMARK   11  A    between atoms: C_17  and  C_18
REMARK   12  A    between atoms: C_18  and  N_19
REMARK   13  A    between atoms: N_19  and  C_20
REMARK   14  A    between atoms: C_20  and  C_21
REMARK   15  A    between atoms: C_20  and  C_22
REMARK                            x       y       z     vdW  Elec       q    Type
REMARK                         _______ _______ _______ _____ _____    ______ ____
ROOT
ATOM      1  C   UNL     1       4.068   3.962  18.878  0.00  0.00    +0.000 A 
ATOM      2  C   UNL     1       3.933   2.652  18.382  0.00  0.00    +0.000 A 
ATOM      3  C   UNL     1       2.693   2.124  18.024  0.00  0.00    +0.000 A 
ATOM      4  C   UNL     1       1.559   2.910  18.138  0.00  0.00    +0.000 A 
ATOM      5  C   UNL     1       1.671   4.208  18.635  0.00  0.00    +0.000 A 
ATOM      6  C   UNL     1       2.917   4.757  19.033  0.00  0.00    +0.000 A 
ENDROOT
BRANCH   1   7
ATOM      7  O   UNL     1       5.387   4.292  19.047  0.00  0.00    +0.000 OA
BRANCH   7   8
ATOM      8  C   UNL     1       6.221   4.464  17.911  0.00  0.00    +0.000 C 
BRANCH   8   9
ATOM      9  C   UNL     1       5.677   5.629  17.089  0.00  0.00    +0.000 C 
BRANCH   9  10
ATOM     10  C   UNL     1       5.139   5.207  15.715  0.00  0.00    +0.000 C 
BRANCH  10  11
ATOM     11  C   UNL     1       5.971   4.110  15.056  0.00  0.00    +0.000 C 
BRANCH  11  12
ATOM     12  C   UNL     1       6.526   4.556  13.707  0.00  0.00    +0.000 C 
BRANCH  12  13
ATOM     13  C   UNL     1       6.137   3.592  12.614  0.00  0.00    +0.000 C 
ATOM     14  O   UNL     1       6.916   3.021  11.864  0.00  0.00    +0.000 OA
BRANCH  13  15
ATOM     15  O   UNL     1       4.777   3.518  12.542  0.00  0.00    +0.000 OA
BRANCH  15  17
ATOM     16  C   UNL     1       3.650   3.902  10.471  0.00  0.00    +0.000 C 
ATOM     17  C   UNL     1       4.268   2.853  11.379  0.00  0.00    +0.000 C 
ENDBRANCH  15  17
ENDBRANCH  13  15
ENDBRANCH  12  13
ENDBRANCH  11  12
ENDBRANCH  10  11
ENDBRANCH   9  10
ENDBRANCH   8   9
ENDBRANCH   7   8
ENDBRANCH   1   7
BRANCH   6  18
ATOM     18  C   UNL     1       2.868   6.185  19.530  0.00  0.00    +0.000 C 
BRANCH  18  19
ATOM     19  N   UNL     1       2.517   7.115  18.458  0.00  0.00    +0.000 NA
ATOM     20  H   UNL     1       1.717   6.725  17.956  0.00  0.00    +0.000 HD
BRANCH  19  21
ATOM     21  C   UNL     1       2.190   8.460  18.930  0.00  0.00    +0.000 C 
ATOM     22  C   UNL     1       1.350   9.240  17.912  0.00  0.00    +0.000 C 
ATOM     23  C   UNL     1       1.409   8.342  20.243  0.00  0.00    +0.000 C 
ENDBRANCH  19  21
ENDBRANCH  18  19
ENDBRANCH   6  18
TORSDOF 12
ENDMDL
