MODEL 1
REMARK VINA RESULT:      -9.8      0.000      0.000
REMARK  Name = 
REMARK  2 active torsions:
REMARK  status: ('A' for Active; 'I' for Inactive)
REMARK    1  A    between atoms: C_10  and  C_11
REMARK    2  A    between atoms: N_20  and  C_21
REMARK                            x       y       z     vdW  Elec       q    Type
REMARK                         _______ _______ _______ _____ _____    ______ ____
ROOT
ATOM      1  O   UNL     1       4.140   1.858  17.517  0.00  0.00    +0.000 OA
ATOM      2  C   UNL     1       3.701   2.934  17.882  0.00  0.00    +0.000 C 
ATOM      3  C   UNL     1       2.676   3.078  18.922  0.00  0.00    +0.000 A 
ATOM      4  C   UNL     1       2.079   2.072  19.665  0.00  0.00    +0.000 A 
ATOM      5  C   UNL     1       1.136   2.452  20.617  0.00  0.00    +0.000 A 
ATOM      6  C   UNL     1       0.821   3.808  20.798  0.00  0.00    +0.000 A 
ATOM      7  C   UNL     1       1.454   4.807  20.040  0.00  0.00    +0.000 A 
ATOM      8  C   UNL     1       2.397   4.436  19.095  0.00  0.00    +0.000 A 
ATOM      9  C   UNL     1       3.261   5.184  18.167  0.00  0.00    +0.000 C 
ATOM     10  C   UNL     1       3.289   6.500  17.896  0.00  0.00    +0.000 C 
ATOM     11  N   UNL     1       4.038   4.234  17.496  0.00  0.00    +0.000 N 
ENDROOT
BRANCH  10  12
ATOM     12  C   UNL     1       2.456   7.543  18.493  0.00  0.00    +0.000 A 
ATOM     13  C   UNL     1       1.911   8.551  17.690  0.00  0.00    +0.000 A 
ATOM     14  C   UNL     1       1.140   9.580  18.243  0.00  0.00    +0.000 A 
ATOM     15  C   UNL     1       0.937   9.562  19.627  0.00  0.00    +0.000 A 
ATOM     16  N   UNL     1       0.247  10.437  20.436  0.00  0.00    +0.000 N 
ATOM     17  C   UNL     1       0.307  10.021  21.740  0.00  0.00    +0.000 A 
ATOM     18  C   UNL     1       1.051   8.865  21.781  0.00  0.00    +0.000 A 
ATOM     19  C   UNL     1       1.460   8.567  20.454  0.00  0.00    +0.000 A 
ATOM     20  C   UNL     1       2.234   7.541  19.878  0.00  0.00    +0.000 A 
ATOM     21  H   UNL     1      -0.226  11.268  20.111  0.00  0.00    +0.000 HD
ENDBRANCH  10  12
BRANCH  11  22
ATOM     22  C   UNL     1       5.104   4.457  16.597  0.00  0.00    +0.000 A 
ATOM     23  C   UNL     1       4.877   4.411  15.219  0.00  0.00    +0.000 A 
ATOM     24  C   UNL     1       5.935   4.607  14.330  0.00  0.00    +0.000 A 
ATOM     25  C   UNL     1       7.226   4.805  14.815  0.00  0.00    +0.000 A 
ATOM     26  C   UNL     1       7.461   4.835  16.190  0.00  0.00    +0.000 A 
ATOM     27  C   UNL     1       6.398   4.682  17.081  0.00  0.00    +0.000 A 
ENDBRANCH  11  22
TORSDOF 2
ENDMDL
MODEL 2
REMARK VINA RESULT:      -9.2      0.503      1.395
REMARK  Name = 
REMARK  2 active torsions:
REMARK  status: ('A' for Active; 'I' for Inactive)
REMARK    1  A    between atoms: C_10  and  C_11
REMARK    2  A    between atoms: N_20  and  C_21
REMARK                            x       y       z     vdW  Elec       q    Type
REMARK                         _______ _______ _______ _____ _____    ______ ____
ROOT
ATOM      1  O   UNL     1       4.085   1.820  17.462  0.00  0.00    +0.000 OA
ATOM      2  C   UNL     1       3.663   2.888  17.869  0.00  0.00    +0.000 C 
ATOM      3  C   UNL     1       2.658   3.008  18.931  0.00  0.00    +0.000 A 
ATOM      4  C   UNL     1       2.064   1.985  19.652  0.00  0.00    +0.000 A 
ATOM      5  C   UNL     1       1.142   2.342  20.632  0.00  0.00    +0.000 A 
ATOM      6  C   UNL     1       0.844   3.695  20.863  0.00  0.00    +0.000 A 
ATOM      7  C   UNL     1       1.474   4.712  20.126  0.00  0.00    +0.000 A 
ATOM      8  C   UNL     1       2.396   4.363  19.153  0.00  0.00    +0.000 A 
ATOM      9  C   UNL     1       3.251   5.131  18.235  0.00  0.00    +0.000 C 
ATOM     10  C   UNL     1       3.288   6.455  18.006  0.00  0.00    +0.000 C 
ATOM     11  N   UNL     1       4.007   4.197  17.520  0.00  0.00    +0.000 N 
ENDROOT
BRANCH  10  12
ATOM     12  C   UNL     1       2.477   7.487  18.651  0.00  0.00    +0.000 A 
ATOM     13  C   UNL     1       2.289   7.466  20.038  0.00  0.00    +0.000 A 
ATOM     14  C   UNL     1       1.489   8.421  20.675  0.00  0.00    +0.000 A 
ATOM     15  C   UNL     1       0.885   9.395  19.873  0.00  0.00    +0.000 A 
ATOM     16  N   UNL     1       0.047  10.433  20.214  0.00  0.00    +0.000 N 
ATOM     17  C   UNL     1      -0.302  11.145  19.097  0.00  0.00    +0.000 A 
ATOM     18  C   UNL     1       0.310  10.558  18.014  0.00  0.00    +0.000 A 
ATOM     19  C   UNL     1       1.058   9.448  18.490  0.00  0.00    +0.000 A 
ATOM     20  C   UNL     1       1.867   8.477  17.868  0.00  0.00    +0.000 A 
ATOM     21  H   UNL     1      -0.267  10.633  21.153  0.00  0.00    +0.000 HD
ENDBRANCH  10  12
BRANCH  11  22
ATOM     22  C   UNL     1       5.059   4.439  16.610  0.00  0.00    +0.000 A 
ATOM     23  C   UNL     1       4.814   4.410  15.234  0.00  0.00    +0.000 A 
ATOM     24  C   UNL     1       5.858   4.624  14.334  0.00  0.00    +0.000 A 
ATOM     25  C   UNL     1       7.155   4.824  14.804  0.00  0.00    +0.000 A 
ATOM     26  C   UNL     1       7.408   4.835  16.176  0.00  0.00    +0.000 A 
ATOM     27  C   UNL     1       6.358   4.664  17.079  0.00  0.00    +0.000 A 
ENDBRANCH  11  22
TORSDOF 2
ENDMDL
MODEL 3
REMARK VINA RESULT:      -8.4      4.307      9.396
REMARK  Name = 
REMARK  2 active torsions:
REMARK  status: ('A' for Active; 'I' for Inactive)
REMARK    1  A    between atoms: C_10  and  C_11
REMARK    2  A    between atoms: N_20  and  C_21
REMARK                            x       y       z     vdW  Elec       q    Type
REMARK                         _______ _______ _______ _____ _____    ______ ____
ROOT
ATOM      1  O   UNL     1      -4.145  13.032  19.900  0.00  0.00    +0.000 OA
ATOM      2  C   UNL     1      -3.184  12.331  19.638  0.00  0.00    +0.000 C 
ATOM      3  C   UNL     1      -3.098  11.493  18.438  0.00  0.00    +0.000 A 
ATOM      4  C   UNL     1      -4.029  11.380  17.418  0.00  0.00    +0.000 A 
ATOM      5  C   UNL     1      -3.722  10.528  16.360  0.00  0.00    +0.000 A 
ATOM      6  C   UNL     1      -2.508   9.822  16.351  0.00  0.00    +0.000 A 
ATOM      7  C   UNL     1      -1.576   9.968  17.392  0.00  0.00    +0.000 A 
ATOM      8  C   UNL     1      -1.874  10.819  18.444  0.00  0.00    +0.000 A 
ATOM      9  C   UNL     1      -1.150  11.235  19.656  0.00  0.00    +0.000 C 
ATOM     10  C   UNL     1       0.018  10.790  20.151  0.00  0.00    +0.000 C 
ATOM     11  N   UNL     1      -1.969  12.162  20.309  0.00  0.00    +0.000 N 
ENDROOT
BRANCH  10  12
ATOM     12  C   UNL     1       0.891   9.769  19.572  0.00  0.00    +0.000 A 
ATOM     13  C   UNL     1       1.489   9.983  18.326  0.00  0.00    +0.000 A 
ATOM     14  C   UNL     1       2.300   9.007  17.735  0.00  0.00    +0.000 A 
ATOM     15  C   UNL     1       2.489   7.812  18.439  0.00  0.00    +0.000 A 
ATOM     16  N   UNL     1       3.210   6.688  18.105  0.00  0.00    +0.000 N 
ATOM     17  C   UNL     1       3.119   5.755  19.103  0.00  0.00    +0.000 A 
ATOM     18  C   UNL     1       2.323   6.275  20.097  0.00  0.00    +0.000 A 
ATOM     19  C   UNL     1       1.913   7.573  19.687  0.00  0.00    +0.000 A 
ATOM     20  C   UNL     1       1.099   8.567  20.263  0.00  0.00    +0.000 A 
ATOM     21  H   UNL     1       3.724   6.571  17.243  0.00  0.00    +0.000 HD
ENDBRANCH  10  12
BRANCH  11  22
ATOM     22  C   UNL     1      -1.669  12.941  21.447  0.00  0.00    +0.000 A 
ATOM     23  C   UNL     1      -2.206  12.598  22.691  0.00  0.00    +0.000 A 
ATOM     24  C   UNL     1      -1.929  13.382  23.812  0.00  0.00    +0.000 A 
ATOM     25  C   UNL     1      -1.154  14.533  23.685  0.00  0.00    +0.000 A 
ATOM     26  C   UNL     1      -0.631  14.890  22.442  0.00  0.00    +0.000 A 
ATOM     27  C   UNL     1      -0.870  14.085  21.328  0.00  0.00    +0.000 A 
ENDBRANCH  11  22
TORSDOF 2
ENDMDL
MODEL 4
REMARK VINA RESULT:      -8.2      2.190      6.653
REMARK  Name = 
REMARK  2 active torsions:
REMARK  status: ('A' for Active; 'I' for Inactive)
REMARK    1  A    between atoms: C_10  and  C_11
REMARK    2  A    between atoms: N_20  and  C_21
REMARK                            x       y       z     vdW  Elec       q    Type
REMARK                         _______ _______ _______ _____ _____    ______ ____
ROOT
ATOM      1  O   UNL     1       0.712   6.781  21.490  0.00  0.00    +0.000 OA
ATOM      2  C   UNL     1       1.552   6.532  20.645  0.00  0.00    +0.000 C 
ATOM      3  C   UNL     1       2.180   5.215  20.493  0.00  0.00    +0.000 A 
ATOM      4  C   UNL     1       1.919   4.065  21.222  0.00  0.00    +0.000 A 
ATOM      5  C   UNL     1       2.631   2.917  20.886  0.00  0.00    +0.000 A 
ATOM      6  C   UNL     1       3.573   2.949  19.844  0.00  0.00    +0.000 A 
ATOM      7  C   UNL     1       3.805   4.126  19.113  0.00  0.00    +0.000 A 
ATOM      8  C   UNL     1       3.095   5.270  19.439  0.00  0.00    +0.000 A 
ATOM      9  C   UNL     1       3.051   6.634  18.890  0.00  0.00    +0.000 C 
ATOM     10  C   UNL     1       3.814   7.199  17.938  0.00  0.00    +0.000 C 
ATOM     11  N   UNL     1       2.089   7.329  19.630  0.00  0.00    +0.000 N 
ENDROOT
BRANCH  10  12
ATOM     12  C   UNL     1       4.891   6.566  17.177  0.00  0.00    +0.000 A 
ATOM     13  C   UNL     1       6.224   6.755  17.559  0.00  0.00    +0.000 A 
ATOM     14  C   UNL     1       7.273   6.189  16.827  0.00  0.00    +0.000 A 
ATOM     15  C   UNL     1       6.939   5.430  15.700  0.00  0.00    +0.000 A 
ATOM     16  N   UNL     1       7.746   4.777  14.796  0.00  0.00    +0.000 N 
ATOM     17  C   UNL     1       6.983   4.150  13.848  0.00  0.00    +0.000 A 
ATOM     18  C   UNL     1       5.661   4.404  14.134  0.00  0.00    +0.000 A 
ATOM     19  C   UNL     1       5.620   5.217  15.299  0.00  0.00    +0.000 A 
ATOM     20  C   UNL     1       4.578   5.796  16.049  0.00  0.00    +0.000 A 
ATOM     21  H   UNL     1       8.756   4.771  14.829  0.00  0.00    +0.000 HD
ENDBRANCH  10  12
BRANCH  11  22
ATOM     22  C   UNL     1       1.591   8.632  19.408  0.00  0.00    +0.000 A 
ATOM     23  C   UNL     1       1.266   9.450  20.493  0.00  0.00    +0.000 A 
ATOM     24  C   UNL     1       0.751  10.728  20.275  0.00  0.00    +0.000 A 
ATOM     25  C   UNL     1       0.518  11.174  18.975  0.00  0.00    +0.000 A 
ATOM     26  C   UNL     1       0.825  10.355  17.889  0.00  0.00    +0.000 A 
ATOM     27  C   UNL     1       1.380   9.092  18.103  0.00  0.00    +0.000 A 
ENDBRANCH  11  22
TORSDOF 2
ENDMDL
MODEL 5
REMARK VINA RESULT:      -8.0      1.864      6.679
REMARK  Name = 
REMARK  2 active torsions:
REMARK  status: ('A' for Active; 'I' for Inactive)
REMARK    1  A    between atoms: C_10  and  C_11
REMARK    2  A    between atoms: N_20  and  C_21
REMARK                            x       y       z     vdW  Elec       q    Type
REMARK                         _______ _______ _______ _____ _____    ______ ____
ROOT
ATOM      1  O   UNL     1       1.160   5.205  20.807  0.00  0.00    +0.000 OA
ATOM      2  C   UNL     1       1.933   5.096  19.872  0.00  0.00    +0.000 C 
ATOM      3  C   UNL     1       2.437   3.808  19.385  0.00  0.00    +0.000 A 
ATOM      4  C   UNL     1       2.115   2.543  19.852  0.00  0.00    +0.000 A 
ATOM      5  C   UNL     1       2.709   1.455  19.218  0.00  0.00    +0.000 A 
ATOM      6  C   UNL     1       3.597   1.658  18.149  0.00  0.00    +0.000 A 
ATOM      7  C   UNL     1       3.893   2.952  17.688  0.00  0.00    +0.000 A 
ATOM      8  C   UNL     1       3.300   4.038  18.311  0.00  0.00    +0.000 A 
ATOM      9  C   UNL     1       3.346   5.491  18.088  0.00  0.00    +0.000 C 
ATOM     10  C   UNL     1       4.106   6.204  17.238  0.00  0.00    +0.000 C 
ATOM     11  N   UNL     1       2.485   6.064  19.028  0.00  0.00    +0.000 N 
ENDROOT
BRANCH  10  12
ATOM     12  C   UNL     1       5.086   5.687  16.283  0.00  0.00    +0.000 A 
ATOM     13  C   UNL     1       6.453   5.898  16.498  0.00  0.00    +0.000 A 
ATOM     14  C   UNL     1       7.408   5.444  15.581  0.00  0.00    +0.000 A 
ATOM     15  C   UNL     1       6.943   4.774  14.444  0.00  0.00    +0.000 A 
ATOM     16  N   UNL     1       7.637   4.238  13.382  0.00  0.00    +0.000 N 
ATOM     17  C   UNL     1       6.769   3.666  12.490  0.00  0.00    +0.000 A 
ATOM     18  C   UNL     1       5.493   3.838  12.974  0.00  0.00    +0.000 A 
ATOM     19  C   UNL     1       5.589   4.542  14.205  0.00  0.00    +0.000 A 
ATOM     20  C   UNL     1       4.644   5.007  15.140  0.00  0.00    +0.000 A 
ATOM     21  H   UNL     1       8.641   4.272  13.277  0.00  0.00    +0.000 HD
ENDBRANCH  10  12
BRANCH  11  22
ATOM     22  C   UNL     1       2.090   7.416  19.140  0.00  0.00    +0.000 A 
ATOM     23  C   UNL     1       1.701   7.930  20.380  0.00  0.00    +0.000 A 
ATOM     24  C   UNL     1       1.288   9.259  20.487  0.00  0.00    +0.000 A 
ATOM     25  C   UNL     1       1.218  10.062  19.350  0.00  0.00    +0.000 A 
ATOM     26  C   UNL     1       1.588   9.548  18.107  0.00  0.00    +0.000 A 
ATOM     27  C   UNL     1       2.043   8.232  18.004  0.00  0.00    +0.000 A 
ENDBRANCH  11  22
TORSDOF 2
ENDMDL
MODEL 6
REMARK VINA RESULT:      -7.8      1.567      2.022
REMARK  Name = 
REMARK  2 active torsions:
REMARK  status: ('A' for Active; 'I' for Inactive)
REMARK    1  A    between atoms: C_10  and  C_11
REMARK    2  A    between atoms: N_20  and  C_21
REMARK                            x       y       z     vdW  Elec       q    Type
REMARK                         _______ _______ _______ _____ _____    ______ ____
ROOT
ATOM      1  O   UNL     1       4.656   3.080  17.900  0.00  0.00    +0.000 OA
ATOM      2  C   UNL     1       3.982   3.968  18.388  0.00  0.00    +0.000 C 
ATOM      3  C   UNL     1       2.677   3.741  19.018  0.00  0.00    +0.000 A 
ATOM      4  C   UNL     1       2.025   2.531  19.196  0.00  0.00    +0.000 A 
ATOM      5  C   UNL     1       0.792   2.557  19.843  0.00  0.00    +0.000 A 
ATOM      6  C   UNL     1       0.252   3.775  20.288  0.00  0.00    +0.000 A 
ATOM      7  C   UNL     1       0.944   4.984  20.106  0.00  0.00    +0.000 A 
ATOM      8  C   UNL     1       2.174   4.964  19.469  0.00  0.00    +0.000 A 
ATOM      9  C   UNL     1       3.170   5.996  19.140  0.00  0.00    +0.000 C 
ATOM     10  C   UNL     1       3.098   7.331  19.282  0.00  0.00    +0.000 C 
ATOM     11  N   UNL     1       4.239   5.335  18.527  0.00  0.00    +0.000 N 
ENDROOT
BRANCH  10  12
ATOM     12  C   UNL     1       1.987   8.102  19.838  0.00  0.00    +0.000 A 
ATOM     13  C   UNL     1       1.142   8.826  18.989  0.00  0.00    +0.000 A 
ATOM     14  C   UNL     1       0.093   9.599  19.499  0.00  0.00    +0.000 A 
ATOM     15  C   UNL     1      -0.077   9.621  20.888  0.00  0.00    +0.000 A 
ATOM     16  N   UNL     1      -0.997  10.293  21.660  0.00  0.00    +0.000 N 
ATOM     17  C   UNL     1      -0.794  10.015  22.986  0.00  0.00    +0.000 A 
ATOM     18  C   UNL     1       0.277   9.157  23.078  0.00  0.00    +0.000 A 
ATOM     19  C   UNL     1       0.743   8.905  21.759  0.00  0.00    +0.000 A 
ATOM     20  C   UNL     1       1.794   8.133  21.226  0.00  0.00    +0.000 A 
ATOM     21  H   UNL     1      -1.712  10.907  21.297  0.00  0.00    +0.000 HD
ENDBRANCH  10  12
BRANCH  11  22
ATOM     22  C   UNL     1       5.489   5.869  18.142  0.00  0.00    +0.000 A 
ATOM     23  C   UNL     1       6.589   5.757  18.996  0.00  0.00    +0.000 A 
ATOM     24  C   UNL     1       7.818   6.305  18.627  0.00  0.00    +0.000 A 
ATOM     25  C   UNL     1       7.939   7.004  17.427  0.00  0.00    +0.000 A 
ATOM     26  C   UNL     1       6.839   7.134  16.579  0.00  0.00    +0.000 A 
ATOM     27  C   UNL     1       5.620   6.550  16.926  0.00  0.00    +0.000 A 
ENDBRANCH  11  22
TORSDOF 2
ENDMDL
MODEL 7
REMARK VINA RESULT:      -7.8      4.465      9.642
REMARK  Name = 
REMARK  2 active torsions:
REMARK  status: ('A' for Active; 'I' for Inactive)
REMARK    1  A    between atoms: C_10  and  C_11
REMARK    2  A    between atoms: N_20  and  C_21
REMARK                            x       y       z     vdW  Elec       q    Type
REMARK                         _______ _______ _______ _____ _____    ______ ____
ROOT
ATOM      1  O   UNL     1      -3.900  13.631  20.034  0.00  0.00    +0.000 OA
ATOM      2  C   UNL     1      -3.040  12.778  19.914  0.00  0.00    +0.000 C 
ATOM      3  C   UNL     1      -3.042  11.773  18.846  0.00  0.00    +0.000 A 
ATOM      4  C   UNL     1      -3.955  11.641  17.812  0.00  0.00    +0.000 A 
ATOM      5  C   UNL     1      -3.743  10.613  16.896  0.00  0.00    +0.000 A 
ATOM      6  C   UNL     1      -2.639   9.758  17.037  0.00  0.00    +0.000 A 
ATOM      7  C   UNL     1      -1.721   9.925  18.088  0.00  0.00    +0.000 A 
ATOM      8  C   UNL     1      -1.924  10.949  18.998  0.00  0.00    +0.000 A 
ATOM      9  C   UNL     1      -1.179  11.433  20.171  0.00  0.00    +0.000 C 
ATOM     10  C   UNL     1      -0.096  10.912  20.773  0.00  0.00    +0.000 C 
ATOM     11  N   UNL     1      -1.877  12.545  20.653  0.00  0.00    +0.000 N 
ENDROOT
BRANCH  10  12
ATOM     12  C   UNL     1       0.642   9.711  20.380  0.00  0.00    +0.000 A 
ATOM     13  C   UNL     1       0.723   8.622  21.253  0.00  0.00    +0.000 A 
ATOM     14  C   UNL     1       1.451   7.476  20.915  0.00  0.00    +0.000 A 
ATOM     15  C   UNL     1       2.094   7.463  19.672  0.00  0.00    +0.000 A 
ATOM     16  N   UNL     1       2.880   6.496  19.087  0.00  0.00    +0.000 N 
ATOM     17  C   UNL     1       3.298   6.910  17.851  0.00  0.00    +0.000 A 
ATOM     18  C   UNL     1       2.784   8.167  17.631  0.00  0.00    +0.000 A 
ATOM     19  C   UNL     1       2.026   8.530  18.776  0.00  0.00    +0.000 A 
ATOM     20  C   UNL     1       1.288   9.675  19.136  0.00  0.00    +0.000 A 
ATOM     21  H   UNL     1       3.118   5.612  19.516  0.00  0.00    +0.000 HD
ENDBRANCH  10  12
BRANCH  11  22
ATOM     22  C   UNL     1      -1.499  13.432  21.685  0.00  0.00    +0.000 A 
ATOM     23  C   UNL     1      -1.990  13.248  22.981  0.00  0.00    +0.000 A 
ATOM     24  C   UNL     1      -1.636  14.138  23.995  0.00  0.00    +0.000 A 
ATOM     25  C   UNL     1      -0.829  15.238  23.709  0.00  0.00    +0.000 A 
ATOM     26  C   UNL     1      -0.351  15.436  22.414  0.00  0.00    +0.000 A 
ATOM     27  C   UNL     1      -0.668  14.524  21.407  0.00  0.00    +0.000 A 
ENDBRANCH  11  22
TORSDOF 2
ENDMDL
MODEL 8
REMARK VINA RESULT:      -7.7      4.607      9.800
REMARK  Name = 
REMARK  2 active torsions:
REMARK  status: ('A' for Active; 'I' for Inactive)
REMARK    1  A    between atoms: C_10  and  C_11
REMARK    2  A    between atoms: N_20  and  C_21
REMARK                            x       y       z     vdW  Elec       q    Type
REMARK                         _______ _______ _______ _____ _____    ______ ____
ROOT
ATOM      1  O   UNL     1      -4.347  13.547  20.022  0.00  0.00    +0.000 OA
ATOM      2  C   UNL     1      -3.441  12.743  19.901  0.00  0.00    +0.000 C 
ATOM      3  C   UNL     1      -3.359  11.775  18.802  0.00  0.00    +0.000 A 
ATOM      4  C   UNL     1      -4.233  11.631  17.737  0.00  0.00    +0.000 A 
ATOM      5  C   UNL     1      -3.941  10.646  16.797  0.00  0.00    +0.000 A 
ATOM      6  C   UNL     1      -2.798   9.844  16.945  0.00  0.00    +0.000 A 
ATOM      7  C   UNL     1      -1.922  10.023  18.028  0.00  0.00    +0.000 A 
ATOM      8  C   UNL     1      -2.204  11.005  18.964  0.00  0.00    +0.000 A 
ATOM      9  C   UNL     1      -1.520  11.488  20.174  0.00  0.00    +0.000 C 
ATOM     10  C   UNL     1      -0.429  11.004  20.792  0.00  0.00    +0.000 C 
ATOM     11  N   UNL     1      -2.289  12.546  20.669  0.00  0.00    +0.000 N 
ENDROOT
BRANCH  10  12
ATOM     12  C   UNL     1       0.381   9.856  20.384  0.00  0.00    +0.000 A 
ATOM     13  C   UNL     1       0.509   8.752  21.233  0.00  0.00    +0.000 A 
ATOM     14  C   UNL     1       1.307   7.657  20.882  0.00  0.00    +0.000 A 
ATOM     15  C   UNL     1       1.970   7.710  19.650  0.00  0.00    +0.000 A 
ATOM     16  N   UNL     1       2.819   6.803  19.058  0.00  0.00    +0.000 N 
ATOM     17  C   UNL     1       3.233   7.270  17.839  0.00  0.00    +0.000 A 
ATOM     18  C   UNL     1       2.652   8.501  17.638  0.00  0.00    +0.000 A 
ATOM     19  C   UNL     1       1.856   8.793  18.779  0.00  0.00    +0.000 A 
ATOM     20  C   UNL     1       1.049   9.885  19.152  0.00  0.00    +0.000 A 
ATOM     21  H   UNL     1       3.099   5.924  19.470  0.00  0.00    +0.000 HD
ENDBRANCH  10  12
BRANCH  11  22
ATOM     22  C   UNL     1      -1.988  13.417  21.739  0.00  0.00    +0.000 A 
ATOM     23  C   UNL     1      -1.151  14.517  21.531  0.00  0.00    +0.000 A 
ATOM     24  C   UNL     1      -0.833  15.363  22.594  0.00  0.00    +0.000 A 
ATOM     25  C   UNL     1      -1.314  15.089  23.873  0.00  0.00    +0.000 A 
ATOM     26  C   UNL     1      -2.136  13.982  24.089  0.00  0.00    +0.000 A 
ATOM     27  C   UNL     1      -2.489  13.158  23.020  0.00  0.00    +0.000 A 
ENDBRANCH  11  22
TORSDOF 2
ENDMDL
MODEL 9
REMARK VINA RESULT:      -7.6      1.925      6.529
REMARK  Name = 
REMARK  2 active torsions:
REMARK  status: ('A' for Active; 'I' for Inactive)
REMARK    1  A    between atoms: C_10  and  C_11
REMARK    2  A    between atoms: N_20  and  C_21
REMARK                            x       y       z     vdW  Elec       q    Type
REMARK                         _______ _______ _______ _____ _____    ______ ____
ROOT
ATOM      1  O   UNL     1       0.705   5.255  20.895  0.00  0.00    +0.000 OA
ATOM      2  C   UNL     1       1.584   5.254  20.053  0.00  0.00    +0.000 C 
ATOM      3  C   UNL     1       2.177   4.030  19.504  0.00  0.00    +0.000 A 
ATOM      4  C   UNL     1       1.838   2.720  19.801  0.00  0.00    +0.000 A 
ATOM      5  C   UNL     1       2.532   1.712  19.137  0.00  0.00    +0.000 A 
ATOM      6  C   UNL     1       3.533   2.036  18.207  0.00  0.00    +0.000 A 
ATOM      7  C   UNL     1       3.845   3.375  17.915  0.00  0.00    +0.000 A 
ATOM      8  C   UNL     1       3.154   4.382  18.568  0.00  0.00    +0.000 A 
ATOM      9  C   UNL     1       3.185   5.852  18.498  0.00  0.00    +0.000 C 
ATOM     10  C   UNL     1       4.019   6.659  17.820  0.00  0.00    +0.000 C 
ATOM     11  N   UNL     1       2.204   6.312  19.382  0.00  0.00    +0.000 N 
ENDROOT
BRANCH  10  12
ATOM     12  C   UNL     1       5.118   6.258  16.941  0.00  0.00    +0.000 A 
ATOM     13  C   UNL     1       6.435   6.602  17.265  0.00  0.00    +0.000 A 
ATOM     14  C   UNL     1       7.499   6.260  16.423  0.00  0.00    +0.000 A 
ATOM     15  C   UNL     1       7.195   5.564  15.248  0.00  0.00    +0.000 A 
ATOM     16  N   UNL     1       8.021   5.117  14.241  0.00  0.00    +0.000 N 
ATOM     17  C   UNL     1       7.287   4.473  13.280  0.00  0.00    +0.000 A 
ATOM     18  C   UNL     1       5.966   4.508  13.663  0.00  0.00    +0.000 A 
ATOM     19  C   UNL     1       5.894   5.199  14.902  0.00  0.00    +0.000 A 
ATOM     20  C   UNL     1       4.837   5.553  15.762  0.00  0.00    +0.000 A 
ATOM     21  H   UNL     1       9.021   5.253  14.215  0.00  0.00    +0.000 HD
ENDBRANCH  10  12
BRANCH  11  22
ATOM     22  C   UNL     1       1.761   7.639  19.579  0.00  0.00    +0.000 A 
ATOM     23  C   UNL     1       1.707   8.526  18.500  0.00  0.00    +0.000 A 
ATOM     24  C   UNL     1       1.293   9.843  18.699  0.00  0.00    +0.000 A 
ATOM     25  C   UNL     1       0.977  10.290  19.981  0.00  0.00    +0.000 A 
ATOM     26  C   UNL     1       1.048   9.413  21.064  0.00  0.00    +0.000 A 
ATOM     27  C   UNL     1       1.420   8.084  20.861  0.00  0.00    +0.000 A 
ENDBRANCH  11  22
TORSDOF 2
ENDMDL
