MODEL 1
REMARK VINA RESULT:      -8.8      0.000      0.000
REMARK  Name = 
REMARK  3 active torsions:
REMARK  status: ('A' for Active; 'I' for Inactive)
REMARK    1  A    between atoms: C_2  and  C_3
REMARK    2  A    between atoms: C_15  and  C_16
REMARK    3  A    between atoms: C_18  and  C_19
REMARK                            x       y       z     vdW  Elec       q    Type
REMARK                         _______ _______ _______ _____ _____    ______ ____
ROOT
ATOM      1  O   UNL     1       5.213   2.632  20.075  0.00  0.00    +0.000 OA
ATOM      2  C   UNL     1       4.391   3.431  19.626  0.00  0.00    +0.000 C 
ATOM      3  N   UNL     1       3.136   3.611  20.218  0.00  0.00    +0.000 N 
ATOM      4  C   UNL     1       2.807   2.899  21.442  0.00  0.00    +0.000 C 
ATOM      5  C   UNL     1       1.358   2.476  21.260  0.00  0.00    +0.000 C 
ATOM      6  C   UNL     1       0.745   3.608  20.447  0.00  0.00    +0.000 C 
ATOM      7  C   UNL     1       1.913   4.193  19.632  0.00  0.00    +0.000 C 
ENDROOT
BRANCH   2   8
ATOM      8  C   UNL     1       4.791   4.186  18.408  0.00  0.00    +0.000 A 
ATOM      9  C   UNL     1       4.448   3.705  17.137  0.00  0.00    +0.000 A 
ATOM     10  C   UNL     1       4.830   4.410  15.985  0.00  0.00    +0.000 A 
ATOM     11  C   UNL     1       5.524   5.609  16.109  0.00  0.00    +0.000 A 
ATOM     12  F   UNL     1       5.849   6.307  15.014  0.00  0.00    +0.000 F 
ATOM     13  C   UNL     1       5.909   6.056  17.361  0.00  0.00    +0.000 A 
ATOM     14  F   UNL     1       6.592   7.201  17.497  0.00  0.00    +0.000 F 
ATOM     15  C   UNL     1       5.598   5.317  18.496  0.00  0.00    +0.000 A 
ENDBRANCH   2   8
BRANCH   7  16
ATOM     16  C   UNL     1       1.863   5.679  19.743  0.00  0.00    +0.000 A 
ATOM     17  N   UNL     1       1.209   6.423  20.605  0.00  0.00    +0.000 NA
ATOM     18  C   UNL     1       1.486   7.702  20.160  0.00  0.00    +0.000 A 
ATOM     19  N   UNL     1       2.268   7.744  19.072  0.00  0.00    +0.000 NA
ATOM     20  O   UNL     1       2.545   6.405  18.810  0.00  0.00    +0.000 OA
BRANCH  18  21
ATOM     21  C   UNL     1       0.983   8.880  20.854  0.00  0.00    +0.000 A 
ATOM     22  C   UNL     1       0.591   8.815  22.202  0.00  0.00    +0.000 A 
ATOM     23  C   UNL     1       0.035   9.931  22.836  0.00  0.00    +0.000 A 
ATOM     24  C   UNL     1      -0.125  11.121  22.129  0.00  0.00    +0.000 A 
ATOM     25  C   UNL     1       0.290  11.192  20.805  0.00  0.00    +0.000 A 
ATOM     26  F   UNL     1       0.137  12.336  20.126  0.00  0.00    +0.000 F 
ATOM     27  C   UNL     1       0.848  10.091  20.166  0.00  0.00    +0.000 A 
ENDBRANCH  18  21
ENDBRANCH   7  16
TORSDOF 3
ENDMDL
MODEL 2
REMARK VINA RESULT:      -8.7      1.165      1.345
REMARK  Name = 
REMARK  3 active torsions:
REMARK  status: ('A' for Active; 'I' for Inactive)
REMARK    1  A    between atoms: C_2  and  C_3
REMARK    2  A    between atoms: C_15  and  C_16
REMARK    3  A    between atoms: C_18  and  C_19
REMARK                            x       y       z     vdW  Elec       q    Type
REMARK                         _______ _______ _______ _____ _____    ______ ____
ROOT
ATOM      1  O   UNL     1       5.229   2.527  19.900  0.00  0.00    +0.000 OA
ATOM      2  C   UNL     1       4.677   3.448  19.296  0.00  0.00    +0.000 C 
ATOM      3  N   UNL     1       3.286   3.597  19.287  0.00  0.00    +0.000 N 
ATOM      4  C   UNL     1       2.459   2.694  20.071  0.00  0.00    +0.000 C 
ATOM      5  C   UNL     1       1.259   2.407  19.182  0.00  0.00    +0.000 C 
ATOM      6  C   UNL     1       1.050   3.707  18.417  0.00  0.00    +0.000 C 
ATOM      7  C   UNL     1       2.444   4.355  18.342  0.00  0.00    +0.000 C 
ENDROOT
BRANCH   2   8
ATOM      8  C   UNL     1       5.565   4.387  18.559  0.00  0.00    +0.000 A 
ATOM      9  C   UNL     1       5.529   4.435  17.158  0.00  0.00    +0.000 A 
ATOM     10  C   UNL     1       6.369   5.315  16.457  0.00  0.00    +0.000 A 
ATOM     11  C   UNL     1       7.217   6.165  17.159  0.00  0.00    +0.000 A 
ATOM     12  F   UNL     1       7.986   7.037  16.495  0.00  0.00    +0.000 F 
ATOM     13  C   UNL     1       7.291   6.079  18.539  0.00  0.00    +0.000 A 
ATOM     14  F   UNL     1       8.113   6.880  19.230  0.00  0.00    +0.000 F 
ATOM     15  C   UNL     1       6.515   5.154  19.227  0.00  0.00    +0.000 A 
ENDBRANCH   2   8
BRANCH   7  16
ATOM     16  C   UNL     1       2.312   5.795  18.705  0.00  0.00    +0.000 A 
ATOM     17  N   UNL     1       1.618   6.343  19.676  0.00  0.00    +0.000 NA
ATOM     18  C   UNL     1       1.823   7.693  19.458  0.00  0.00    +0.000 A 
ATOM     19  N   UNL     1       2.600   7.963  18.400  0.00  0.00    +0.000 NA
ATOM     20  O   UNL     1       2.951   6.707  17.916  0.00  0.00    +0.000 OA
BRANCH  18  21
ATOM     21  C   UNL     1       1.255   8.705  20.339  0.00  0.00    +0.000 A 
ATOM     22  C   UNL     1       1.227   8.521  21.732  0.00  0.00    +0.000 A 
ATOM     23  C   UNL     1       0.609   9.462  22.562  0.00  0.00    +0.000 A 
ATOM     24  C   UNL     1       0.023  10.596  22.006  0.00  0.00    +0.000 A 
ATOM     25  C   UNL     1       0.076  10.792  20.631  0.00  0.00    +0.000 A 
ATOM     26  F   UNL     1      -0.488  11.882  20.097  0.00  0.00    +0.000 F 
ATOM     27  C   UNL     1       0.692   9.866  19.797  0.00  0.00    +0.000 A 
ENDBRANCH  18  21
ENDBRANCH   7  16
TORSDOF 3
ENDMDL
MODEL 3
REMARK VINA RESULT:      -8.7      1.432      2.101
REMARK  Name = 
REMARK  3 active torsions:
REMARK  status: ('A' for Active; 'I' for Inactive)
REMARK    1  A    between atoms: C_2  and  C_3
REMARK    2  A    between atoms: C_15  and  C_16
REMARK    3  A    between atoms: C_18  and  C_19
REMARK                            x       y       z     vdW  Elec       q    Type
REMARK                         _______ _______ _______ _____ _____    ______ ____
ROOT
ATOM      1  O   UNL     1       5.228   2.528  19.945  0.00  0.00    +0.000 OA
ATOM      2  C   UNL     1       4.678   3.444  19.332  0.00  0.00    +0.000 C 
ATOM      3  N   UNL     1       3.287   3.593  19.318  0.00  0.00    +0.000 N 
ATOM      4  C   UNL     1       2.457   2.696  20.106  0.00  0.00    +0.000 C 
ATOM      5  C   UNL     1       1.261   2.402  19.215  0.00  0.00    +0.000 C 
ATOM      6  C   UNL     1       1.054   3.696  18.440  0.00  0.00    +0.000 C 
ATOM      7  C   UNL     1       2.448   4.344  18.364  0.00  0.00    +0.000 C 
ENDROOT
BRANCH   2   8
ATOM      8  C   UNL     1       5.568   4.377  18.590  0.00  0.00    +0.000 A 
ATOM      9  C   UNL     1       6.291   5.359  19.282  0.00  0.00    +0.000 A 
ATOM     10  C   UNL     1       7.127   6.247  18.586  0.00  0.00    +0.000 A 
ATOM     11  C   UNL     1       7.260   6.129  17.207  0.00  0.00    +0.000 A 
ATOM     12  F   UNL     1       8.091   6.945  16.546  0.00  0.00    +0.000 F 
ATOM     13  C   UNL     1       6.505   5.196  16.518  0.00  0.00    +0.000 A 
ATOM     14  F   UNL     1       6.610   5.080  15.187  0.00  0.00    +0.000 F 
ATOM     15  C   UNL     1       5.620   4.369  17.199  0.00  0.00    +0.000 A 
ENDBRANCH   2   8
BRANCH   7  16
ATOM     16  C   UNL     1       2.314   5.786  18.715  0.00  0.00    +0.000 A 
ATOM     17  N   UNL     1       1.576   6.346  19.646  0.00  0.00    +0.000 NA
ATOM     18  C   UNL     1       1.809   7.693  19.436  0.00  0.00    +0.000 A 
ATOM     19  N   UNL     1       2.646   7.950  18.421  0.00  0.00    +0.000 NA
ATOM     20  O   UNL     1       3.007   6.688  17.960  0.00  0.00    +0.000 OA
BRANCH  18  21
ATOM     21  C   UNL     1       1.208   8.715  20.282  0.00  0.00    +0.000 A 
ATOM     22  C   UNL     1       0.899   9.988  19.774  0.00  0.00    +0.000 A 
ATOM     23  C   UNL     1       0.396  10.986  20.614  0.00  0.00    +0.000 A 
ATOM     24  C   UNL     1       0.190  10.717  21.965  0.00  0.00    +0.000 A 
ATOM     25  C   UNL     1       0.469   9.449  22.461  0.00  0.00    +0.000 A 
ATOM     26  F   UNL     1       0.271   9.190  23.759  0.00  0.00    +0.000 F 
ATOM     27  C   UNL     1       0.965   8.447  21.635  0.00  0.00    +0.000 A 
ENDBRANCH  18  21
ENDBRANCH   7  16
TORSDOF 3
ENDMDL
MODEL 4
REMARK VINA RESULT:      -8.7      1.110      1.663
REMARK  Name = 
REMARK  3 active torsions:
REMARK  status: ('A' for Active; 'I' for Inactive)
REMARK    1  A    between atoms: C_2  and  C_3
REMARK    2  A    between atoms: C_15  and  C_16
REMARK    3  A    between atoms: C_18  and  C_19
REMARK                            x       y       z     vdW  Elec       q    Type
REMARK                         _______ _______ _______ _____ _____    ______ ____
ROOT
ATOM      1  O   UNL     1       5.222   2.495  19.906  0.00  0.00    +0.000 OA
ATOM      2  C   UNL     1       4.673   3.423  19.310  0.00  0.00    +0.000 C 
ATOM      3  N   UNL     1       3.281   3.567  19.290  0.00  0.00    +0.000 N 
ATOM      4  C   UNL     1       2.449   2.649  20.052  0.00  0.00    +0.000 C 
ATOM      5  C   UNL     1       1.260   2.371  19.146  0.00  0.00    +0.000 C 
ATOM      6  C   UNL     1       1.053   3.682  18.399  0.00  0.00    +0.000 C 
ATOM      7  C   UNL     1       2.446   4.336  18.348  0.00  0.00    +0.000 C 
ENDROOT
BRANCH   2   8
ATOM      8  C   UNL     1       5.564   4.376  18.596  0.00  0.00    +0.000 A 
ATOM      9  C   UNL     1       6.291   5.334  19.317  0.00  0.00    +0.000 A 
ATOM     10  C   UNL     1       7.128   6.240  18.647  0.00  0.00    +0.000 A 
ATOM     11  C   UNL     1       7.259   6.165  17.265  0.00  0.00    +0.000 A 
ATOM     12  F   UNL     1       8.091   6.999  16.628  0.00  0.00    +0.000 F 
ATOM     13  C   UNL     1       6.500   5.256  16.548  0.00  0.00    +0.000 A 
ATOM     14  F   UNL     1       6.602   5.181  15.215  0.00  0.00    +0.000 F 
ATOM     15  C   UNL     1       5.613   4.411  17.205  0.00  0.00    +0.000 A 
ENDBRANCH   2   8
BRANCH   7  16
ATOM     16  C   UNL     1       2.304   5.770  18.731  0.00  0.00    +0.000 A 
ATOM     17  N   UNL     1       1.602   6.300  19.706  0.00  0.00    +0.000 NA
ATOM     18  C   UNL     1       1.802   7.654  19.510  0.00  0.00    +0.000 A 
ATOM     19  N   UNL     1       2.583   7.944  18.460  0.00  0.00    +0.000 NA
ATOM     20  O   UNL     1       2.944   6.696  17.959  0.00  0.00    +0.000 OA
BRANCH  18  21
ATOM     21  C   UNL     1       1.224   8.650  20.403  0.00  0.00    +0.000 A 
ATOM     22  C   UNL     1       1.179   8.441  21.791  0.00  0.00    +0.000 A 
ATOM     23  C   UNL     1       0.552   9.367  22.630  0.00  0.00    +0.000 A 
ATOM     24  C   UNL     1      -0.027  10.511  22.089  0.00  0.00    +0.000 A 
ATOM     25  C   UNL     1       0.043  10.732  20.718  0.00  0.00    +0.000 A 
ATOM     26  F   UNL     1      -0.513  11.833  20.198  0.00  0.00    +0.000 F 
ATOM     27  C   UNL     1       0.668   9.821  19.875  0.00  0.00    +0.000 A 
ENDBRANCH  18  21
ENDBRANCH   7  16
TORSDOF 3
ENDMDL
MODEL 5
REMARK VINA RESULT:      -8.7      0.878      1.274
REMARK  Name = 
REMARK  3 active torsions:
REMARK  status: ('A' for Active; 'I' for Inactive)
REMARK    1  A    between atoms: C_2  and  C_3
REMARK    2  A    between atoms: C_15  and  C_16
REMARK    3  A    between atoms: C_18  and  C_19
REMARK                            x       y       z     vdW  Elec       q    Type
REMARK                         _______ _______ _______ _____ _____    ______ ____
ROOT
ATOM      1  O   UNL     1       5.208   2.653  20.048  0.00  0.00    +0.000 OA
ATOM      2  C   UNL     1       4.381   3.435  19.578  0.00  0.00    +0.000 C 
ATOM      3  N   UNL     1       3.127   3.627  20.169  0.00  0.00    +0.000 N 
ATOM      4  C   UNL     1       2.804   2.950  21.414  0.00  0.00    +0.000 C 
ATOM      5  C   UNL     1       1.357   2.515  21.249  0.00  0.00    +0.000 C 
ATOM      6  C   UNL     1       0.736   3.620  20.404  0.00  0.00    +0.000 C 
ATOM      7  C   UNL     1       1.899   4.186  19.570  0.00  0.00    +0.000 C 
ENDROOT
BRANCH   2   8
ATOM      8  C   UNL     1       4.774   4.156  18.338  0.00  0.00    +0.000 A 
ATOM      9  C   UNL     1       4.470   3.612  17.081  0.00  0.00    +0.000 A 
ATOM     10  C   UNL     1       4.845   4.285  15.908  0.00  0.00    +0.000 A 
ATOM     11  C   UNL     1       5.493   5.513  15.995  0.00  0.00    +0.000 A 
ATOM     12  F   UNL     1       5.812   6.178  14.877  0.00  0.00    +0.000 F 
ATOM     13  C   UNL     1       5.842   6.023  17.233  0.00  0.00    +0.000 A 
ATOM     14  F   UNL     1       6.480   7.196  17.334  0.00  0.00    +0.000 F 
ATOM     15  C   UNL     1       5.539   5.318  18.392  0.00  0.00    +0.000 A 
ENDBRANCH   2   8
BRANCH   7  16
ATOM     16  C   UNL     1       1.843   5.674  19.637  0.00  0.00    +0.000 A 
ATOM     17  N   UNL     1       1.165   6.440  20.460  0.00  0.00    +0.000 NA
ATOM     18  C   UNL     1       1.450   7.707  19.986  0.00  0.00    +0.000 A 
ATOM     19  N   UNL     1       2.259   7.720  18.917  0.00  0.00    +0.000 NA
ATOM     20  O   UNL     1       2.546   6.376  18.701  0.00  0.00    +0.000 OA
BRANCH  18  21
ATOM     21  C   UNL     1       0.927   8.902  20.633  0.00  0.00    +0.000 A 
ATOM     22  C   UNL     1       0.978  10.154  19.996  0.00  0.00    +0.000 A 
ATOM     23  C   UNL     1       0.545  11.307  20.658  0.00  0.00    +0.000 A 
ATOM     24  C   UNL     1       0.052  11.217  21.957  0.00  0.00    +0.000 A 
ATOM     25  C   UNL     1      -0.025   9.975  22.576  0.00  0.00    +0.000 A 
ATOM     26  F   UNL     1      -0.500   9.888  23.825  0.00  0.00    +0.000 F 
ATOM     27  C   UNL     1       0.398   8.821  21.926  0.00  0.00    +0.000 A 
ENDBRANCH  18  21
ENDBRANCH   7  16
TORSDOF 3
ENDMDL
MODEL 6
REMARK VINA RESULT:      -8.6      0.606      1.298
REMARK  Name = 
REMARK  3 active torsions:
REMARK  status: ('A' for Active; 'I' for Inactive)
REMARK    1  A    between atoms: C_2  and  C_3
REMARK    2  A    between atoms: C_15  and  C_16
REMARK    3  A    between atoms: C_18  and  C_19
REMARK                            x       y       z     vdW  Elec       q    Type
REMARK                         _______ _______ _______ _____ _____    ______ ____
ROOT
ATOM      1  O   UNL     1       5.185   2.434  20.362  0.00  0.00    +0.000 OA
ATOM      2  C   UNL     1       4.452   3.264  19.823  0.00  0.00    +0.000 C 
ATOM      3  N   UNL     1       3.136   3.474  20.249  0.00  0.00    +0.000 N 
ATOM      4  C   UNL     1       2.629   2.756  21.407  0.00  0.00    +0.000 C 
ATOM      5  C   UNL     1       1.206   2.379  21.029  0.00  0.00    +0.000 C 
ATOM      6  C   UNL     1       0.737   3.539  20.161  0.00  0.00    +0.000 C 
ATOM      7  C   UNL     1       2.017   4.100  19.517  0.00  0.00    +0.000 C 
ENDROOT
BRANCH   2   8
ATOM      8  C   UNL     1       5.031   4.022  18.681  0.00  0.00    +0.000 A 
ATOM      9  C   UNL     1       5.896   5.100  18.919  0.00  0.00    +0.000 A 
ATOM     10  C   UNL     1       6.439   5.823  17.845  0.00  0.00    +0.000 A 
ATOM     11  C   UNL     1       6.142   5.446  16.540  0.00  0.00    +0.000 A 
ATOM     12  F   UNL     1       6.694   6.106  15.514  0.00  0.00    +0.000 F 
ATOM     13  C   UNL     1       5.245   4.418  16.306  0.00  0.00    +0.000 A 
ATOM     14  F   UNL     1       4.935   4.053  15.055  0.00  0.00    +0.000 F 
ATOM     15  C   UNL     1       4.648   3.753  17.370  0.00  0.00    +0.000 A 
ENDBRANCH   2   8
BRANCH   7  16
ATOM     16  C   UNL     1       1.995   5.584  19.645  0.00  0.00    +0.000 A 
ATOM     17  N   UNL     1       1.313   6.333  20.482  0.00  0.00    +0.000 NA
ATOM     18  C   UNL     1       1.642   7.611  20.069  0.00  0.00    +0.000 A 
ATOM     19  N   UNL     1       2.481   7.648  19.024  0.00  0.00    +0.000 NA
ATOM     20  O   UNL     1       2.742   6.306  18.760  0.00  0.00    +0.000 OA
BRANCH  18  21
ATOM     21  C   UNL     1       1.130   8.791  20.752  0.00  0.00    +0.000 A 
ATOM     22  C   UNL     1       0.767   8.745  22.109  0.00  0.00    +0.000 A 
ATOM     23  C   UNL     1       0.203   9.861  22.733  0.00  0.00    +0.000 A 
ATOM     24  C   UNL     1       0.003  11.033  22.008  0.00  0.00    +0.000 A 
ATOM     25  C   UNL     1       0.388  11.087  20.674  0.00  0.00    +0.000 A 
ATOM     26  F   UNL     1       0.196  12.214  19.977  0.00  0.00    +0.000 F 
ATOM     27  C   UNL     1       0.955   9.986  20.044  0.00  0.00    +0.000 A 
ENDBRANCH  18  21
ENDBRANCH   7  16
TORSDOF 3
ENDMDL
MODEL 7
REMARK VINA RESULT:      -8.5      1.083      1.829
REMARK  Name = 
REMARK  3 active torsions:
REMARK  status: ('A' for Active; 'I' for Inactive)
REMARK    1  A    between atoms: C_2  and  C_3
REMARK    2  A    between atoms: C_15  and  C_16
REMARK    3  A    between atoms: C_18  and  C_19
REMARK                            x       y       z     vdW  Elec       q    Type
REMARK                         _______ _______ _______ _____ _____    ______ ____
ROOT
ATOM      1  O   UNL     1       5.192   2.421  20.376  0.00  0.00    +0.000 OA
ATOM      2  C   UNL     1       4.468   3.244  19.814  0.00  0.00    +0.000 C 
ATOM      3  N   UNL     1       3.144   3.456  20.212  0.00  0.00    +0.000 N 
ATOM      4  C   UNL     1       2.615   2.750  21.368  0.00  0.00    +0.000 C 
ATOM      5  C   UNL     1       1.200   2.366  20.967  0.00  0.00    +0.000 C 
ATOM      6  C   UNL     1       0.746   3.517  20.079  0.00  0.00    +0.000 C 
ATOM      7  C   UNL     1       2.038   4.072  19.453  0.00  0.00    +0.000 C 
ENDROOT
BRANCH   2   8
ATOM      8  C   UNL     1       5.067   3.991  18.676  0.00  0.00    +0.000 A 
ATOM      9  C   UNL     1       5.952   5.052  18.919  0.00  0.00    +0.000 A 
ATOM     10  C   UNL     1       6.515   5.764  17.848  0.00  0.00    +0.000 A 
ATOM     11  C   UNL     1       6.216   5.394  16.541  0.00  0.00    +0.000 A 
ATOM     12  F   UNL     1       6.787   6.043  15.518  0.00  0.00    +0.000 F 
ATOM     13  C   UNL     1       5.301   4.384  16.302  0.00  0.00    +0.000 A 
ATOM     14  F   UNL     1       4.991   4.025  15.049  0.00  0.00    +0.000 F 
ATOM     15  C   UNL     1       4.686   3.730  17.363  0.00  0.00    +0.000 A 
ENDBRANCH   2   8
BRANCH   7  16
ATOM     16  C   UNL     1       2.012   5.558  19.566  0.00  0.00    +0.000 A 
ATOM     17  N   UNL     1       1.287   6.316  20.358  0.00  0.00    +0.000 NA
ATOM     18  C   UNL     1       1.640   7.589  19.951  0.00  0.00    +0.000 A 
ATOM     19  N   UNL     1       2.533   7.615  18.951  0.00  0.00    +0.000 NA
ATOM     20  O   UNL     1       2.805   6.271  18.714  0.00  0.00    +0.000 OA
BRANCH  18  21
ATOM     21  C   UNL     1       1.093   8.777  20.594  0.00  0.00    +0.000 A 
ATOM     22  C   UNL     1       1.061  10.013  19.927  0.00  0.00    +0.000 A 
ATOM     23  C   UNL     1       0.608  11.163  20.581  0.00  0.00    +0.000 A 
ATOM     24  C   UNL     1       0.177  11.083  21.903  0.00  0.00    +0.000 A 
ATOM     25  C   UNL     1       0.182   9.855  22.553  0.00  0.00    +0.000 A 
ATOM     26  F   UNL     1      -0.232   9.779  23.823  0.00  0.00    +0.000 F 
ATOM     27  C   UNL     1       0.626   8.705  21.911  0.00  0.00    +0.000 A 
ENDBRANCH  18  21
ENDBRANCH   7  16
TORSDOF 3
ENDMDL
MODEL 8
REMARK VINA RESULT:      -8.5      1.683      2.193
REMARK  Name = 
REMARK  3 active torsions:
REMARK  status: ('A' for Active; 'I' for Inactive)
REMARK    1  A    between atoms: C_2  and  C_3
REMARK    2  A    between atoms: C_15  and  C_16
REMARK    3  A    between atoms: C_18  and  C_19
REMARK                            x       y       z     vdW  Elec       q    Type
REMARK                         _______ _______ _______ _____ _____    ______ ____
ROOT
ATOM      1  O   UNL     1       5.365   3.083  19.630  0.00  0.00    +0.000 OA
ATOM      2  C   UNL     1       4.832   4.021  19.037  0.00  0.00    +0.000 C 
ATOM      3  N   UNL     1       3.442   4.114  18.900  0.00  0.00    +0.000 N 
ATOM      4  C   UNL     1       2.586   3.125  19.533  0.00  0.00    +0.000 C 
ATOM      5  C   UNL     1       1.494   2.854  18.511  0.00  0.00    +0.000 C 
ATOM      6  C   UNL     1       1.298   4.197  17.820  0.00  0.00    +0.000 C 
ATOM      7  C   UNL     1       2.661   4.905  17.929  0.00  0.00    +0.000 C 
ENDROOT
BRANCH   2   8
ATOM      8  C   UNL     1       5.741   5.046  18.458  0.00  0.00    +0.000 A 
ATOM      9  C   UNL     1       5.537   5.510  17.151  0.00  0.00    +0.000 A 
ATOM     10  C   UNL     1       6.396   6.472  16.597  0.00  0.00    +0.000 A 
ATOM     11  C   UNL     1       7.434   6.991  17.363  0.00  0.00    +0.000 A 
ATOM     12  F   UNL     1       8.228   7.942  16.854  0.00  0.00    +0.000 F 
ATOM     13  C   UNL     1       7.669   6.495  18.634  0.00  0.00    +0.000 A 
ATOM     14  F   UNL     1       8.675   6.972  19.379  0.00  0.00    +0.000 F 
ATOM     15  C   UNL     1       6.865   5.486  19.152  0.00  0.00    +0.000 A 
ENDBRANCH   2   8
BRANCH   7  16
ATOM     16  C   UNL     1       2.426   6.308  18.374  0.00  0.00    +0.000 A 
ATOM     17  N   UNL     1       1.694   6.748  19.371  0.00  0.00    +0.000 NA
ATOM     18  C   UNL     1       1.802   8.119  19.234  0.00  0.00    +0.000 A 
ATOM     19  N   UNL     1       2.560   8.505  18.197  0.00  0.00    +0.000 NA
ATOM     20  O   UNL     1       3.000   7.307  17.642  0.00  0.00    +0.000 OA
BRANCH  18  21
ATOM     21  C   UNL     1       1.163   9.035  20.169  0.00  0.00    +0.000 A 
ATOM     22  C   UNL     1       0.823  10.343  19.785  0.00  0.00    +0.000 A 
ATOM     23  C   UNL     1       0.283  11.239  20.712  0.00  0.00    +0.000 A 
ATOM     24  C   UNL     1       0.072  10.832  22.027  0.00  0.00    +0.000 A 
ATOM     25  C   UNL     1       0.383   9.530  22.400  0.00  0.00    +0.000 A 
ATOM     26  F   UNL     1       0.180   9.138  23.664  0.00  0.00    +0.000 F 
ATOM     27  C   UNL     1       0.916   8.629  21.485  0.00  0.00    +0.000 A 
ENDBRANCH  18  21
ENDBRANCH   7  16
TORSDOF 3
ENDMDL
MODEL 9
REMARK VINA RESULT:      -8.5      2.801      4.639
REMARK  Name = 
REMARK  3 active torsions:
REMARK  status: ('A' for Active; 'I' for Inactive)
REMARK    1  A    between atoms: C_2  and  C_3
REMARK    2  A    between atoms: C_15  and  C_16
REMARK    3  A    between atoms: C_18  and  C_19
REMARK                            x       y       z     vdW  Elec       q    Type
REMARK                         _______ _______ _______ _____ _____    ______ ____
ROOT
ATOM      1  O   UNL     1       4.130   1.861  16.995  0.00  0.00    +0.000 OA
ATOM      2  C   UNL     1       4.153   2.930  17.605  0.00  0.00    +0.000 C 
ATOM      3  N   UNL     1       4.910   4.019  17.159  0.00  0.00    +0.000 N 
ATOM      4  C   UNL     1       5.633   3.929  15.900  0.00  0.00    +0.000 C 
ATOM      5  C   UNL     1       6.960   4.618  16.172  0.00  0.00    +0.000 C 
ATOM      6  C   UNL     1       6.604   5.722  17.160  0.00  0.00    +0.000 C 
ATOM      7  C   UNL     1       5.372   5.197  17.919  0.00  0.00    +0.000 C 
ENDROOT
BRANCH   2   8
ATOM      8  C   UNL     1       3.349   3.002  18.855  0.00  0.00    +0.000 A 
ATOM      9  C   UNL     1       3.854   2.467  20.048  0.00  0.00    +0.000 A 
ATOM     10  C   UNL     1       3.097   2.526  21.228  0.00  0.00    +0.000 A 
ATOM     11  C   UNL     1       1.853   3.148  21.218  0.00  0.00    +0.000 A 
ATOM     12  F   UNL     1       1.147   3.246  22.352  0.00  0.00    +0.000 F 
ATOM     13  C   UNL     1       1.331   3.628  20.029  0.00  0.00    +0.000 A 
ATOM     14  F   UNL     1       0.127   4.215  19.998  0.00  0.00    +0.000 F 
ATOM     15  C   UNL     1       2.049   3.499  18.846  0.00  0.00    +0.000 A 
ENDBRANCH   2   8
BRANCH   7  16
ATOM     16  C   UNL     1       4.358   6.288  17.977  0.00  0.00    +0.000 A 
ATOM     17  N   UNL     1       3.549   6.614  18.959  0.00  0.00    +0.000 NA
ATOM     18  C   UNL     1       2.805   7.637  18.400  0.00  0.00    +0.000 A 
ATOM     19  N   UNL     1       3.136   7.922  17.133  0.00  0.00    +0.000 NA
ATOM     20  O   UNL     1       4.186   7.051  16.859  0.00  0.00    +0.000 OA
BRANCH  18  21
ATOM     21  C   UNL     1       1.782   8.342  19.160  0.00  0.00    +0.000 A 
ATOM     22  C   UNL     1       0.992   9.339  18.562  0.00  0.00    +0.000 A 
ATOM     23  C   UNL     1       0.068  10.064  19.320  0.00  0.00    +0.000 A 
ATOM     24  C   UNL     1      -0.079   9.793  20.678  0.00  0.00    +0.000 A 
ATOM     25  C   UNL     1       0.681   8.787  21.263  0.00  0.00    +0.000 A 
ATOM     26  F   UNL     1       0.540   8.527  22.568  0.00  0.00    +0.000 F 
ATOM     27  C   UNL     1       1.600   8.057  20.518  0.00  0.00    +0.000 A 
ENDBRANCH  18  21
ENDBRANCH   7  16
TORSDOF 3
ENDMDL
