MODEL 1
REMARK VINA RESULT:      -7.7      0.000      0.000
REMARK  Name = 
REMARK  7 active torsions:
REMARK  status: ('A' for Active; 'I' for Inactive)
REMARK    1  A    between atoms: C_1  and  O_2
REMARK    2  A    between atoms: O_2  and  C_3
REMARK    3  A    between atoms: C_6  and  N_7
REMARK    4  A    between atoms: N_7  and  C_8
REMARK    5  A    between atoms: C_12  and  C_13
REMARK    6  A    between atoms: C_12  and  C_14
REMARK    7  A    between atoms: C_25  and  N_26
REMARK                            x       y       z     vdW  Elec       q    Type
REMARK                         _______ _______ _______ _____ _____    ______ ____
ROOT
ATOM      1  C   UNL     1       2.259   6.185  18.798  0.00  0.00    +0.000 C 
ATOM      2  C   UNL     1       3.665   6.080  18.375  0.00  0.00    +0.000 C 
ATOM      3  C   UNL     1       4.293   5.146  19.070  0.00  0.00    +0.000 C 
ATOM      4  O   UNL     1       3.464   4.262  19.737  0.00  0.00    +0.000 OA
ATOM      5  C   UNL     1       2.104   4.770  19.459  0.00  0.00    +0.000 C 
ATOM      6  C   UNL     1       1.306   3.880  18.477  0.00  0.00    +0.000 C 
ATOM      7  C   UNL     1       1.377   4.720  20.807  0.00  0.00    +0.000 C 
ATOM      8  C   UNL     1       5.714   4.900  18.842  0.00  0.00    +0.000 A 
ATOM      9  C   UNL     1       6.692   5.297  19.752  0.00  0.00    +0.000 A 
ATOM     10  C   UNL     1       8.042   5.289  19.375  0.00  0.00    +0.000 A 
ATOM     11  C   UNL     1       8.429   4.807  18.120  0.00  0.00    +0.000 A 
ATOM     12  C   UNL     1       7.457   4.495  17.172  0.00  0.00    +0.000 A 
ATOM     13  C   UNL     1       6.120   4.682  17.522  0.00  0.00    +0.000 A 
ATOM     14  C   UNL     1       5.162   5.192  16.515  0.00  0.00    +0.000 C 
ATOM     15  O   UNL     1       5.105   4.794  15.368  0.00  0.00    +0.000 OA
ATOM     16  C   UNL     1       4.267   6.353  17.055  0.00  0.00    +0.000 C 
ATOM     17  O   UNL     1       4.099   7.385  16.432  0.00  0.00    +0.000 OA
ENDROOT
BRANCH   1  18
ATOM     18  N   UNL     1       2.079   7.256  19.790  0.00  0.00    +0.000 N 
ATOM     19  H   UNL     1       2.725   7.214  20.585  0.00  0.00    +0.000 HD
BRANCH  18  23
ATOM     20  C   UNL     1       0.897  11.207  18.778  0.00  0.00    +0.000 A 
ATOM     21  C   UNL     1       1.476  10.368  17.834  0.00  0.00    +0.000 A 
ATOM     22  C   UNL     1       1.859   9.076  18.175  0.00  0.00    +0.000 A 
ATOM     23  C   UNL     1       1.707   8.561  19.468  0.00  0.00    +0.000 A 
ATOM     24  C   UNL     1       1.017   9.397  20.374  0.00  0.00    +0.000 A 
ATOM     25  C   UNL     1       0.633  10.712  20.052  0.00  0.00    +0.000 A 
BRANCH  24  26
ATOM     26  N   UNL     1       0.632   8.904  21.686  0.00  0.00    +0.000 N 
ATOM     27  O   UNL     1       1.265   9.332  22.663  0.00  0.00    +0.000 OA
ATOM     28  O   UNL     1      -0.328   8.118  21.741  0.00  0.00    +0.000 OA
ENDBRANCH  24  26
BRANCH  20  30
ATOM     29  C   UNL     1      -0.876  12.750  18.573  0.00  0.00    +0.000 C 
ATOM     30  O   UNL     1       0.528  12.501  18.554  0.00  0.00    +0.000 OA
ENDBRANCH  20  30
ENDBRANCH  18  23
ENDBRANCH   1  18
TORSDOF 4
ENDMDL
MODEL 2
REMARK VINA RESULT:      -7.4      3.487      9.378
REMARK  Name = 
REMARK  7 active torsions:
REMARK  status: ('A' for Active; 'I' for Inactive)
REMARK    1  A    between atoms: C_1  and  O_2
REMARK    2  A    between atoms: O_2  and  C_3
REMARK    3  A    between atoms: C_6  and  N_7
REMARK    4  A    between atoms: N_7  and  C_8
REMARK    5  A    between atoms: C_12  and  C_13
REMARK    6  A    between atoms: C_12  and  C_14
REMARK    7  A    between atoms: C_25  and  N_26
REMARK                            x       y       z     vdW  Elec       q    Type
REMARK                         _______ _______ _______ _____ _____    ______ ____
ROOT
ATOM      1  C   UNL     1      -0.967  11.401  20.387  0.00  0.00    +0.000 C 
ATOM      2  C   UNL     1      -1.204  12.085  21.670  0.00  0.00    +0.000 C 
ATOM      3  C   UNL     1      -1.404  13.379  21.479  0.00  0.00    +0.000 C 
ATOM      4  O   UNL     1      -1.708  13.733  20.177  0.00  0.00    +0.000 OA
ATOM      5  C   UNL     1      -1.619  12.461  19.430  0.00  0.00    +0.000 C 
ATOM      6  C   UNL     1      -2.996  11.911  18.991  0.00  0.00    +0.000 C 
ATOM      7  C   UNL     1      -0.841  12.801  18.154  0.00  0.00    +0.000 C 
ATOM      8  C   UNL     1      -1.619  14.258  22.624  0.00  0.00    +0.000 A 
ATOM      9  C   UNL     1      -0.645  15.152  23.067  0.00  0.00    +0.000 A 
ATOM     10  C   UNL     1      -0.784  15.773  24.316  0.00  0.00    +0.000 A 
ATOM     11  C   UNL     1      -1.932  15.570  25.090  0.00  0.00    +0.000 A 
ATOM     12  C   UNL     1      -2.865  14.613  24.701  0.00  0.00    +0.000 A 
ATOM     13  C   UNL     1      -2.608  13.886  23.539  0.00  0.00    +0.000 A 
ATOM     14  C   UNL     1      -2.957  12.448  23.480  0.00  0.00    +0.000 C 
ATOM     15  O   UNL     1      -4.009  11.987  23.880  0.00  0.00    +0.000 OA
ATOM     16  C   UNL     1      -1.805  11.560  22.911  0.00  0.00    +0.000 C 
ATOM     17  O   UNL     1      -1.445  10.535  23.460  0.00  0.00    +0.000 OA
ENDROOT
BRANCH   1  18
ATOM     18  N   UNL     1       0.472  11.257  20.117  0.00  0.00    +0.000 N 
ATOM     19  H   UNL     1       1.082  11.730  20.792  0.00  0.00    +0.000 HD
BRANCH  18  23
ATOM     20  C   UNL     1       2.295   7.782  18.494  0.00  0.00    +0.000 A 
ATOM     21  C   UNL     1       2.197   8.953  17.753  0.00  0.00    +0.000 A 
ATOM     22  C   UNL     1       1.600  10.085  18.293  0.00  0.00    +0.000 A 
ATOM     23  C   UNL     1       1.052  10.108  19.582  0.00  0.00    +0.000 A 
ATOM     24  C   UNL     1       1.264   8.939  20.348  0.00  0.00    +0.000 A 
ATOM     25  C   UNL     1       1.855   7.779  19.815  0.00  0.00    +0.000 A 
BRANCH  24  26
ATOM     26  N   UNL     1       0.910   8.907  21.758  0.00  0.00    +0.000 N 
ATOM     27  O   UNL     1       1.610   9.573  22.536  0.00  0.00    +0.000 OA
ATOM     28  O   UNL     1      -0.092   8.248  22.079  0.00  0.00    +0.000 OA
ENDBRANCH  24  26
BRANCH  20  30
ATOM     29  C   UNL     1       3.060   5.617  19.037  0.00  0.00    +0.000 C 
ATOM     30  O   UNL     1       2.823   6.609  18.040  0.00  0.00    +0.000 OA
ENDBRANCH  20  30
ENDBRANCH  18  23
ENDBRANCH   1  18
TORSDOF 4
ENDMDL
MODEL 3
REMARK VINA RESULT:      -7.2      3.197      9.368
REMARK  Name = 
REMARK  7 active torsions:
REMARK  status: ('A' for Active; 'I' for Inactive)
REMARK    1  A    between atoms: C_1  and  O_2
REMARK    2  A    between atoms: O_2  and  C_3
REMARK    3  A    between atoms: C_6  and  N_7
REMARK    4  A    between atoms: N_7  and  C_8
REMARK    5  A    between atoms: C_12  and  C_13
REMARK    6  A    between atoms: C_12  and  C_14
REMARK    7  A    between atoms: C_25  and  N_26
REMARK                            x       y       z     vdW  Elec       q    Type
REMARK                         _______ _______ _______ _____ _____    ______ ____
ROOT
ATOM      1  C   UNL     1      -0.858  11.618  19.186  0.00  0.00    +0.000 C 
ATOM      2  C   UNL     1      -2.327  11.510  19.181  0.00  0.00    +0.000 C 
ATOM      3  C   UNL     1      -2.873  12.538  19.810  0.00  0.00    +0.000 C 
ATOM      4  O   UNL     1      -2.030  13.619  19.996  0.00  0.00    +0.000 OA
ATOM      5  C   UNL     1      -0.735  13.161  19.449  0.00  0.00    +0.000 C 
ATOM      6  C   UNL     1      -0.363  13.835  18.108  0.00  0.00    +0.000 C 
ATOM      7  C   UNL     1       0.310  13.598  20.480  0.00  0.00    +0.000 C 
ATOM      8  C   UNL     1      -4.323  12.613  19.960  0.00  0.00    +0.000 A 
ATOM      9  C   UNL     1      -4.956  12.383  21.180  0.00  0.00    +0.000 A 
ATOM     10  C   UNL     1      -6.345  12.197  21.222  0.00  0.00    +0.000 A 
ATOM     11  C   UNL     1      -7.117  12.322  20.062  0.00  0.00    +0.000 A 
ATOM     12  C   UNL     1      -6.488  12.460  18.827  0.00  0.00    +0.000 A 
ATOM     13  C   UNL     1      -5.093  12.466  18.803  0.00  0.00    +0.000 A 
ATOM     14  C   UNL     1      -4.375  11.794  17.695  0.00  0.00    +0.000 C 
ATOM     15  O   UNL     1      -4.684  11.898  16.523  0.00  0.00    +0.000 OA
ATOM     16  C   UNL     1      -3.213  10.874  18.187  0.00  0.00    +0.000 C 
ATOM     17  O   UNL     1      -3.073   9.734  17.782  0.00  0.00    +0.000 OA
ENDROOT
BRANCH   1  18
ATOM     18  N   UNL     1      -0.270  10.843  20.290  0.00  0.00    +0.000 N 
ATOM     19  H   UNL     1      -0.856  10.786  21.129  0.00  0.00    +0.000 HD
BRANCH  18  23
ATOM     20  C   UNL     1       2.201   7.434  19.740  0.00  0.00    +0.000 A 
ATOM     21  C   UNL     1       1.947   8.312  18.694  0.00  0.00    +0.000 A 
ATOM     22  C   UNL     1       1.138   9.425  18.884  0.00  0.00    +0.000 A 
ATOM     23  C   UNL     1       0.524   9.712  20.109  0.00  0.00    +0.000 A 
ATOM     24  C   UNL     1       0.889   8.864  21.179  0.00  0.00    +0.000 A 
ATOM     25  C   UNL     1       1.696   7.725  21.005  0.00  0.00    +0.000 A 
BRANCH  24  26
ATOM     26  N   UNL     1       0.468   9.169  22.538  0.00  0.00    +0.000 N 
ATOM     27  O   UNL     1       1.337   9.573  23.325  0.00  0.00    +0.000 OA
ATOM     28  O   UNL     1      -0.738   9.041  22.803  0.00  0.00    +0.000 OA
ENDBRANCH  24  26
BRANCH  20  30
ATOM     29  C   UNL     1       2.285   5.096  20.049  0.00  0.00    +0.000 C 
ATOM     30  O   UNL     1       2.944   6.294  19.645  0.00  0.00    +0.000 OA
ENDBRANCH  20  30
ENDBRANCH  18  23
ENDBRANCH   1  18
TORSDOF 4
ENDMDL
MODEL 4
REMARK VINA RESULT:      -7.0      5.454     11.664
REMARK  Name = 
REMARK  7 active torsions:
REMARK  status: ('A' for Active; 'I' for Inactive)
REMARK    1  A    between atoms: C_1  and  O_2
REMARK    2  A    between atoms: O_2  and  C_3
REMARK    3  A    between atoms: C_6  and  N_7
REMARK    4  A    between atoms: N_7  and  C_8
REMARK    5  A    between atoms: C_12  and  C_13
REMARK    6  A    between atoms: C_12  and  C_14
REMARK    7  A    between atoms: C_25  and  N_26
REMARK                            x       y       z     vdW  Elec       q    Type
REMARK                         _______ _______ _______ _____ _____    ______ ____
ROOT
ATOM      1  C   UNL     1      -4.651  12.026  19.562  0.00  0.00    +0.000 C 
ATOM      2  C   UNL     1      -4.955  12.926  20.689  0.00  0.00    +0.000 C 
ATOM      3  C   UNL     1      -5.868  13.818  20.340  0.00  0.00    +0.000 C 
ATOM      4  O   UNL     1      -6.578  13.505  19.194  0.00  0.00    +0.000 OA
ATOM      5  C   UNL     1      -5.959  12.248  18.722  0.00  0.00    +0.000 C 
ATOM      6  C   UNL     1      -6.861  11.008  18.925  0.00  0.00    +0.000 C 
ATOM      7  C   UNL     1      -5.780  12.434  17.213  0.00  0.00    +0.000 C 
ATOM      8  C   UNL     1      -6.290  14.837  21.296  0.00  0.00    +0.000 A 
ATOM      9  C   UNL     1      -5.903  16.171  21.178  0.00  0.00    +0.000 A 
ATOM     10  C   UNL     1      -6.100  17.053  22.249  0.00  0.00    +0.000 A 
ATOM     11  C   UNL     1      -6.758  16.630  23.409  0.00  0.00    +0.000 A 
ATOM     12  C   UNL     1      -7.066  15.282  23.574  0.00  0.00    +0.000 A 
ATOM     13  C   UNL     1      -6.697  14.400  22.559  0.00  0.00    +0.000 A 
ATOM     14  C   UNL     1      -6.201  13.048  22.906  0.00  0.00    +0.000 C 
ATOM     15  O   UNL     1      -6.716  12.328  23.739  0.00  0.00    +0.000 OA
ATOM     16  C   UNL     1      -4.897  12.659  22.139  0.00  0.00    +0.000 C 
ATOM     17  O   UNL     1      -3.929  12.186  22.705  0.00  0.00    +0.000 OA
ENDROOT
BRANCH   1  18
ATOM     18  N   UNL     1      -3.463  12.480  18.823  0.00  0.00    +0.000 N 
ATOM     19  H   UNL     1      -3.389  13.497  18.719  0.00  0.00    +0.000 HD
BRANCH  18  23
ATOM     20  C   UNL     1       0.302  10.533  19.069  0.00  0.00    +0.000 A 
ATOM     21  C   UNL     1      -0.114  11.416  20.057  0.00  0.00    +0.000 A 
ATOM     22  C   UNL     1      -1.349  12.048  19.968  0.00  0.00    +0.000 A 
ATOM     23  C   UNL     1      -2.220  11.854  18.889  0.00  0.00    +0.000 A 
ATOM     24  C   UNL     1      -1.817  10.868  17.959  0.00  0.00    +0.000 A 
ATOM     25  C   UNL     1      -0.567  10.228  18.025  0.00  0.00    +0.000 A 
BRANCH  24  26
ATOM     26  N   UNL     1      -2.719  10.442  16.901  0.00  0.00    +0.000 N 
ATOM     27  O   UNL     1      -3.522   9.535  17.168  0.00  0.00    +0.000 OA
ATOM     28  O   UNL     1      -2.648  11.042  15.816  0.00  0.00    +0.000 OA
ENDBRANCH  24  26
BRANCH  20  30
ATOM     29  C   UNL     1       1.731   9.048  17.920  0.00  0.00    +0.000 C 
ATOM     30  O   UNL     1       1.509   9.898  19.044  0.00  0.00    +0.000 OA
ENDBRANCH  20  30
ENDBRANCH  18  23
ENDBRANCH   1  18
TORSDOF 4
ENDMDL
MODEL 5
REMARK VINA RESULT:      -6.9      5.736      8.570
REMARK  Name = 
REMARK  7 active torsions:
REMARK  status: ('A' for Active; 'I' for Inactive)
REMARK    1  A    between atoms: C_1  and  O_2
REMARK    2  A    between atoms: O_2  and  C_3
REMARK    3  A    between atoms: C_6  and  N_7
REMARK    4  A    between atoms: N_7  and  C_8
REMARK    5  A    between atoms: C_12  and  C_13
REMARK    6  A    between atoms: C_12  and  C_14
REMARK    7  A    between atoms: C_25  and  N_26
REMARK                            x       y       z     vdW  Elec       q    Type
REMARK                         _______ _______ _______ _____ _____    ______ ____
ROOT
ATOM      1  C   UNL     1       0.944  13.130  20.466  0.00  0.00    +0.000 C 
ATOM      2  C   UNL     1       0.068  12.103  19.876  0.00  0.00    +0.000 C 
ATOM      3  C   UNL     1      -0.666  12.619  18.904  0.00  0.00    +0.000 C 
ATOM      4  O   UNL     1      -0.217  13.834  18.420  0.00  0.00    +0.000 OA
ATOM      5  C   UNL     1       0.946  14.152  19.275  0.00  0.00    +0.000 C 
ATOM      6  C   UNL     1       2.301  14.013  18.542  0.00  0.00    +0.000 C 
ATOM      7  C   UNL     1       0.780  15.630  19.641  0.00  0.00    +0.000 C 
ATOM      8  C   UNL     1      -1.639  11.783  18.205  0.00  0.00    +0.000 A 
ATOM      9  C   UNL     1      -3.011  11.915  18.409  0.00  0.00    +0.000 A 
ATOM     10  C   UNL     1      -3.885  10.927  17.934  0.00  0.00    +0.000 A 
ATOM     11  C   UNL     1      -3.403   9.849  17.184  0.00  0.00    +0.000 A 
ATOM     12  C   UNL     1      -2.029   9.659  17.053  0.00  0.00    +0.000 A 
ATOM     13  C   UNL     1      -1.183  10.568  17.689  0.00  0.00    +0.000 A 
ATOM     14  C   UNL     1       0.068  10.088  18.320  0.00  0.00    +0.000 C 
ATOM     15  O   UNL     1       0.832   9.298  17.800  0.00  0.00    +0.000 OA
ATOM     16  C   UNL     1       0.280  10.647  19.763  0.00  0.00    +0.000 C 
ATOM     17  O   UNL     1       0.584   9.929  20.698  0.00  0.00    +0.000 OA
ENDROOT
BRANCH   1  18
ATOM     18  N   UNL     1       0.339  13.720  21.670  0.00  0.00    +0.000 N 
ATOM     19  H   UNL     1       0.520  14.722  21.791  0.00  0.00    +0.000 HD
BRANCH  18  23
ATOM     20  C   UNL     1      -3.390  12.541  23.324  0.00  0.00    +0.000 A 
ATOM     21  C   UNL     1      -2.273  11.721  23.417  0.00  0.00    +0.000 A 
ATOM     22  C   UNL     1      -1.057  12.115  22.874  0.00  0.00    +0.000 A 
ATOM     23  C   UNL     1      -0.892  13.329  22.194  0.00  0.00    +0.000 A 
ATOM     24  C   UNL     1      -2.014  14.187  22.212  0.00  0.00    +0.000 A 
ATOM     25  C   UNL     1      -3.258  13.801  22.745  0.00  0.00    +0.000 A 
BRANCH  24  26
ATOM     26  N   UNL     1      -1.911  15.547  21.706  0.00  0.00    +0.000 N 
ATOM     27  O   UNL     1      -2.551  15.822  20.680  0.00  0.00    +0.000 OA
ATOM     28  O   UNL     1      -1.221  16.347  22.358  0.00  0.00    +0.000 OA
ENDBRANCH  24  26
BRANCH  20  30
ATOM     29  C   UNL     1      -5.706  12.982  23.224  0.00  0.00    +0.000 C 
ATOM     30  O   UNL     1      -4.634  12.227  23.786  0.00  0.00    +0.000 OA
ENDBRANCH  20  30
ENDBRANCH  18  23
ENDBRANCH   1  18
TORSDOF 4
ENDMDL
MODEL 6
REMARK VINA RESULT:      -6.7      5.361     11.619
REMARK  Name = 
REMARK  7 active torsions:
REMARK  status: ('A' for Active; 'I' for Inactive)
REMARK    1  A    between atoms: C_1  and  O_2
REMARK    2  A    between atoms: O_2  and  C_3
REMARK    3  A    between atoms: C_6  and  N_7
REMARK    4  A    between atoms: N_7  and  C_8
REMARK    5  A    between atoms: C_12  and  C_13
REMARK    6  A    between atoms: C_12  and  C_14
REMARK    7  A    between atoms: C_25  and  N_26
REMARK                            x       y       z     vdW  Elec       q    Type
REMARK                         _______ _______ _______ _____ _____    ______ ____
ROOT
ATOM      1  C   UNL     1      -4.575  11.986  19.531  0.00  0.00    +0.000 C 
ATOM      2  C   UNL     1      -4.988  12.879  20.628  0.00  0.00    +0.000 C 
ATOM      3  C   UNL     1      -5.957  13.688  20.231  0.00  0.00    +0.000 C 
ATOM      4  O   UNL     1      -6.600  13.297  19.069  0.00  0.00    +0.000 OA
ATOM      5  C   UNL     1      -5.868  12.086  18.645  0.00  0.00    +0.000 C 
ATOM      6  C   UNL     1      -6.674  10.781  18.846  0.00  0.00    +0.000 C 
ATOM      7  C   UNL     1      -5.652  12.257  17.138  0.00  0.00    +0.000 C 
ATOM      8  C   UNL     1      -6.491  14.688  21.150  0.00  0.00    +0.000 A 
ATOM      9  C   UNL     1      -6.208  16.046  21.015  0.00  0.00    +0.000 A 
ATOM     10  C   UNL     1      -6.511  16.929  22.060  0.00  0.00    +0.000 A 
ATOM     11  C   UNL     1      -7.172  16.477  23.208  0.00  0.00    +0.000 A 
ATOM     12  C   UNL     1      -7.377  15.112  23.392  0.00  0.00    +0.000 A 
ATOM     13  C   UNL     1      -6.905  14.243  22.409  0.00  0.00    +0.000 A 
ATOM     14  C   UNL     1      -6.314  12.943  22.800  0.00  0.00    +0.000 C 
ATOM     15  O   UNL     1      -6.798  12.199  23.632  0.00  0.00    +0.000 OA
ATOM     16  C   UNL     1      -4.958  12.645  22.084  0.00  0.00    +0.000 C 
ATOM     17  O   UNL     1      -3.975  12.263  22.692  0.00  0.00    +0.000 OA
ENDROOT
BRANCH   1  18
ATOM     18  N   UNL     1      -3.403  12.519  18.821  0.00  0.00    +0.000 N 
ATOM     19  H   UNL     1      -3.329  13.542  18.829  0.00  0.00    +0.000 HD
BRANCH  18  23
ATOM     20  C   UNL     1       0.390  10.617  18.666  0.00  0.00    +0.000 A 
ATOM     21  C   UNL     1      -0.741  10.006  18.140  0.00  0.00    +0.000 A 
ATOM     22  C   UNL     1      -1.977  10.637  18.194  0.00  0.00    +0.000 A 
ATOM     23  C   UNL     1      -2.159  11.890  18.791  0.00  0.00    +0.000 A 
ATOM     24  C   UNL     1      -0.975  12.532  19.218  0.00  0.00    +0.000 A 
ATOM     25  C   UNL     1       0.284  11.905  19.183  0.00  0.00    +0.000 A 
BRANCH  24  26
ATOM     26  N   UNL     1      -1.009  13.911  19.681  0.00  0.00    +0.000 N 
ATOM     27  O   UNL     1      -0.426  14.758  18.988  0.00  0.00    +0.000 OA
ATOM     28  O   UNL     1      -1.654  14.149  20.715  0.00  0.00    +0.000 OA
ENDBRANCH  24  26
BRANCH  20  30
ATOM     29  C   UNL     1       1.838   8.952  17.829  0.00  0.00    +0.000 C 
ATOM     30  O   UNL     1       1.636  10.063  18.700  0.00  0.00    +0.000 OA
ENDBRANCH  20  30
ENDBRANCH  18  23
ENDBRANCH   1  18
TORSDOF 4
ENDMDL
MODEL 7
REMARK VINA RESULT:      -6.6      3.667      6.867
REMARK  Name = 
REMARK  7 active torsions:
REMARK  status: ('A' for Active; 'I' for Inactive)
REMARK    1  A    between atoms: C_1  and  O_2
REMARK    2  A    between atoms: O_2  and  C_3
REMARK    3  A    between atoms: C_6  and  N_7
REMARK    4  A    between atoms: N_7  and  C_8
REMARK    5  A    between atoms: C_12  and  C_13
REMARK    6  A    between atoms: C_12  and  C_14
REMARK    7  A    between atoms: C_25  and  N_26
REMARK                            x       y       z     vdW  Elec       q    Type
REMARK                         _______ _______ _______ _____ _____    ______ ____
ROOT
ATOM      1  C   UNL     1      -0.355  11.930  19.675  0.00  0.00    +0.000 C 
ATOM      2  C   UNL     1       0.073  10.521  19.666  0.00  0.00    +0.000 C 
ATOM      3  C   UNL     1       1.209  10.382  19.002  0.00  0.00    +0.000 C 
ATOM      4  O   UNL     1       1.908  11.558  18.797  0.00  0.00    +0.000 OA
ATOM      5  C   UNL     1       1.032  12.601  19.371  0.00  0.00    +0.000 C 
ATOM      6  C   UNL     1       1.567  13.189  20.697  0.00  0.00    +0.000 C 
ATOM      7  C   UNL     1       1.032  13.734  18.340  0.00  0.00    +0.000 C 
ATOM      8  C   UNL     1       1.795   9.056  18.834  0.00  0.00    +0.000 A 
ATOM      9  C   UNL     1       1.773   8.384  17.613  0.00  0.00    +0.000 A 
ATOM     10  C   UNL     1       2.097   7.022  17.560  0.00  0.00    +0.000 A 
ATOM     11  C   UNL     1       2.526   6.345  18.707  0.00  0.00    +0.000 A 
ATOM     12  C   UNL     1       2.465   6.981  19.945  0.00  0.00    +0.000 A 
ATOM     13  C   UNL     1       1.970   8.284  19.986  0.00  0.00    +0.000 A 
ATOM     14  C   UNL     1       1.118   8.711  21.119  0.00  0.00    +0.000 C 
ATOM     15  O   UNL     1       1.361   8.459  22.284  0.00  0.00    +0.000 OA
ATOM     16  C   UNL     1      -0.173   9.464  20.666  0.00  0.00    +0.000 C 
ATOM     17  O   UNL     1      -1.274   9.185  21.105  0.00  0.00    +0.000 OA
ENDROOT
BRANCH   1  18
ATOM     18  N   UNL     1      -1.322  12.201  18.600  0.00  0.00    +0.000 N 
ATOM     19  H   UNL     1      -0.955  12.066  17.652  0.00  0.00    +0.000 HD
BRANCH  18  23
ATOM     20  C   UNL     1      -5.488  11.422  18.859  0.00  0.00    +0.000 A 
ATOM     21  C   UNL     1      -4.860  12.270  19.761  0.00  0.00    +0.000 A 
ATOM     22  C   UNL     1      -3.496  12.520  19.668  0.00  0.00    +0.000 A 
ATOM     23  C   UNL     1      -2.686  11.927  18.693  0.00  0.00    +0.000 A 
ATOM     24  C   UNL     1      -3.371  11.157  17.725  0.00  0.00    +0.000 A 
ATOM     25  C   UNL     1      -4.748  10.882  17.810  0.00  0.00    +0.000 A 
BRANCH  24  26
ATOM     26  N   UNL     1      -2.669  10.645  16.559  0.00  0.00    +0.000 N 
ATOM     27  O   UNL     1      -3.005  11.093  15.451  0.00  0.00    +0.000 OA
ATOM     28  O   UNL     1      -1.757   9.826  16.756  0.00  0.00    +0.000 OA
ENDBRANCH  24  26
BRANCH  20  30
ATOM     29  C   UNL     1      -7.335  10.792  20.185  0.00  0.00    +0.000 C 
ATOM     30  O   UNL     1      -6.808  11.080  18.892  0.00  0.00    +0.000 OA
ENDBRANCH  20  30
ENDBRANCH  18  23
ENDBRANCH   1  18
TORSDOF 4
ENDMDL
MODEL 8
REMARK VINA RESULT:      -6.5      6.829      9.687
REMARK  Name = 
REMARK  7 active torsions:
REMARK  status: ('A' for Active; 'I' for Inactive)
REMARK    1  A    between atoms: C_1  and  O_2
REMARK    2  A    between atoms: O_2  and  C_3
REMARK    3  A    between atoms: C_6  and  N_7
REMARK    4  A    between atoms: N_7  and  C_8
REMARK    5  A    between atoms: C_12  and  C_13
REMARK    6  A    between atoms: C_12  and  C_14
REMARK    7  A    between atoms: C_25  and  N_26
REMARK                            x       y       z     vdW  Elec       q    Type
REMARK                         _______ _______ _______ _____ _____    ______ ____
ROOT
ATOM      1  C   UNL     1      -0.394  12.407  19.107  0.00  0.00    +0.000 C 
ATOM      2  C   UNL     1      -1.004  12.688  20.418  0.00  0.00    +0.000 C 
ATOM      3  C   UNL     1      -2.314  12.511  20.370  0.00  0.00    +0.000 C 
ATOM      4  O   UNL     1      -2.762  11.780  19.284  0.00  0.00    +0.000 OA
ATOM      5  C   UNL     1      -1.537  11.519  18.500  0.00  0.00    +0.000 C 
ATOM      6  C   UNL     1      -1.070  10.046  18.567  0.00  0.00    +0.000 C 
ATOM      7  C   UNL     1      -1.926  11.804  17.046  0.00  0.00    +0.000 C 
ATOM      8  C   UNL     1      -3.127  12.775  21.554  0.00  0.00    +0.000 A 
ATOM      9  C   UNL     1      -3.952  13.894  21.652  0.00  0.00    +0.000 A 
ATOM     10  C   UNL     1      -4.498  14.252  22.893  0.00  0.00    +0.000 A 
ATOM     11  C   UNL     1      -4.292  13.450  24.021  0.00  0.00    +0.000 A 
ATOM     12  C   UNL     1      -3.399  12.384  23.954  0.00  0.00    +0.000 A 
ATOM     13  C   UNL     1      -2.737  12.162  22.747  0.00  0.00    +0.000 A 
ATOM     14  C   UNL     1      -1.321  11.729  22.755  0.00  0.00    +0.000 C 
ATOM     15  O   UNL     1      -0.878  10.866  23.488  0.00  0.00    +0.000 OA
ATOM     16  C   UNL     1      -0.426  12.544  21.768  0.00  0.00    +0.000 C 
ATOM     17  O   UNL     1       0.645  13.016  22.103  0.00  0.00    +0.000 OA
ENDROOT
BRANCH   1  18
ATOM     18  N   UNL     1      -0.210  13.641  18.328  0.00  0.00    +0.000 N 
ATOM     19  H   UNL     1      -1.080  14.129  18.091  0.00  0.00    +0.000 HD
BRANCH  18  23
ATOM     20  C   UNL     1       3.077  16.293  18.759  0.00  0.00    +0.000 A 
ATOM     21  C   UNL     1       3.268  14.973  18.373  0.00  0.00    +0.000 A 
ATOM     22  C   UNL     1       2.186  14.112  18.233  0.00  0.00    +0.000 A 
ATOM     23  C   UNL     1       0.868  14.510  18.490  0.00  0.00    +0.000 A 
ATOM     24  C   UNL     1       0.697  15.884  18.773  0.00  0.00    +0.000 A 
ATOM     25  C   UNL     1       1.780  16.767  18.931  0.00  0.00    +0.000 A 
BRANCH  24  26
ATOM     26  N   UNL     1      -0.637  16.455  18.872  0.00  0.00    +0.000 N 
ATOM     27  O   UNL     1      -0.976  17.263  17.994  0.00  0.00    +0.000 OA
ATOM     28  O   UNL     1      -1.356  16.065  19.806  0.00  0.00    +0.000 OA
ENDBRANCH  24  26
BRANCH  20  30
ATOM     29  C   UNL     1       5.399  16.674  18.939  0.00  0.00    +0.000 C 
ATOM     30  O   UNL     1       4.075  17.201  18.964  0.00  0.00    +0.000 OA
ENDBRANCH  20  30
ENDBRANCH  18  23
ENDBRANCH   1  18
TORSDOF 4
ENDMDL
MODEL 9
REMARK VINA RESULT:      -6.5      4.345     10.588
REMARK  Name = 
REMARK  7 active torsions:
REMARK  status: ('A' for Active; 'I' for Inactive)
REMARK    1  A    between atoms: C_1  and  O_2
REMARK    2  A    between atoms: O_2  and  C_3
REMARK    3  A    between atoms: C_6  and  N_7
REMARK    4  A    between atoms: N_7  and  C_8
REMARK    5  A    between atoms: C_12  and  C_13
REMARK    6  A    between atoms: C_12  and  C_14
REMARK    7  A    between atoms: C_25  and  N_26
REMARK                            x       y       z     vdW  Elec       q    Type
REMARK                         _______ _______ _______ _____ _____    ______ ____
ROOT
ATOM      1  C   UNL     1      -1.941  12.839  20.574  0.00  0.00    +0.000 C 
ATOM      2  C   UNL     1      -3.382  12.836  20.881  0.00  0.00    +0.000 C 
ATOM      3  C   UNL     1      -3.625  13.526  21.984  0.00  0.00    +0.000 C 
ATOM      4  O   UNL     1      -2.601  14.367  22.380  0.00  0.00    +0.000 OA
ATOM      5  C   UNL     1      -1.526  14.108  21.399  0.00  0.00    +0.000 C 
ATOM      6  C   UNL     1      -1.317  15.268  20.398  0.00  0.00    +0.000 C 
ATOM      7  C   UNL     1      -0.245  13.993  22.232  0.00  0.00    +0.000 C 
ATOM      8  C   UNL     1      -4.989  13.620  22.497  0.00  0.00    +0.000 A 
ATOM      9  C   UNL     1      -5.403  12.929  23.634  0.00  0.00    +0.000 A 
ATOM     10  C   UNL     1      -6.769  12.830  23.933  0.00  0.00    +0.000 A 
ATOM     11  C   UNL     1      -7.720  13.490  23.146  0.00  0.00    +0.000 A 
ATOM     12  C   UNL     1      -7.327  14.105  21.960  0.00  0.00    +0.000 A 
ATOM     13  C   UNL     1      -5.981  14.033  21.603  0.00  0.00    +0.000 A 
ATOM     14  C   UNL     1      -5.607  13.858  20.181  0.00  0.00    +0.000 C 
ATOM     15  O   UNL     1      -6.114  14.474  19.264  0.00  0.00    +0.000 OA
ATOM     16  C   UNL     1      -4.533  12.745  19.962  0.00  0.00    +0.000 C 
ATOM     17  O   UNL     1      -4.657  11.884  19.111  0.00  0.00    +0.000 OA
ENDROOT
BRANCH   1  18
ATOM     18  N   UNL     1      -1.283  11.630  21.092  0.00  0.00    +0.000 N 
ATOM     19  H   UNL     1      -1.858  11.073  21.733  0.00  0.00    +0.000 HD
BRANCH  18  23
ATOM     20  C   UNL     1       1.476   9.300  18.858  0.00  0.00    +0.000 A 
ATOM     21  C   UNL     1       0.986  10.502  18.363  0.00  0.00    +0.000 A 
ATOM     22  C   UNL     1       0.084  11.258  19.102  0.00  0.00    +0.000 A 
ATOM     23  C   UNL     1      -0.393  10.852  20.354  0.00  0.00    +0.000 A 
ATOM     24  C   UNL     1       0.207   9.684  20.878  0.00  0.00    +0.000 A 
ATOM     25  C   UNL     1       1.111   8.898  20.140  0.00  0.00    +0.000 A 
BRANCH  24  26
ATOM     26  N   UNL     1      -0.064   9.265  22.244  0.00  0.00    +0.000 N 
ATOM     27  O   UNL     1       0.422   9.951  23.156  0.00  0.00    +0.000 OA
ATOM     28  O   UNL     1      -0.796   8.274  22.402  0.00  0.00    +0.000 OA
ENDBRANCH  24  26
BRANCH  20  30
ATOM     29  C   UNL     1       2.510   7.181  18.781  0.00  0.00    +0.000 C 
ATOM     30  O   UNL     1       2.328   8.468  18.194  0.00  0.00    +0.000 OA
ENDBRANCH  20  30
ENDBRANCH  18  23
ENDBRANCH   1  18
TORSDOF 4
ENDMDL
