MODEL 1
REMARK VINA RESULT:      -8.1      0.000      0.000
REMARK  Name = 
REMARK  5 active torsions:
REMARK  status: ('A' for Active; 'I' for Inactive)
REMARK    1  A    between atoms: C_3  and  N_4
REMARK    2  A    between atoms: N_4  and  C_5
REMARK    3  A    between atoms: N_8  and  C_9
REMARK    4  A    between atoms: C_9  and  C_10
REMARK    5  A    between atoms: C_13  and  C_14
REMARK                            x       y       z     vdW  Elec       q    Type
REMARK                         _______ _______ _______ _____ _____    ______ ____
ROOT
ATOM      1  C   UNL     1       5.941   4.296  17.878  0.00  0.00    +0.000 C 
ATOM      2  C   UNL     1       6.204   4.935  16.514  0.00  0.00    +0.000 C 
ATOM      3  C   UNL     1       6.400   6.403  16.860  0.00  0.00    +0.000 C 
ATOM      4  N   UNL     1       5.365   6.692  17.865  0.00  0.00    +0.000 NA
ATOM      5  C   UNL     1       5.359   5.474  18.709  0.00  0.00    +0.000 C 
ENDROOT
BRANCH   1   6
ATOM      6  N   UNL     1       4.989   3.181  17.850  0.00  0.00    +0.000 N 
ATOM      7  H   UNL     1       5.162   2.564  17.057  0.00  0.00    +0.000 HD
BRANCH   6  10
ATOM      8  C   UNL     1       1.399   4.046  17.327  0.00  0.00    +0.000 A 
ATOM      9  C   UNL     1       2.743   3.793  17.067  0.00  0.00    +0.000 A 
ATOM     10  C   UNL     1       3.611   3.309  18.056  0.00  0.00    +0.000 A 
ATOM     11  C   UNL     1       3.066   3.024  19.353  0.00  0.00    +0.000 A 
ATOM     12  C   UNL     1       3.818   2.500  20.423  0.00  0.00    +0.000 A 
ATOM     13  C   UNL     1       3.208   2.254  21.647  0.00  0.00    +0.000 A 
ATOM     14  N   UNL     1       1.908   2.505  21.899  0.00  0.00    +0.000 NA
ATOM     15  C   UNL     1       1.194   3.018  20.877  0.00  0.00    +0.000 A 
ATOM     16  C   UNL     1       1.699   3.288  19.598  0.00  0.00    +0.000 A 
ATOM     17  C   UNL     1       0.878   3.805  18.591  0.00  0.00    +0.000 A 
ENDBRANCH   6  10
ENDBRANCH   1   6
BRANCH   4  18
ATOM     18  C   UNL     1       4.060   6.901  17.203  0.00  0.00    +0.000 C 
BRANCH  18  19
ATOM     19  C   UNL     1       2.996   7.496  18.099  0.00  0.00    +0.000 A 
ATOM     20  C   UNL     1       2.684   6.934  19.340  0.00  0.00    +0.000 A 
ATOM     21  C   UNL     1       1.753   7.552  20.185  0.00  0.00    +0.000 A 
ATOM     22  C   UNL     1       1.118   8.753  19.825  0.00  0.00    +0.000 A 
ATOM     23  C   UNL     1       1.405   9.275  18.556  0.00  0.00    +0.000 A 
ATOM     24  C   UNL     1       2.328   8.662  17.705  0.00  0.00    +0.000 A 
BRANCH  22  25
ATOM     25  C   UNL     1       0.154   9.455  20.755  0.00  0.00    +0.000 C 
ATOM     26  C   UNL     1       0.093   9.073  22.217  0.00  0.00    +0.000 C 
ATOM     27  C   UNL     1       0.694  10.386  21.821  0.00  0.00    +0.000 C 
ENDBRANCH  22  25
ENDBRANCH  18  19
ENDBRANCH   4  18
TORSDOF 5
ENDMDL
MODEL 2
REMARK VINA RESULT:      -8.0      2.955      6.341
REMARK  Name = 
REMARK  5 active torsions:
REMARK  status: ('A' for Active; 'I' for Inactive)
REMARK    1  A    between atoms: C_3  and  N_4
REMARK    2  A    between atoms: N_4  and  C_5
REMARK    3  A    between atoms: N_8  and  C_9
REMARK    4  A    between atoms: C_9  and  C_10
REMARK    5  A    between atoms: C_13  and  C_14
REMARK                            x       y       z     vdW  Elec       q    Type
REMARK                         _______ _______ _______ _____ _____    ______ ____
ROOT
ATOM      1  C   UNL     1       5.253   6.770  17.546  0.00  0.00    +0.000 C 
ATOM      2  C   UNL     1       6.201   6.038  18.495  0.00  0.00    +0.000 C 
ATOM      3  C   UNL     1       7.566   6.295  17.876  0.00  0.00    +0.000 C 
ATOM      4  N   UNL     1       7.356   6.137  16.428  0.00  0.00    +0.000 NA
ATOM      5  C   UNL     1       6.037   6.773  16.203  0.00  0.00    +0.000 C 
ENDROOT
BRANCH   1   6
ATOM      6  N   UNL     1       3.952   6.117  17.366  0.00  0.00    +0.000 N 
ATOM      7  H   UNL     1       3.430   6.534  16.595  0.00  0.00    +0.000 HD
BRANCH   6  10
ATOM      8  C   UNL     1       1.890   6.372  20.463  0.00  0.00    +0.000 A 
ATOM      9  C   UNL     1       2.649   6.735  19.353  0.00  0.00    +0.000 A 
ATOM     10  C   UNL     1       3.076   5.792  18.407  0.00  0.00    +0.000 A 
ATOM     11  C   UNL     1       2.665   4.428  18.579  0.00  0.00    +0.000 A 
ATOM     12  C   UNL     1       2.992   3.390  17.684  0.00  0.00    +0.000 A 
ATOM     13  C   UNL     1       2.551   2.096  17.929  0.00  0.00    +0.000 A 
ATOM     14  N   UNL     1       1.822   1.744  19.005  0.00  0.00    +0.000 NA
ATOM     15  C   UNL     1       1.520   2.738  19.867  0.00  0.00    +0.000 A 
ATOM     16  C   UNL     1       1.895   4.079  19.712  0.00  0.00    +0.000 A 
ATOM     17  C   UNL     1       1.521   5.047  20.650  0.00  0.00    +0.000 A 
ENDBRANCH   6  10
ENDBRANCH   1   6
BRANCH   4  18
ATOM     18  C   UNL     1       7.335   4.702  16.072  0.00  0.00    +0.000 C 
BRANCH  18  19
ATOM     19  C   UNL     1       6.658   4.397  14.754  0.00  0.00    +0.000 A 
ATOM     20  C   UNL     1       7.345   4.483  13.540  0.00  0.00    +0.000 A 
ATOM     21  C   UNL     1       6.718   4.115  12.342  0.00  0.00    +0.000 A 
ATOM     22  C   UNL     1       5.396   3.639  12.321  0.00  0.00    +0.000 A 
ATOM     23  C   UNL     1       4.706   3.607  13.542  0.00  0.00    +0.000 A 
ATOM     24  C   UNL     1       5.323   3.976  14.740  0.00  0.00    +0.000 A 
BRANCH  22  25
ATOM     25  C   UNL     1       4.731   3.188  11.040  0.00  0.00    +0.000 C 
ATOM     26  C   UNL     1       3.276   2.777  11.041  0.00  0.00    +0.000 C 
ATOM     27  C   UNL     1       3.678   4.068  10.400  0.00  0.00    +0.000 C 
ENDBRANCH  22  25
ENDBRANCH  18  19
ENDBRANCH   4  18
TORSDOF 5
ENDMDL
MODEL 3
REMARK VINA RESULT:      -7.9      0.493      1.060
REMARK  Name = 
REMARK  5 active torsions:
REMARK  status: ('A' for Active; 'I' for Inactive)
REMARK    1  A    between atoms: C_3  and  N_4
REMARK    2  A    between atoms: N_4  and  C_5
REMARK    3  A    between atoms: N_8  and  C_9
REMARK    4  A    between atoms: C_9  and  C_10
REMARK    5  A    between atoms: C_13  and  C_14
REMARK                            x       y       z     vdW  Elec       q    Type
REMARK                         _______ _______ _______ _____ _____    ______ ____
ROOT
ATOM      1  C   UNL     1       5.834   4.364  17.272  0.00  0.00    +0.000 C 
ATOM      2  C   UNL     1       5.854   5.067  15.915  0.00  0.00    +0.000 C 
ATOM      3  C   UNL     1       6.090   6.521  16.291  0.00  0.00    +0.000 C 
ATOM      4  N   UNL     1       5.238   6.747  17.469  0.00  0.00    +0.000 NA
ATOM      5  C   UNL     1       5.390   5.493  18.244  0.00  0.00    +0.000 C 
ENDROOT
BRANCH   1   6
ATOM      6  N   UNL     1       4.903   3.234  17.355  0.00  0.00    +0.000 N 
ATOM      7  H   UNL     1       4.908   2.684  16.495  0.00  0.00    +0.000 HD
BRANCH   6  10
ATOM      8  C   UNL     1       1.276   4.043  17.659  0.00  0.00    +0.000 A 
ATOM      9  C   UNL     1       2.537   3.840  17.105  0.00  0.00    +0.000 A 
ATOM     10  C   UNL     1       3.599   3.315  17.855  0.00  0.00    +0.000 A 
ATOM     11  C   UNL     1       3.345   2.934  19.215  0.00  0.00    +0.000 A 
ATOM     12  C   UNL     1       4.311   2.361  20.065  0.00  0.00    +0.000 A 
ATOM     13  C   UNL     1       3.977   2.023  21.370  0.00  0.00    +0.000 A 
ATOM     14  N   UNL     1       2.758   2.225  21.907  0.00  0.00    +0.000 NA
ATOM     15  C   UNL     1       1.837   2.785  21.095  0.00  0.00    +0.000 A 
ATOM     16  C   UNL     1       2.058   3.149  19.760  0.00  0.00    +0.000 A 
ATOM     17  C   UNL     1       1.037   3.709  18.985  0.00  0.00    +0.000 A 
ENDBRANCH   6  10
ENDBRANCH   1   6
BRANCH   4  18
ATOM     18  C   UNL     1       3.838   6.961  17.049  0.00  0.00    +0.000 C 
BRANCH  18  19
ATOM     19  C   UNL     1       2.954   7.570  18.115  0.00  0.00    +0.000 A 
ATOM     20  C   UNL     1       2.267   8.768  17.901  0.00  0.00    +0.000 A 
ATOM     21  C   UNL     1       1.391   9.268  18.874  0.00  0.00    +0.000 A 
ATOM     22  C   UNL     1       1.164   8.581  20.080  0.00  0.00    +0.000 A 
ATOM     23  C   UNL     1       1.900   7.408  20.298  0.00  0.00    +0.000 A 
ATOM     24  C   UNL     1       2.778   6.906  19.335  0.00  0.00    +0.000 A 
BRANCH  22  25
ATOM     25  C   UNL     1       0.179   9.085  21.110  0.00  0.00    +0.000 C 
ATOM     26  C   UNL     1       0.614   9.285  22.545  0.00  0.00    +0.000 C 
ATOM     27  C   UNL     1       0.347  10.478  21.681  0.00  0.00    +0.000 C 
ENDBRANCH  22  25
ENDBRANCH  18  19
ENDBRANCH   4  18
TORSDOF 5
ENDMDL
MODEL 4
REMARK VINA RESULT:      -7.8      1.553      4.295
REMARK  Name = 
REMARK  5 active torsions:
REMARK  status: ('A' for Active; 'I' for Inactive)
REMARK    1  A    between atoms: C_3  and  N_4
REMARK    2  A    between atoms: N_4  and  C_5
REMARK    3  A    between atoms: N_8  and  C_9
REMARK    4  A    between atoms: C_9  and  C_10
REMARK    5  A    between atoms: C_13  and  C_14
REMARK                            x       y       z     vdW  Elec       q    Type
REMARK                         _______ _______ _______ _____ _____    ______ ____
ROOT
ATOM      1  C   UNL     1       3.260   2.693  18.557  0.00  0.00    +0.000 C 
ATOM      2  C   UNL     1       3.164   2.730  20.082  0.00  0.00    +0.000 C 
ATOM      3  C   UNL     1       1.877   3.503  20.321  0.00  0.00    +0.000 C 
ATOM      4  N   UNL     1       1.912   4.600  19.341  0.00  0.00    +0.000 NA
ATOM      5  C   UNL     1       2.460   3.954  18.126  0.00  0.00    +0.000 C 
ENDROOT
BRANCH   1   6
ATOM      6  N   UNL     1       4.630   2.764  18.035  0.00  0.00    +0.000 N 
ATOM      7  H   UNL     1       5.316   2.585  18.768  0.00  0.00    +0.000 HD
BRANCH   6  10
ATOM      8  C   UNL     1       5.365   4.723  14.949  0.00  0.00    +0.000 A 
ATOM      9  C   UNL     1       4.780   3.805  15.816  0.00  0.00    +0.000 A 
ATOM     10  C   UNL     1       5.102   3.765  17.180  0.00  0.00    +0.000 A 
ATOM     11  C   UNL     1       6.026   4.740  17.686  0.00  0.00    +0.000 A 
ATOM     12  C   UNL     1       6.407   4.834  19.039  0.00  0.00    +0.000 A 
ATOM     13  C   UNL     1       7.309   5.811  19.441  0.00  0.00    +0.000 A 
ATOM     14  N   UNL     1       7.879   6.695  18.600  0.00  0.00    +0.000 NA
ATOM     15  C   UNL     1       7.523   6.595  17.303  0.00  0.00    +0.000 A 
ATOM     16  C   UNL     1       6.611   5.664  16.789  0.00  0.00    +0.000 A 
ATOM     17  C   UNL     1       6.286   5.644  15.429  0.00  0.00    +0.000 A 
ENDBRANCH   6  10
ENDBRANCH   1   6
BRANCH   4  18
ATOM     18  C   UNL     1       2.791   5.685  19.825  0.00  0.00    +0.000 C 
BRANCH  18  19
ATOM     19  C   UNL     1       2.282   7.079  19.529  0.00  0.00    +0.000 A 
ATOM     20  C   UNL     1       2.390   7.643  18.255  0.00  0.00    +0.000 A 
ATOM     21  C   UNL     1       1.836   8.902  17.988  0.00  0.00    +0.000 A 
ATOM     22  C   UNL     1       1.147   9.627  18.976  0.00  0.00    +0.000 A 
ATOM     23  C   UNL     1       1.093   9.067  20.261  0.00  0.00    +0.000 A 
ATOM     24  C   UNL     1       1.646   7.814  20.536  0.00  0.00    +0.000 A 
BRANCH  22  25
ATOM     25  C   UNL     1       0.499  10.961  18.681  0.00  0.00    +0.000 C 
ATOM     26  C   UNL     1       0.196  11.925  19.805  0.00  0.00    +0.000 C 
ATOM     27  C   UNL     1       1.305  12.232  18.849  0.00  0.00    +0.000 C 
ENDBRANCH  22  25
ENDBRANCH  18  19
ENDBRANCH   4  18
TORSDOF 5
ENDMDL
MODEL 5
REMARK VINA RESULT:      -7.7      1.680      4.201
REMARK  Name = 
REMARK  5 active torsions:
REMARK  status: ('A' for Active; 'I' for Inactive)
REMARK    1  A    between atoms: C_3  and  N_4
REMARK    2  A    between atoms: N_4  and  C_5
REMARK    3  A    between atoms: N_8  and  C_9
REMARK    4  A    between atoms: C_9  and  C_10
REMARK    5  A    between atoms: C_13  and  C_14
REMARK                            x       y       z     vdW  Elec       q    Type
REMARK                         _______ _______ _______ _____ _____    ______ ____
ROOT
ATOM      1  C   UNL     1       3.206   2.958  18.957  0.00  0.00    +0.000 C 
ATOM      2  C   UNL     1       3.324   3.355  20.428  0.00  0.00    +0.000 C 
ATOM      3  C   UNL     1       2.068   4.181  20.657  0.00  0.00    +0.000 C 
ATOM      4  N   UNL     1       1.943   5.015  19.452  0.00  0.00    +0.000 NA
ATOM      5  C   UNL     1       2.328   4.093  18.358  0.00  0.00    +0.000 C 
ENDROOT
BRANCH   1   6
ATOM      6  N   UNL     1       4.486   2.884  18.245  0.00  0.00    +0.000 N 
ATOM      7  H   UNL     1       5.239   2.584  18.865  0.00  0.00    +0.000 HD
BRANCH   6  10
ATOM      8  C   UNL     1       5.160   4.800  15.117  0.00  0.00    +0.000 A 
ATOM      9  C   UNL     1       4.576   3.911  16.016  0.00  0.00    +0.000 A 
ATOM     10  C   UNL     1       4.962   3.860  17.364  0.00  0.00    +0.000 A 
ATOM     11  C   UNL     1       5.952   4.794  17.820  0.00  0.00    +0.000 A 
ATOM     12  C   UNL     1       6.401   4.875  19.153  0.00  0.00    +0.000 A 
ATOM     13  C   UNL     1       7.364   5.811  19.506  0.00  0.00    +0.000 A 
ATOM     14  N   UNL     1       7.933   6.666  18.635  0.00  0.00    +0.000 NA
ATOM     15  C   UNL     1       7.510   6.579  17.356  0.00  0.00    +0.000 A 
ATOM     16  C   UNL     1       6.534   5.688  16.892  0.00  0.00    +0.000 A 
ATOM     17  C   UNL     1       6.143   5.679  15.548  0.00  0.00    +0.000 A 
ENDBRANCH   6  10
ENDBRANCH   1   6
BRANCH   4  18
ATOM     18  C   UNL     1       2.861   6.171  19.537  0.00  0.00    +0.000 C 
BRANCH  18  19
ATOM     19  C   UNL     1       2.191   7.513  19.337  0.00  0.00    +0.000 A 
ATOM     20  C   UNL     1       1.518   8.159  20.378  0.00  0.00    +0.000 A 
ATOM     21  C   UNL     1       0.978   9.437  20.189  0.00  0.00    +0.000 A 
ATOM     22  C   UNL     1       1.106  10.115  18.964  0.00  0.00    +0.000 A 
ATOM     23  C   UNL     1       1.742   9.432  17.917  0.00  0.00    +0.000 A 
ATOM     24  C   UNL     1       2.278   8.155  18.096  0.00  0.00    +0.000 A 
BRANCH  22  25
ATOM     25  C   UNL     1       0.575  11.517  18.769  0.00  0.00    +0.000 C 
ATOM     26  C   UNL     1       0.418  12.443  19.954  0.00  0.00    +0.000 C 
ATOM     27  C   UNL     1       1.505  12.698  18.958  0.00  0.00    +0.000 C 
ENDBRANCH  22  25
ENDBRANCH  18  19
ENDBRANCH   4  18
TORSDOF 5
ENDMDL
MODEL 6
REMARK VINA RESULT:      -7.6      2.137      6.072
REMARK  Name = 
REMARK  5 active torsions:
REMARK  status: ('A' for Active; 'I' for Inactive)
REMARK    1  A    between atoms: C_3  and  N_4
REMARK    2  A    between atoms: N_4  and  C_5
REMARK    3  A    between atoms: N_8  and  C_9
REMARK    4  A    between atoms: C_9  and  C_10
REMARK    5  A    between atoms: C_13  and  C_14
REMARK                            x       y       z     vdW  Elec       q    Type
REMARK                         _______ _______ _______ _____ _____    ______ ____
ROOT
ATOM      1  C   UNL     1       2.082   5.236  20.746  0.00  0.00    +0.000 C 
ATOM      2  C   UNL     1       0.920   4.836  19.838  0.00  0.00    +0.000 C 
ATOM      3  C   UNL     1       0.995   3.317  19.842  0.00  0.00    +0.000 C 
ATOM      4  N   UNL     1       2.431   3.013  19.742  0.00  0.00    +0.000 NA
ATOM      5  C   UNL     1       3.056   4.032  20.618  0.00  0.00    +0.000 C 
ENDROOT
BRANCH   1   6
ATOM      6  N   UNL     1       2.760   6.476  20.351  0.00  0.00    +0.000 N 
ATOM      7  H   UNL     1       3.353   6.830  21.102  0.00  0.00    +0.000 HD
BRANCH   6  10
ATOM      8  C   UNL     1       1.776   8.907  17.701  0.00  0.00    +0.000 A 
ATOM      9  C   UNL     1       2.282   7.766  18.318  0.00  0.00    +0.000 A 
ATOM     10  C   UNL     1       2.141   7.544  19.695  0.00  0.00    +0.000 A 
ATOM     11  C   UNL     1       1.406   8.508  20.464  0.00  0.00    +0.000 A 
ATOM     12  C   UNL     1       1.159   8.389  21.845  0.00  0.00    +0.000 A 
ATOM     13  C   UNL     1       0.437   9.371  22.511  0.00  0.00    +0.000 A 
ATOM     14  N   UNL     1      -0.047  10.478  21.914  0.00  0.00    +0.000 NA
ATOM     15  C   UNL     1       0.201  10.597  20.593  0.00  0.00    +0.000 A 
ATOM     16  C   UNL     1       0.901   9.661  19.819  0.00  0.00    +0.000 A 
ATOM     17  C   UNL     1       1.096   9.859  18.449  0.00  0.00    +0.000 A 
ENDBRANCH   6  10
ENDBRANCH   1   6
BRANCH   4  18
ATOM     18  C   UNL     1       2.882   3.150  18.341  0.00  0.00    +0.000 C 
BRANCH  18  19
ATOM     19  C   UNL     1       4.043   4.101  18.150  0.00  0.00    +0.000 A 
ATOM     20  C   UNL     1       5.213   3.989  18.907  0.00  0.00    +0.000 A 
ATOM     21  C   UNL     1       6.304   4.831  18.654  0.00  0.00    +0.000 A 
ATOM     22  C   UNL     1       6.267   5.795  17.631  0.00  0.00    +0.000 A 
ATOM     23  C   UNL     1       5.068   5.925  16.917  0.00  0.00    +0.000 A 
ATOM     24  C   UNL     1       3.974   5.094  17.167  0.00  0.00    +0.000 A 
BRANCH  22  25
ATOM     25  C   UNL     1       7.460   6.669  17.316  0.00  0.00    +0.000 C 
ATOM     26  C   UNL     1       7.370   8.169  17.483  0.00  0.00    +0.000 C 
ATOM     27  C   UNL     1       8.190   7.366  18.444  0.00  0.00    +0.000 C 
ENDBRANCH  22  25
ENDBRANCH  18  19
ENDBRANCH   4  18
TORSDOF 5
ENDMDL
MODEL 7
REMARK VINA RESULT:      -7.5      0.655      1.304
REMARK  Name = 
REMARK  5 active torsions:
REMARK  status: ('A' for Active; 'I' for Inactive)
REMARK    1  A    between atoms: C_3  and  N_4
REMARK    2  A    between atoms: N_4  and  C_5
REMARK    3  A    between atoms: N_8  and  C_9
REMARK    4  A    between atoms: C_9  and  C_10
REMARK    5  A    between atoms: C_13  and  C_14
REMARK                            x       y       z     vdW  Elec       q    Type
REMARK                         _______ _______ _______ _____ _____    ______ ____
ROOT
ATOM      1  C   UNL     1       5.901   4.285  17.944  0.00  0.00    +0.000 C 
ATOM      2  C   UNL     1       6.043   4.848  16.530  0.00  0.00    +0.000 C 
ATOM      3  C   UNL     1       6.223   6.338  16.775  0.00  0.00    +0.000 C 
ATOM      4  N   UNL     1       5.258   6.662  17.838  0.00  0.00    +0.000 NA
ATOM      5  C   UNL     1       5.350   5.496  18.748  0.00  0.00    +0.000 C 
ENDROOT
BRANCH   1   6
ATOM      6  N   UNL     1       4.980   3.149  18.053  0.00  0.00    +0.000 N 
ATOM      7  H   UNL     1       5.204   2.423  17.372  0.00  0.00    +0.000 HD
BRANCH   6  10
ATOM      8  C   UNL     1       1.412   3.949  17.323  0.00  0.00    +0.000 A 
ATOM      9  C   UNL     1       2.771   3.710  17.140  0.00  0.00    +0.000 A 
ATOM     10  C   UNL     1       3.593   3.261  18.184  0.00  0.00    +0.000 A 
ATOM     11  C   UNL     1       2.984   2.997  19.457  0.00  0.00    +0.000 A 
ATOM     12  C   UNL     1       3.685   2.508  20.577  0.00  0.00    +0.000 A 
ATOM     13  C   UNL     1       3.015   2.280  21.772  0.00  0.00    +0.000 A 
ATOM     14  N   UNL     1       1.701   2.517  21.950  0.00  0.00    +0.000 NA
ATOM     15  C   UNL     1       1.034   2.997  20.880  0.00  0.00    +0.000 A 
ATOM     16  C   UNL     1       1.602   3.247  19.624  0.00  0.00    +0.000 A 
ATOM     17  C   UNL     1       0.829   3.729  18.563  0.00  0.00    +0.000 A 
ENDBRANCH   6  10
ENDBRANCH   1   6
BRANCH   4  18
ATOM     18  C   UNL     1       3.902   6.801  17.267  0.00  0.00    +0.000 C 
BRANCH  18  19
ATOM     19  C   UNL     1       2.975   7.686  18.072  0.00  0.00    +0.000 A 
ATOM     20  C   UNL     1       2.542   8.924  17.589  0.00  0.00    +0.000 A 
ATOM     21  C   UNL     1       1.620   9.686  18.318  0.00  0.00    +0.000 A 
ATOM     22  C   UNL     1       1.092   9.231  19.539  0.00  0.00    +0.000 A 
ATOM     23  C   UNL     1       1.576   8.010  20.031  0.00  0.00    +0.000 A 
ATOM     24  C   UNL     1       2.499   7.247  19.313  0.00  0.00    +0.000 A 
BRANCH  22  25
ATOM     25  C   UNL     1       0.055  10.022  20.303  0.00  0.00    +0.000 C 
ATOM     26  C   UNL     1      -0.155  11.489  20.005  0.00  0.00    +0.000 C 
ATOM     27  C   UNL     1      -1.194  10.495  19.589  0.00  0.00    +0.000 C 
ENDBRANCH  22  25
ENDBRANCH  18  19
ENDBRANCH   4  18
TORSDOF 5
ENDMDL
MODEL 8
REMARK VINA RESULT:      -7.4      1.797      4.681
REMARK  Name = 
REMARK  5 active torsions:
REMARK  status: ('A' for Active; 'I' for Inactive)
REMARK    1  A    between atoms: C_3  and  N_4
REMARK    2  A    between atoms: N_4  and  C_5
REMARK    3  A    between atoms: N_8  and  C_9
REMARK    4  A    between atoms: C_9  and  C_10
REMARK    5  A    between atoms: C_13  and  C_14
REMARK                            x       y       z     vdW  Elec       q    Type
REMARK                         _______ _______ _______ _____ _____    ______ ____
ROOT
ATOM      1  C   UNL     1       3.353   3.105  18.431  0.00  0.00    +0.000 C 
ATOM      2  C   UNL     1       2.932   3.593  19.817  0.00  0.00    +0.000 C 
ATOM      3  C   UNL     1       1.710   4.447  19.518  0.00  0.00    +0.000 C 
ATOM      4  N   UNL     1       2.069   5.204  18.309  0.00  0.00    +0.000 NA
ATOM      5  C   UNL     1       2.799   4.210  17.488  0.00  0.00    +0.000 C 
ENDROOT
BRANCH   1   6
ATOM      6  N   UNL     1       4.802   2.970  18.252  0.00  0.00    +0.000 N 
ATOM      7  H   UNL     1       5.203   2.326  18.934  0.00  0.00    +0.000 HD
BRANCH   6  10
ATOM      8  C   UNL     1       6.854   6.029  18.835  0.00  0.00    +0.000 A 
ATOM      9  C   UNL     1       6.094   4.888  19.078  0.00  0.00    +0.000 A 
ATOM     10  C   UNL     1       5.679   4.040  18.042  0.00  0.00    +0.000 A 
ATOM     11  C   UNL     1       6.104   4.346  16.705  0.00  0.00    +0.000 A 
ATOM     12  C   UNL     1       5.790   3.558  15.580  0.00  0.00    +0.000 A 
ATOM     13  C   UNL     1       6.244   3.931  14.322  0.00  0.00    +0.000 A 
ATOM     14  N   UNL     1       6.975   5.038  14.087  0.00  0.00    +0.000 NA
ATOM     15  C   UNL     1       7.264   5.797  15.164  0.00  0.00    +0.000 A 
ATOM     16  C   UNL     1       6.875   5.510  16.479  0.00  0.00    +0.000 A 
ATOM     17  C   UNL     1       7.236   6.347  17.539  0.00  0.00    +0.000 A 
ENDBRANCH   6  10
ENDBRANCH   1   6
BRANCH   4  18
ATOM     18  C   UNL     1       2.929   6.352  18.666  0.00  0.00    +0.000 C 
BRANCH  18  19
ATOM     19  C   UNL     1       2.172   7.628  18.965  0.00  0.00    +0.000 A 
ATOM     20  C   UNL     1       1.702   7.917  20.250  0.00  0.00    +0.000 A 
ATOM     21  C   UNL     1       1.077   9.141  20.517  0.00  0.00    +0.000 A 
ATOM     22  C   UNL     1       0.915  10.118  19.519  0.00  0.00    +0.000 A 
ATOM     23  C   UNL     1       1.347   9.790  18.226  0.00  0.00    +0.000 A 
ATOM     24  C   UNL     1       1.967   8.569  17.950  0.00  0.00    +0.000 A 
BRANCH  22  25
ATOM     25  C   UNL     1       0.291  11.463  19.813  0.00  0.00    +0.000 C 
ATOM     26  C   UNL     1      -0.103  12.383  18.680  0.00  0.00    +0.000 C 
ATOM     27  C   UNL     1      -1.167  11.696  19.476  0.00  0.00    +0.000 C 
ENDBRANCH  22  25
ENDBRANCH  18  19
ENDBRANCH   4  18
TORSDOF 5
ENDMDL
MODEL 9
REMARK VINA RESULT:      -7.4      1.657      4.702
REMARK  Name = 
REMARK  5 active torsions:
REMARK  status: ('A' for Active; 'I' for Inactive)
REMARK    1  A    between atoms: C_3  and  N_4
REMARK    2  A    between atoms: N_4  and  C_5
REMARK    3  A    between atoms: N_8  and  C_9
REMARK    4  A    between atoms: C_9  and  C_10
REMARK    5  A    between atoms: C_13  and  C_14
REMARK                            x       y       z     vdW  Elec       q    Type
REMARK                         _______ _______ _______ _____ _____    ______ ____
ROOT
ATOM      1  C   UNL     1       3.347   3.157  18.273  0.00  0.00    +0.000 C 
ATOM      2  C   UNL     1       2.803   3.409  19.678  0.00  0.00    +0.000 C 
ATOM      3  C   UNL     1       1.621   4.331  19.423  0.00  0.00    +0.000 C 
ATOM      4  N   UNL     1       2.097   5.277  18.401  0.00  0.00    +0.000 NA
ATOM      5  C   UNL     1       2.893   4.422  17.490  0.00  0.00    +0.000 C 
ENDROOT
BRANCH   1   6
ATOM      6  N   UNL     1       4.806   3.021  18.204  0.00  0.00    +0.000 N 
ATOM      7  H   UNL     1       5.160   2.433  18.959  0.00  0.00    +0.000 HD
BRANCH   6  10
ATOM      8  C   UNL     1       6.889   6.068  18.738  0.00  0.00    +0.000 A 
ATOM      9  C   UNL     1       6.119   4.938  18.999  0.00  0.00    +0.000 A 
ATOM     10  C   UNL     1       5.692   4.079  17.976  0.00  0.00    +0.000 A 
ATOM     11  C   UNL     1       6.116   4.362  16.634  0.00  0.00    +0.000 A 
ATOM     12  C   UNL     1       5.790   3.562  15.522  0.00  0.00    +0.000 A 
ATOM     13  C   UNL     1       6.244   3.911  14.257  0.00  0.00    +0.000 A 
ATOM     14  N   UNL     1       6.984   5.008  14.003  0.00  0.00    +0.000 NA
ATOM     15  C   UNL     1       7.285   5.780  15.068  0.00  0.00    +0.000 A 
ATOM     16  C   UNL     1       6.897   5.515  16.388  0.00  0.00    +0.000 A 
ATOM     17  C   UNL     1       7.270   6.364  17.436  0.00  0.00    +0.000 A 
ENDBRANCH   6  10
ENDBRANCH   1   6
BRANCH   4  18
ATOM     18  C   UNL     1       2.929   6.325  19.029  0.00  0.00    +0.000 C 
BRANCH  18  19
ATOM     19  C   UNL     1       2.196   7.621  19.302  0.00  0.00    +0.000 A 
ATOM     20  C   UNL     1       2.003   8.578  18.302  0.00  0.00    +0.000 A 
ATOM     21  C   UNL     1       1.251   9.731  18.560  0.00  0.00    +0.000 A 
ATOM     22  C   UNL     1       0.658   9.956  19.814  0.00  0.00    +0.000 A 
ATOM     23  C   UNL     1       0.904   9.010  20.819  0.00  0.00    +0.000 A 
ATOM     24  C   UNL     1       1.658   7.860  20.572  0.00  0.00    +0.000 A 
BRANCH  22  25
ATOM     25  C   UNL     1      -0.202  11.171  20.083  0.00  0.00    +0.000 C 
ATOM     26  C   UNL     1      -0.476  11.610  21.504  0.00  0.00    +0.000 C 
ATOM     27  C   UNL     1       0.438  12.424  20.643  0.00  0.00    +0.000 C 
ENDBRANCH  22  25
ENDBRANCH  18  19
ENDBRANCH   4  18
TORSDOF 5
ENDMDL
