MODEL 1
REMARK VINA RESULT:      -7.3      0.000      0.000
REMARK  Name = 
REMARK  7 active torsions:
REMARK  status: ('A' for Active; 'I' for Inactive)
REMARK    1  A    between atoms: C_1  and  C_2
REMARK    2  A    between atoms: C_2  and  N_3
REMARK    3  A    between atoms: N_3  and  C_4
REMARK    4  A    between atoms: N_3  and  C_13
REMARK    5  A    between atoms: C_4  and  C_5
REMARK    6  A    between atoms: C_6  and  C_7
REMARK    7  A    between atoms: C_13  and  C_14
REMARK                            x       y       z     vdW  Elec       q    Type
REMARK                         _______ _______ _______ _____ _____    ______ ____
ROOT
ATOM      1  N   UNL     1       3.340   3.753  18.945  0.00  0.00    +0.000 NA
ENDROOT
BRANCH   1   3
ATOM      2  C   UNL     1       1.345   2.163  18.985  0.00  0.00    +0.000 C 
ATOM      3  C   UNL     1       2.629   2.633  18.274  0.00  0.00    +0.000 C 
ENDBRANCH   1   3
BRANCH   1   4
ATOM      4  C   UNL     1       2.657   4.127  20.210  0.00  0.00    +0.000 C 
BRANCH   4   5
ATOM      5  C   UNL     1       2.064   5.507  20.146  0.00  0.00    +0.000 C 
ATOM      6  C   UNL     1       2.586   6.507  19.416  0.00  0.00    +0.000 C 
BRANCH   6   7
ATOM      7  C   UNL     1       1.983   7.867  19.393  0.00  0.00    +0.000 A 
ATOM      8  C   UNL     1       1.976   8.658  18.224  0.00  0.00    +0.000 A 
ATOM      9  C   UNL     1       1.402   9.929  18.229  0.00  0.00    +0.000 A 
ATOM     10  C   UNL     1       0.840  10.439  19.400  0.00  0.00    +0.000 A 
ATOM     11  C   UNL     1       0.838   9.667  20.565  0.00  0.00    +0.000 A 
ATOM     12  C   UNL     1       1.395   8.383  20.561  0.00  0.00    +0.000 A 
ENDBRANCH   6   7
ENDBRANCH   4   5
ENDBRANCH   1   4
BRANCH   1  13
ATOM     13  C   UNL     1       4.785   3.482  19.182  0.00  0.00    +0.000 C 
BRANCH  13  14
ATOM     14  C   UNL     1       5.709   4.471  18.509  0.00  0.00    +0.000 A 
ATOM     15  C   UNL     1       6.438   5.424  19.256  0.00  0.00    +0.000 A 
ATOM     16  C   UNL     1       7.345   6.300  18.613  0.00  0.00    +0.000 A 
ATOM     17  C   UNL     1       7.539   6.234  17.222  0.00  0.00    +0.000 A 
ATOM     18  C   UNL     1       6.806   5.288  16.512  0.00  0.00    +0.000 A 
ATOM     19  C   UNL     1       6.790   4.985  15.173  0.00  0.00    +0.000 A 
ATOM     20  C   UNL     1       5.874   3.947  15.054  0.00  0.00    +0.000 A 
ATOM     21  O   UNL     1       5.375   3.641  16.239  0.00  0.00    +0.000 OA
ATOM     22  C   UNL     1       5.924   4.440  17.125  0.00  0.00    +0.000 A 
ENDBRANCH  13  14
ENDBRANCH   1  13
TORSDOF 6
ENDMDL
MODEL 2
REMARK VINA RESULT:      -7.3      0.352      1.086
REMARK  Name = 
REMARK  7 active torsions:
REMARK  status: ('A' for Active; 'I' for Inactive)
REMARK    1  A    between atoms: C_1  and  C_2
REMARK    2  A    between atoms: C_2  and  N_3
REMARK    3  A    between atoms: N_3  and  C_4
REMARK    4  A    between atoms: N_3  and  C_13
REMARK    5  A    between atoms: C_4  and  C_5
REMARK    6  A    between atoms: C_6  and  C_7
REMARK    7  A    between atoms: C_13  and  C_14
REMARK                            x       y       z     vdW  Elec       q    Type
REMARK                         _______ _______ _______ _____ _____    ______ ____
ROOT
ATOM      1  N   UNL     1       3.403   3.696  19.156  0.00  0.00    +0.000 NA
ENDROOT
BRANCH   1   3
ATOM      2  C   UNL     1       1.137   2.730  18.493  0.00  0.00    +0.000 C 
ATOM      3  C   UNL     1       2.645   2.499  18.707  0.00  0.00    +0.000 C 
ENDBRANCH   1   3
BRANCH   1   4
ATOM      4  C   UNL     1       2.848   4.224  20.428  0.00  0.00    +0.000 C 
BRANCH   4   5
ATOM      5  C   UNL     1       2.306   5.618  20.275  0.00  0.00    +0.000 C 
ATOM      6  C   UNL     1       2.591   6.414  19.231  0.00  0.00    +0.000 C 
BRANCH   6   7
ATOM      7  C   UNL     1       2.053   7.797  19.123  0.00  0.00    +0.000 A 
ATOM      8  C   UNL     1       1.373   8.417  20.194  0.00  0.00    +0.000 A 
ATOM      9  C   UNL     1       0.880   9.715  20.067  0.00  0.00    +0.000 A 
ATOM     10  C   UNL     1       1.043  10.412  18.870  0.00  0.00    +0.000 A 
ATOM     11  C   UNL     1       1.715   9.813  17.801  0.00  0.00    +0.000 A 
ATOM     12  C   UNL     1       2.229   8.518  17.928  0.00  0.00    +0.000 A 
ENDBRANCH   6   7
ENDBRANCH   4   5
ENDBRANCH   1   4
BRANCH   1  13
ATOM     13  C   UNL     1       4.869   3.463  19.272  0.00  0.00    +0.000 C 
BRANCH  13  14
ATOM     14  C   UNL     1       5.710   4.483  18.539  0.00  0.00    +0.000 A 
ATOM     15  C   UNL     1       6.482   5.439  19.236  0.00  0.00    +0.000 A 
ATOM     16  C   UNL     1       7.310   6.345  18.533  0.00  0.00    +0.000 A 
ATOM     17  C   UNL     1       7.381   6.308  17.129  0.00  0.00    +0.000 A 
ATOM     18  C   UNL     1       6.608   5.358  16.469  0.00  0.00    +0.000 A 
ATOM     19  C   UNL     1       6.479   5.078  15.131  0.00  0.00    +0.000 A 
ATOM     20  C   UNL     1       5.578   4.022  15.074  0.00  0.00    +0.000 A 
ATOM     21  O   UNL     1       5.192   3.685  16.292  0.00  0.00    +0.000 OA
ATOM     22  C   UNL     1       5.801   4.480  17.141  0.00  0.00    +0.000 A 
ENDBRANCH  13  14
ENDBRANCH   1  13
TORSDOF 6
ENDMDL
MODEL 3
REMARK VINA RESULT:      -7.2      1.338      2.418
REMARK  Name = 
REMARK  7 active torsions:
REMARK  status: ('A' for Active; 'I' for Inactive)
REMARK    1  A    between atoms: C_1  and  C_2
REMARK    2  A    between atoms: C_2  and  N_3
REMARK    3  A    between atoms: N_3  and  C_4
REMARK    4  A    between atoms: N_3  and  C_13
REMARK    5  A    between atoms: C_4  and  C_5
REMARK    6  A    between atoms: C_6  and  C_7
REMARK    7  A    between atoms: C_13  and  C_14
REMARK                            x       y       z     vdW  Elec       q    Type
REMARK                         _______ _______ _______ _____ _____    ______ ____
ROOT
ATOM      1  N   UNL     1       2.742   3.632  19.699  0.00  0.00    +0.000 NA
ENDROOT
BRANCH   1   3
ATOM      2  C   UNL     1       1.452   2.519  21.599  0.00  0.00    +0.000 C 
ATOM      3  C   UNL     1       1.881   2.495  20.119  0.00  0.00    +0.000 C 
ENDBRANCH   1   3
BRANCH   1   4
ATOM      4  C   UNL     1       2.624   4.762  20.655  0.00  0.00    +0.000 C 
BRANCH   4   5
ATOM      5  C   UNL     1       2.122   6.015  19.992  0.00  0.00    +0.000 C 
ATOM      6  C   UNL     1       1.939   7.176  20.643  0.00  0.00    +0.000 C 
BRANCH   6   7
ATOM      7  C   UNL     1       1.420   8.391  19.958  0.00  0.00    +0.000 A 
ATOM      8  C   UNL     1       0.551   9.296  20.604  0.00  0.00    +0.000 A 
ATOM      9  C   UNL     1       0.081  10.429  19.940  0.00  0.00    +0.000 A 
ATOM     10  C   UNL     1       0.456  10.672  18.619  0.00  0.00    +0.000 A 
ATOM     11  C   UNL     1       1.317   9.787  17.966  0.00  0.00    +0.000 A 
ATOM     12  C   UNL     1       1.808   8.658  18.633  0.00  0.00    +0.000 A 
ENDBRANCH   6   7
ENDBRANCH   4   5
ENDBRANCH   1   4
BRANCH   1  13
ATOM     13  C   UNL     1       4.167   3.255  19.496  0.00  0.00    +0.000 C 
BRANCH  13  14
ATOM     14  C   UNL     1       4.843   4.007  18.372  0.00  0.00    +0.000 A 
ATOM     15  C   UNL     1       4.319   3.997  17.060  0.00  0.00    +0.000 A 
ATOM     16  C   UNL     1       4.931   4.757  16.035  0.00  0.00    +0.000 A 
ATOM     17  C   UNL     1       6.068   5.539  16.307  0.00  0.00    +0.000 A 
ATOM     18  C   UNL     1       6.563   5.528  17.607  0.00  0.00    +0.000 A 
ATOM     19  C   UNL     1       7.630   6.186  18.167  0.00  0.00    +0.000 A 
ATOM     20  C   UNL     1       7.629   5.796  19.500  0.00  0.00    +0.000 A 
ATOM     21  O   UNL     1       6.628   4.965  19.731  0.00  0.00    +0.000 OA
ATOM     22  C   UNL     1       5.980   4.792  18.603  0.00  0.00    +0.000 A 
ENDBRANCH  13  14
ENDBRANCH   1  13
TORSDOF 6
ENDMDL
MODEL 4
REMARK VINA RESULT:      -7.2      3.723      6.761
REMARK  Name = 
REMARK  7 active torsions:
REMARK  status: ('A' for Active; 'I' for Inactive)
REMARK    1  A    between atoms: C_1  and  C_2
REMARK    2  A    between atoms: C_2  and  N_3
REMARK    3  A    between atoms: N_3  and  C_4
REMARK    4  A    between atoms: N_3  and  C_13
REMARK    5  A    between atoms: C_4  and  C_5
REMARK    6  A    between atoms: C_6  and  C_7
REMARK    7  A    between atoms: C_13  and  C_14
REMARK                            x       y       z     vdW  Elec       q    Type
REMARK                         _______ _______ _______ _____ _____    ______ ____
ROOT
ATOM      1  N   UNL     1       6.864   6.593  18.120  0.00  0.00    +0.000 NA
ENDROOT
BRANCH   1   3
ATOM      2  C   UNL     1       7.970   5.422  20.099  0.00  0.00    +0.000 C 
ATOM      3  C   UNL     1       8.005   5.769  18.598  0.00  0.00    +0.000 C 
ENDBRANCH   1   3
BRANCH   1   4
ATOM      4  C   UNL     1       7.348   7.756  17.334  0.00  0.00    +0.000 C 
BRANCH   4   5
ATOM      5  C   UNL     1       8.299   8.615  18.121  0.00  0.00    +0.000 C 
ATOM      6  C   UNL     1       8.529   9.910  17.847  0.00  0.00    +0.000 C 
BRANCH   6   7
ATOM      7  C   UNL     1       9.495  10.724  18.635  0.00  0.00    +0.000 A 
ATOM      8  C   UNL     1       9.385  10.859  20.036  0.00  0.00    +0.000 A 
ATOM      9  C   UNL     1      10.304  11.626  20.750  0.00  0.00    +0.000 A 
ATOM     10  C   UNL     1      11.338  12.282  20.082  0.00  0.00    +0.000 A 
ATOM     11  C   UNL     1      11.461  12.158  18.696  0.00  0.00    +0.000 A 
ATOM     12  C   UNL     1      10.553  11.373  17.975  0.00  0.00    +0.000 A 
ENDBRANCH   6   7
ENDBRANCH   4   5
ENDBRANCH   1   4
BRANCH   1  13
ATOM     13  C   UNL     1       5.851   5.818  17.353  0.00  0.00    +0.000 C 
BRANCH  13  14
ATOM     14  C   UNL     1       4.544   5.625  18.089  0.00  0.00    +0.000 A 
ATOM     15  C   UNL     1       3.491   6.561  17.977  0.00  0.00    +0.000 A 
ATOM     16  C   UNL     1       2.254   6.332  18.625  0.00  0.00    +0.000 A 
ATOM     17  C   UNL     1       2.050   5.167  19.385  0.00  0.00    +0.000 A 
ATOM     18  C   UNL     1       3.105   4.264  19.479  0.00  0.00    +0.000 A 
ATOM     19  C   UNL     1       3.199   3.058  20.128  0.00  0.00    +0.000 A 
ATOM     20  C   UNL     1       4.485   2.607  19.857  0.00  0.00    +0.000 A 
ATOM     21  O   UNL     1       5.122   3.479  19.093  0.00  0.00    +0.000 OA
ATOM     22  C   UNL     1       4.307   4.481  18.860  0.00  0.00    +0.000 A 
ENDBRANCH  13  14
ENDBRANCH   1  13
TORSDOF 6
ENDMDL
MODEL 5
REMARK VINA RESULT:      -7.2      3.563      6.610
REMARK  Name = 
REMARK  7 active torsions:
REMARK  status: ('A' for Active; 'I' for Inactive)
REMARK    1  A    between atoms: C_1  and  C_2
REMARK    2  A    between atoms: C_2  and  N_3
REMARK    3  A    between atoms: N_3  and  C_4
REMARK    4  A    between atoms: N_3  and  C_13
REMARK    5  A    between atoms: C_4  and  C_5
REMARK    6  A    between atoms: C_6  and  C_7
REMARK    7  A    between atoms: C_13  and  C_14
REMARK                            x       y       z     vdW  Elec       q    Type
REMARK                         _______ _______ _______ _____ _____    ______ ____
ROOT
ATOM      1  N   UNL     1       6.595   6.467  18.167  0.00  0.00    +0.000 NA
ENDROOT
BRANCH   1   3
ATOM      2  C   UNL     1       8.145   5.461  19.927  0.00  0.00    +0.000 C 
ATOM      3  C   UNL     1       7.617   5.433  18.480  0.00  0.00    +0.000 C 
ENDBRANCH   1   3
BRANCH   1   4
ATOM      4  C   UNL     1       7.172   7.533  17.310  0.00  0.00    +0.000 C 
BRANCH   4   5
ATOM      5  C   UNL     1       8.117   8.422  18.071  0.00  0.00    +0.000 C 
ATOM      6  C   UNL     1       8.387   9.690  17.720  0.00  0.00    +0.000 C 
BRANCH   6   7
ATOM      7  C   UNL     1       9.345  10.534  18.485  0.00  0.00    +0.000 A 
ATOM      8  C   UNL     1      10.368  11.266  17.844  0.00  0.00    +0.000 A 
ATOM      9  C   UNL     1      11.251  12.051  18.585  0.00  0.00    +0.000 A 
ATOM     10  C   UNL     1      11.140  12.109  19.974  0.00  0.00    +0.000 A 
ATOM     11  C   UNL     1      10.133  11.391  20.623  0.00  0.00    +0.000 A 
ATOM     12  C   UNL     1       9.230  10.617  19.884  0.00  0.00    +0.000 A 
ENDBRANCH   6   7
ENDBRANCH   4   5
ENDBRANCH   1   4
BRANCH   1  13
ATOM     13  C   UNL     1       5.354   5.911  17.561  0.00  0.00    +0.000 C 
BRANCH  13  14
ATOM     14  C   UNL     1       4.246   5.664  18.559  0.00  0.00    +0.000 A 
ATOM     15  C   UNL     1       3.280   6.654  18.848  0.00  0.00    +0.000 A 
ATOM     16  C   UNL     1       2.215   6.381  19.738  0.00  0.00    +0.000 A 
ATOM     17  C   UNL     1       2.097   5.119  20.348  0.00  0.00    +0.000 A 
ATOM     18  C   UNL     1       3.064   4.164  20.047  0.00  0.00    +0.000 A 
ATOM     19  C   UNL     1       3.205   2.866  20.469  0.00  0.00    +0.000 A 
ATOM     20  C   UNL     1       4.348   2.405  19.828  0.00  0.00    +0.000 A 
ATOM     21  O   UNL     1       4.859   3.358  19.067  0.00  0.00    +0.000 OA
ATOM     22  C   UNL     1       4.100   4.421  19.190  0.00  0.00    +0.000 A 
ENDBRANCH  13  14
ENDBRANCH   1  13
TORSDOF 6
ENDMDL
MODEL 6
REMARK VINA RESULT:      -7.2      2.337      6.837
REMARK  Name = 
REMARK  7 active torsions:
REMARK  status: ('A' for Active; 'I' for Inactive)
REMARK    1  A    between atoms: C_1  and  C_2
REMARK    2  A    between atoms: C_2  and  N_3
REMARK    3  A    between atoms: N_3  and  C_4
REMARK    4  A    between atoms: N_3  and  C_13
REMARK    5  A    between atoms: C_4  and  C_5
REMARK    6  A    between atoms: C_6  and  C_7
REMARK    7  A    between atoms: C_13  and  C_14
REMARK                            x       y       z     vdW  Elec       q    Type
REMARK                         _______ _______ _______ _____ _____    ______ ____
ROOT
ATOM      1  N   UNL     1       5.406   6.302  18.384  0.00  0.00    +0.000 NA
ENDROOT
BRANCH   1   3
ATOM      2  C   UNL     1       7.693   5.652  19.311  0.00  0.00    +0.000 C 
ATOM      3  C   UNL     1       6.186   5.344  19.211  0.00  0.00    +0.000 C 
ENDBRANCH   1   3
BRANCH   1   4
ATOM      4  C   UNL     1       6.272   6.939  17.359  0.00  0.00    +0.000 C 
BRANCH   4   5
ATOM      5  C   UNL     1       6.118   6.294  16.009  0.00  0.00    +0.000 C 
ATOM      6  C   UNL     1       6.915   5.309  15.562  0.00  0.00    +0.000 C 
BRANCH   6   7
ATOM      7  C   UNL     1       6.746   4.709  14.210  0.00  0.00    +0.000 A 
ATOM      8  C   UNL     1       7.630   5.005  13.150  0.00  0.00    +0.000 A 
ATOM      9  C   UNL     1       7.451   4.427  11.893  0.00  0.00    +0.000 A 
ATOM     10  C   UNL     1       6.382   3.559  11.667  0.00  0.00    +0.000 A 
ATOM     11  C   UNL     1       5.500   3.256  12.707  0.00  0.00    +0.000 A 
ATOM     12  C   UNL     1       5.685   3.816  13.976  0.00  0.00    +0.000 A 
ENDBRANCH   6   7
ENDBRANCH   4   5
ENDBRANCH   1   4
BRANCH   1  13
ATOM     13  C   UNL     1       4.197   5.700  17.758  0.00  0.00    +0.000 C 
BRANCH  13  14
ATOM     14  C   UNL     1       3.174   5.209  18.757  0.00  0.00    +0.000 A 
ATOM     15  C   UNL     1       2.682   6.049  19.781  0.00  0.00    +0.000 A 
ATOM     16  C   UNL     1       1.679   5.590  20.667  0.00  0.00    +0.000 A 
ATOM     17  C   UNL     1       1.153   4.292  20.542  0.00  0.00    +0.000 A 
ATOM     18  C   UNL     1       1.657   3.486  19.526  0.00  0.00    +0.000 A 
ATOM     19  C   UNL     1       1.339   2.204  19.156  0.00  0.00    +0.000 A 
ATOM     20  C   UNL     1       2.161   1.932  18.069  0.00  0.00    +0.000 A 
ATOM     21  O   UNL     1       2.920   2.980  17.799  0.00  0.00    +0.000 OA
ATOM     22  C   UNL     1       2.631   3.921  18.667  0.00  0.00    +0.000 A 
ENDBRANCH  13  14
ENDBRANCH   1  13
TORSDOF 6
ENDMDL
MODEL 7
REMARK VINA RESULT:      -7.2      1.257      2.069
REMARK  Name = 
REMARK  7 active torsions:
REMARK  status: ('A' for Active; 'I' for Inactive)
REMARK    1  A    between atoms: C_1  and  C_2
REMARK    2  A    between atoms: C_2  and  N_3
REMARK    3  A    between atoms: N_3  and  C_4
REMARK    4  A    between atoms: N_3  and  C_13
REMARK    5  A    between atoms: C_4  and  C_5
REMARK    6  A    between atoms: C_6  and  C_7
REMARK    7  A    between atoms: C_13  and  C_14
REMARK                            x       y       z     vdW  Elec       q    Type
REMARK                         _______ _______ _______ _____ _____    ______ ____
ROOT
ATOM      1  N   UNL     1       3.356   3.400  18.520  0.00  0.00    +0.000 NA
ENDROOT
BRANCH   1   3
ATOM      2  C   UNL     1       1.033   2.365  18.732  0.00  0.00    +0.000 C 
ATOM      3  C   UNL     1       2.549   2.153  18.548  0.00  0.00    +0.000 C 
ENDBRANCH   1   3
BRANCH   1   4
ATOM      4  C   UNL     1       3.445   4.000  19.875  0.00  0.00    +0.000 C 
BRANCH   4   5
ATOM      5  C   UNL     1       3.060   5.453  19.878  0.00  0.00    +0.000 C 
ATOM      6  C   UNL     1       2.380   6.043  18.881  0.00  0.00    +0.000 C 
BRANCH   6   7
ATOM      7  C   UNL     1       2.035   7.491  18.908  0.00  0.00    +0.000 A 
ATOM      8  C   UNL     1       2.245   8.326  17.790  0.00  0.00    +0.000 A 
ATOM      9  C   UNL     1       1.911   9.679  17.841  0.00  0.00    +0.000 A 
ATOM     10  C   UNL     1       1.377  10.225  19.009  0.00  0.00    +0.000 A 
ATOM     11  C   UNL     1       1.163   9.411  20.123  0.00  0.00    +0.000 A 
ATOM     12  C   UNL     1       1.477   8.048  20.072  0.00  0.00    +0.000 A 
ENDBRANCH   6   7
ENDBRANCH   4   5
ENDBRANCH   1   4
BRANCH   1  13
ATOM     13  C   UNL     1       4.711   3.219  17.930  0.00  0.00    +0.000 C 
BRANCH  13  14
ATOM     14  C   UNL     1       5.340   4.503  17.440  0.00  0.00    +0.000 A 
ATOM     15  C   UNL     1       4.877   5.152  16.273  0.00  0.00    +0.000 A 
ATOM     16  C   UNL     1       5.438   6.385  15.865  0.00  0.00    +0.000 A 
ATOM     17  C   UNL     1       6.462   6.989  16.618  0.00  0.00    +0.000 A 
ATOM     18  C   UNL     1       6.899   6.327  17.761  0.00  0.00    +0.000 A 
ATOM     19  C   UNL     1       7.856   6.667  18.685  0.00  0.00    +0.000 A 
ATOM     20  C   UNL     1       7.844   5.629  19.608  0.00  0.00    +0.000 A 
ATOM     21  O   UNL     1       6.939   4.727  19.269  0.00  0.00    +0.000 OA
ATOM     22  C   UNL     1       6.365   5.131  18.160  0.00  0.00    +0.000 A 
ENDBRANCH  13  14
ENDBRANCH   1  13
TORSDOF 6
ENDMDL
MODEL 8
REMARK VINA RESULT:      -7.2      2.816      6.938
REMARK  Name = 
REMARK  7 active torsions:
REMARK  status: ('A' for Active; 'I' for Inactive)
REMARK    1  A    between atoms: C_1  and  C_2
REMARK    2  A    between atoms: C_2  and  N_3
REMARK    3  A    between atoms: N_3  and  C_4
REMARK    4  A    between atoms: N_3  and  C_13
REMARK    5  A    between atoms: C_4  and  C_5
REMARK    6  A    between atoms: C_6  and  C_7
REMARK    7  A    between atoms: C_13  and  C_14
REMARK                            x       y       z     vdW  Elec       q    Type
REMARK                         _______ _______ _______ _____ _____    ______ ____
ROOT
ATOM      1  N   UNL     1       5.418   5.863  18.542  0.00  0.00    +0.000 NA
ENDROOT
BRANCH   1   3
ATOM      2  C   UNL     1       7.873   5.185  18.379  0.00  0.00    +0.000 C 
ATOM      3  C   UNL     1       6.776   6.219  18.056  0.00  0.00    +0.000 C 
ENDBRANCH   1   3
BRANCH   1   4
ATOM      4  C   UNL     1       4.457   5.790  17.412  0.00  0.00    +0.000 C 
BRANCH   4   5
ATOM      5  C   UNL     1       5.152   5.641  16.087  0.00  0.00    +0.000 C 
ATOM      6  C   UNL     1       5.296   4.466  15.452  0.00  0.00    +0.000 C 
BRANCH   6   7
ATOM      7  C   UNL     1       6.009   4.353  14.151  0.00  0.00    +0.000 A 
ATOM      8  C   UNL     1       7.172   5.104  13.873  0.00  0.00    +0.000 A 
ATOM      9  C   UNL     1       7.823   4.978  12.646  0.00  0.00    +0.000 A 
ATOM     10  C   UNL     1       7.319   4.116  11.671  0.00  0.00    +0.000 A 
ATOM     11  C   UNL     1       6.170   3.365  11.932  0.00  0.00    +0.000 A 
ATOM     12  C   UNL     1       5.523   3.472  13.169  0.00  0.00    +0.000 A 
ENDBRANCH   6   7
ENDBRANCH   4   5
ENDBRANCH   1   4
BRANCH   1  13
ATOM     13  C   UNL     1       5.385   4.612  19.349  0.00  0.00    +0.000 C 
BRANCH  13  14
ATOM     14  C   UNL     1       4.148   3.772  19.122  0.00  0.00    +0.000 A 
ATOM     15  C   UNL     1       4.196   2.582  18.361  0.00  0.00    +0.000 A 
ATOM     16  C   UNL     1       3.042   1.778  18.212  0.00  0.00    +0.000 A 
ATOM     17  C   UNL     1       1.829   2.146  18.822  0.00  0.00    +0.000 A 
ATOM     18  C   UNL     1       1.811   3.324  19.563  0.00  0.00    +0.000 A 
ATOM     19  C   UNL     1       0.798   3.925  20.268  0.00  0.00    +0.000 A 
ATOM     20  C   UNL     1       1.372   5.069  20.810  0.00  0.00    +0.000 A 
ATOM     21  O   UNL     1       2.644   5.150  20.460  0.00  0.00    +0.000 OA
ATOM     22  C   UNL     1       2.922   4.111  19.708  0.00  0.00    +0.000 A 
ENDBRANCH  13  14
ENDBRANCH   1  13
TORSDOF 6
ENDMDL
MODEL 9
REMARK VINA RESULT:      -7.1      2.296      6.910
REMARK  Name = 
REMARK  7 active torsions:
REMARK  status: ('A' for Active; 'I' for Inactive)
REMARK    1  A    between atoms: C_1  and  C_2
REMARK    2  A    between atoms: C_2  and  N_3
REMARK    3  A    between atoms: N_3  and  C_4
REMARK    4  A    between atoms: N_3  and  C_13
REMARK    5  A    between atoms: C_4  and  C_5
REMARK    6  A    between atoms: C_6  and  C_7
REMARK    7  A    between atoms: C_13  and  C_14
REMARK                            x       y       z     vdW  Elec       q    Type
REMARK                         _______ _______ _______ _____ _____    ______ ____
ROOT
ATOM      1  N   UNL     1       5.232   6.338  18.244  0.00  0.00    +0.000 NA
ENDROOT
BRANCH   1   3
ATOM      2  C   UNL     1       7.336   5.557  19.458  0.00  0.00    +0.000 C 
ATOM      3  C   UNL     1       5.938   5.212  18.909  0.00  0.00    +0.000 C 
ENDBRANCH   1   3
BRANCH   1   4
ATOM      4  C   UNL     1       6.089   6.953  17.199  0.00  0.00    +0.000 C 
BRANCH   4   5
ATOM      5  C   UNL     1       5.962   6.248  15.876  0.00  0.00    +0.000 C 
ATOM      6  C   UNL     1       6.861   5.362  15.419  0.00  0.00    +0.000 C 
BRANCH   6   7
ATOM      7  C   UNL     1       6.713   4.699  14.094  0.00  0.00    +0.000 A 
ATOM      8  C   UNL     1       5.691   3.759  13.843  0.00  0.00    +0.000 A 
ATOM      9  C   UNL     1       5.573   3.154  12.591  0.00  0.00    +0.000 A 
ATOM     10  C   UNL     1       6.479   3.464  11.576  0.00  0.00    +0.000 A 
ATOM     11  C   UNL     1       7.495   4.393  11.809  0.00  0.00    +0.000 A 
ATOM     12  C   UNL     1       7.607   5.019  13.057  0.00  0.00    +0.000 A 
ENDBRANCH   6   7
ENDBRANCH   4   5
ENDBRANCH   1   4
BRANCH   1  13
ATOM     13  C   UNL     1       3.903   5.962  17.688  0.00  0.00    +0.000 C 
BRANCH  13  14
ATOM     14  C   UNL     1       2.974   5.333  18.702  0.00  0.00    +0.000 A 
ATOM     15  C   UNL     1       2.472   6.070  19.798  0.00  0.00    +0.000 A 
ATOM     16  C   UNL     1       1.555   5.482  20.700  0.00  0.00    +0.000 A 
ATOM     17  C   UNL     1       1.124   4.156  20.519  0.00  0.00    +0.000 A 
ATOM     18  C   UNL     1       1.636   3.453  19.432  0.00  0.00    +0.000 A 
ATOM     19  C   UNL     1       1.398   2.173  18.998  0.00  0.00    +0.000 A 
ATOM     20  C   UNL     1       2.181   2.032  17.859  0.00  0.00    +0.000 A 
ATOM     21  O   UNL     1       2.842   3.150  17.619  0.00  0.00    +0.000 OA
ATOM     22  C   UNL     1       2.527   4.013  18.557  0.00  0.00    +0.000 A 
ENDBRANCH  13  14
ENDBRANCH   1  13
TORSDOF 6
ENDMDL
