MODEL 1
REMARK VINA RESULT:      -7.6      0.000      0.000
REMARK  Name = 
REMARK  6 active torsions:
REMARK  status: ('A' for Active; 'I' for Inactive)
REMARK    1  A    between atoms: C_1  and  C_2
REMARK    2  A    between atoms: N_4  and  C_5
REMARK    3  A    between atoms: C_6  and  N_7
REMARK    4  A    between atoms: C_13  and  C_14
REMARK    5  A    between atoms: C_14  and  N_15
REMARK    6  A    between atoms: N_15  and  C_16
REMARK                            x       y       z     vdW  Elec       q    Type
REMARK                         _______ _______ _______ _____ _____    ______ ____
ROOT
ATOM      1  C   UNL     1       5.868   7.171  17.001  0.00  0.00    +0.000 C 
ATOM      2  C   UNL     1       5.038   6.269  17.837  0.00  0.00    +0.000 A 
ATOM      3  N   UNL     1       5.565   5.133  18.282  0.00  0.00    +0.000 NA
ATOM      4  N   UNL     1       4.557   4.530  18.934  0.00  0.00    +0.000 N 
ATOM      5  C   UNL     1       4.806   3.194  19.423  0.00  0.00    +0.000 C 
ATOM      6  C   UNL     1       3.368   5.249  18.928  0.00  0.00    +0.000 A 
ATOM      7  C   UNL     1       3.673   6.430  18.244  0.00  0.00    +0.000 A 
ENDROOT
BRANCH   6   8
ATOM      8  N   UNL     1       2.204   4.750  19.456  0.00  0.00    +0.000 N 
ATOM      9  C   UNL     1       1.860   4.872  20.879  0.00  0.00    +0.000 C 
ATOM     10  C   UNL     1       1.820   3.481  21.528  0.00  0.00    +0.000 C 
ATOM     11  O   UNL     1       0.844   2.653  20.878  0.00  0.00    +0.000 OA
ATOM     12  C   UNL     1       1.198   2.474  19.498  0.00  0.00    +0.000 C 
ATOM     13  C   UNL     1       1.326   3.808  18.740  0.00  0.00    +0.000 C 
ENDBRANCH   6   8
BRANCH   7  14
ATOM     14  C   UNL     1       2.836   7.637  17.943  0.00  0.00    +0.000 C 
BRANCH  14  15
ATOM     15  N   UNL     1       2.154   8.039  19.166  0.00  0.00    +0.000 NA
ATOM     16  H   UNL     1       2.837   8.266  19.885  0.00  0.00    +0.000 HD
BRANCH  15  17
ATOM     17  C   UNL     1       1.205   9.152  19.013  0.00  0.00    +0.000 C 
ATOM     18  C   UNL     1       1.849  10.402  18.400  0.00  0.00    +0.000 C 
ATOM     19  C   UNL     1       0.895  11.573  18.567  0.00  0.00    +0.000 C 
ATOM     20  O   UNL     1       0.732  11.907  19.946  0.00  0.00    +0.000 OA
ATOM     21  C   UNL     1       0.411  10.838  20.741  0.00  0.00    +0.000 A 
ATOM     22  C   UNL     1      -0.082  11.152  22.008  0.00  0.00    +0.000 A 
ATOM     23  C   UNL     1      -0.458  10.136  22.887  0.00  0.00    +0.000 A 
ATOM     24  C   UNL     1      -0.353   8.806  22.492  0.00  0.00    +0.000 A 
ATOM     25  C   UNL     1       0.157   8.490  21.232  0.00  0.00    +0.000 A 
ATOM     26  C   UNL     1       0.584   9.502  20.353  0.00  0.00    +0.000 A 
ENDBRANCH  15  17
ENDBRANCH  14  15
ENDBRANCH   7  14
TORSDOF 4
ENDMDL
MODEL 2
REMARK VINA RESULT:      -7.5      2.234      3.844
REMARK  Name = 
REMARK  6 active torsions:
REMARK  status: ('A' for Active; 'I' for Inactive)
REMARK    1  A    between atoms: C_1  and  C_2
REMARK    2  A    between atoms: N_4  and  C_5
REMARK    3  A    between atoms: C_6  and  N_7
REMARK    4  A    between atoms: C_13  and  C_14
REMARK    5  A    between atoms: C_14  and  N_15
REMARK    6  A    between atoms: N_15  and  C_16
REMARK                            x       y       z     vdW  Elec       q    Type
REMARK                         _______ _______ _______ _____ _____    ______ ____
ROOT
ATOM      1  C   UNL     1       0.831   3.056  18.923  0.00  0.00    +0.000 C 
ATOM      2  C   UNL     1       2.080   3.710  18.461  0.00  0.00    +0.000 A 
ATOM      3  N   UNL     1       2.654   3.286  17.339  0.00  0.00    +0.000 NA
ATOM      4  N   UNL     1       3.774   4.021  17.239  0.00  0.00    +0.000 N 
ATOM      5  C   UNL     1       4.678   3.684  16.165  0.00  0.00    +0.000 C 
ATOM      6  C   UNL     1       3.953   4.925  18.278  0.00  0.00    +0.000 A 
ATOM      7  C   UNL     1       2.818   4.770  19.081  0.00  0.00    +0.000 A 
ENDROOT
BRANCH   6   8
ATOM      8  N   UNL     1       5.085   5.690  18.400  0.00  0.00    +0.000 N 
ATOM      9  C   UNL     1       5.400   6.796  17.486  0.00  0.00    +0.000 C 
ATOM     10  C   UNL     1       6.667   6.466  16.683  0.00  0.00    +0.000 C 
ATOM     11  O   UNL     1       7.779   6.255  17.566  0.00  0.00    +0.000 OA
ATOM     12  C   UNL     1       7.513   5.138  18.428  0.00  0.00    +0.000 C 
ATOM     13  C   UNL     1       6.227   5.320  19.256  0.00  0.00    +0.000 C 
ENDBRANCH   6   8
BRANCH   7  14
ATOM     14  C   UNL     1       2.387   5.488  20.324  0.00  0.00    +0.000 C 
BRANCH  14  15
ATOM     15  N   UNL     1       2.723   6.898  20.180  0.00  0.00    +0.000 NA
ATOM     16  H   UNL     1       3.633   6.993  19.735  0.00  0.00    +0.000 HD
BRANCH  15  17
ATOM     17  C   UNL     1       1.729   7.705  19.456  0.00  0.00    +0.000 C 
ATOM     18  C   UNL     1       2.322   8.431  18.242  0.00  0.00    +0.000 C 
ATOM     19  C   UNL     1       1.318   9.462  17.753  0.00  0.00    +0.000 C 
ATOM     20  O   UNL     1       1.135  10.496  18.722  0.00  0.00    +0.000 OA
ATOM     21  C   UNL     1       0.855  10.033  19.981  0.00  0.00    +0.000 A 
ATOM     22  C   UNL     1       0.343  10.976  20.873  0.00  0.00    +0.000 A 
ATOM     23  C   UNL     1       0.006  10.601  22.174  0.00  0.00    +0.000 A 
ATOM     24  C   UNL     1       0.170   9.279  22.577  0.00  0.00    +0.000 A 
ATOM     25  C   UNL     1       0.698   8.340  21.691  0.00  0.00    +0.000 A 
ATOM     26  C   UNL     1       1.087   8.713  20.392  0.00  0.00    +0.000 A 
ENDBRANCH  15  17
ENDBRANCH  14  15
ENDBRANCH   7  14
TORSDOF 4
ENDMDL
MODEL 3
REMARK VINA RESULT:      -7.5      2.180      3.768
REMARK  Name = 
REMARK  6 active torsions:
REMARK  status: ('A' for Active; 'I' for Inactive)
REMARK    1  A    between atoms: C_1  and  C_2
REMARK    2  A    between atoms: N_4  and  C_5
REMARK    3  A    between atoms: C_6  and  N_7
REMARK    4  A    between atoms: C_13  and  C_14
REMARK    5  A    between atoms: C_14  and  N_15
REMARK    6  A    between atoms: N_15  and  C_16
REMARK                            x       y       z     vdW  Elec       q    Type
REMARK                         _______ _______ _______ _____ _____    ______ ____
ROOT
ATOM      1  C   UNL     1       1.360   5.697  20.566  0.00  0.00    +0.000 C 
ATOM      2  C   UNL     1       2.525   5.608  19.651  0.00  0.00    +0.000 A 
ATOM      3  N   UNL     1       3.383   4.602  19.793  0.00  0.00    +0.000 NA
ATOM      4  N   UNL     1       4.336   4.844  18.878  0.00  0.00    +0.000 N 
ATOM      5  C   UNL     1       5.485   3.969  18.889  0.00  0.00    +0.000 C 
ATOM      6  C   UNL     1       4.125   5.997  18.131  0.00  0.00    +0.000 A 
ATOM      7  C   UNL     1       2.905   6.499  18.595  0.00  0.00    +0.000 A 
ENDROOT
BRANCH   6   8
ATOM      8  N   UNL     1       5.039   6.460  17.220  0.00  0.00    +0.000 N 
ATOM      9  C   UNL     1       5.127   5.941  15.848  0.00  0.00    +0.000 C 
ATOM     10  C   UNL     1       6.471   5.227  15.644  0.00  0.00    +0.000 C 
ATOM     11  O   UNL     1       7.561   6.134  15.875  0.00  0.00    +0.000 OA
ATOM     12  C   UNL     1       7.524   6.605  17.231  0.00  0.00    +0.000 C 
ATOM     13  C   UNL     1       6.195   7.299  17.584  0.00  0.00    +0.000 C 
ENDBRANCH   6   8
BRANCH   7  14
ATOM     14  C   UNL     1       2.102   7.689  18.162  0.00  0.00    +0.000 C 
BRANCH  14  15
ATOM     15  N   UNL     1       1.965   8.589  19.300  0.00  0.00    +0.000 NA
ATOM     16  H   UNL     1       2.854   9.051  19.484  0.00  0.00    +0.000 HD
BRANCH  15  17
ATOM     17  C   UNL     1       0.900   9.595  19.173  0.00  0.00    +0.000 C 
ATOM     18  C   UNL     1       1.390  10.905  18.545  0.00  0.00    +0.000 C 
ATOM     19  C   UNL     1       0.321  11.968  18.739  0.00  0.00    +0.000 C 
ATOM     20  O   UNL     1       0.161  12.285  20.122  0.00  0.00    +0.000 OA
ATOM     21  C   UNL     1      -0.023  11.189  20.925  0.00  0.00    +0.000 A 
ATOM     22  C   UNL     1      -0.513  11.451  22.204  0.00  0.00    +0.000 A 
ATOM     23  C   UNL     1      -0.754  10.402  23.092  0.00  0.00    +0.000 A 
ATOM     24  C   UNL     1      -0.518   9.090  22.693  0.00  0.00    +0.000 A 
ATOM     25  C   UNL     1      -0.012   8.829  21.419  0.00  0.00    +0.000 A 
ATOM     26  C   UNL     1       0.281   9.879  20.530  0.00  0.00    +0.000 A 
ENDBRANCH  15  17
ENDBRANCH  14  15
ENDBRANCH   7  14
TORSDOF 4
ENDMDL
MODEL 4
REMARK VINA RESULT:      -7.0      2.822      6.468
REMARK  Name = 
REMARK  6 active torsions:
REMARK  status: ('A' for Active; 'I' for Inactive)
REMARK    1  A    between atoms: C_1  and  C_2
REMARK    2  A    between atoms: N_4  and  C_5
REMARK    3  A    between atoms: C_6  and  N_7
REMARK    4  A    between atoms: C_13  and  C_14
REMARK    5  A    between atoms: C_14  and  N_15
REMARK    6  A    between atoms: N_15  and  C_16
REMARK                            x       y       z     vdW  Elec       q    Type
REMARK                         _______ _______ _______ _____ _____    ______ ____
ROOT
ATOM      1  C   UNL     1       4.163   7.622  16.925  0.00  0.00    +0.000 C 
ATOM      2  C   UNL     1       3.291   7.069  17.990  0.00  0.00    +0.000 A 
ATOM      3  N   UNL     1       2.665   7.906  18.813  0.00  0.00    +0.000 NA
ATOM      4  N   UNL     1       2.027   7.105  19.682  0.00  0.00    +0.000 N 
ATOM      5  C   UNL     1       1.356   7.749  20.787  0.00  0.00    +0.000 C 
ATOM      6  C   UNL     1       2.220   5.748  19.450  0.00  0.00    +0.000 A 
ATOM      7  C   UNL     1       3.020   5.697  18.304  0.00  0.00    +0.000 A 
ENDROOT
BRANCH   6   8
ATOM      8  N   UNL     1       1.729   4.782  20.290  0.00  0.00    +0.000 N 
ATOM      9  C   UNL     1       2.431   4.355  21.508  0.00  0.00    +0.000 C 
ATOM     10  C   UNL     1       2.872   2.891  21.371  0.00  0.00    +0.000 C 
ATOM     11  O   UNL     1       1.733   2.042  21.164  0.00  0.00    +0.000 OA
ATOM     12  C   UNL     1       1.068   2.407  19.945  0.00  0.00    +0.000 C 
ATOM     13  C   UNL     1       0.619   3.880  19.931  0.00  0.00    +0.000 C 
ENDBRANCH   6   8
BRANCH   7  14
ATOM     14  C   UNL     1       3.536   4.531  17.516  0.00  0.00    +0.000 C 
BRANCH  14  15
ATOM     15  N   UNL     1       4.436   3.764  18.367  0.00  0.00    +0.000 NA
ATOM     16  H   UNL     1       4.299   2.768  18.206  0.00  0.00    +0.000 HD
BRANCH  15  17
ATOM     17  C   UNL     1       5.861   4.098  18.229  0.00  0.00    +0.000 C 
ATOM     18  C   UNL     1       6.269   5.320  19.061  0.00  0.00    +0.000 C 
ATOM     19  C   UNL     1       7.653   5.769  18.620  0.00  0.00    +0.000 C 
ATOM     20  O   UNL     1       7.628   6.255  17.277  0.00  0.00    +0.000 OA
ATOM     21  C   UNL     1       7.036   5.398  16.387  0.00  0.00    +0.000 A 
ATOM     22  C   UNL     1       7.281   5.660  15.039  0.00  0.00    +0.000 A 
ATOM     23  C   UNL     1       6.740   4.834  14.054  0.00  0.00    +0.000 A 
ATOM     24  C   UNL     1       5.967   3.736  14.419  0.00  0.00    +0.000 A 
ATOM     25  C   UNL     1       5.708   3.483  15.767  0.00  0.00    +0.000 A 
ATOM     26  C   UNL     1       6.206   4.335  16.769  0.00  0.00    +0.000 A 
ENDBRANCH  15  17
ENDBRANCH  14  15
ENDBRANCH   7  14
TORSDOF 4
ENDMDL
MODEL 5
REMARK VINA RESULT:      -7.0      2.025      3.526
REMARK  Name = 
REMARK  6 active torsions:
REMARK  status: ('A' for Active; 'I' for Inactive)
REMARK    1  A    between atoms: C_1  and  C_2
REMARK    2  A    between atoms: N_4  and  C_5
REMARK    3  A    between atoms: C_6  and  N_7
REMARK    4  A    between atoms: C_13  and  C_14
REMARK    5  A    between atoms: C_14  and  N_15
REMARK    6  A    between atoms: N_15  and  C_16
REMARK                            x       y       z     vdW  Elec       q    Type
REMARK                         _______ _______ _______ _____ _____    ______ ____
ROOT
ATOM      1  C   UNL     1       0.998   4.892  20.457  0.00  0.00    +0.000 C 
ATOM      2  C   UNL     1       2.274   4.475  19.826  0.00  0.00    +0.000 A 
ATOM      3  N   UNL     1       2.788   3.287  20.131  0.00  0.00    +0.000 NA
ATOM      4  N   UNL     1       3.951   3.245  19.461  0.00  0.00    +0.000 N 
ATOM      5  C   UNL     1       4.802   2.104  19.707  0.00  0.00    +0.000 C 
ATOM      6  C   UNL     1       4.218   4.387  18.716  0.00  0.00    +0.000 A 
ATOM      7  C   UNL     1       3.098   5.203  18.906  0.00  0.00    +0.000 A 
ENDROOT
BRANCH   6   8
ATOM      8  N   UNL     1       5.401   4.568  18.046  0.00  0.00    +0.000 N 
ATOM      9  C   UNL     1       6.515   5.353  18.595  0.00  0.00    +0.000 C 
ATOM     10  C   UNL     1       6.752   6.600  17.731  0.00  0.00    +0.000 C 
ATOM     11  O   UNL     1       7.064   6.223  16.382  0.00  0.00    +0.000 OA
ATOM     12  C   UNL     1       5.960   5.505  15.808  0.00  0.00    +0.000 C 
ATOM     13  C   UNL     1       5.582   4.250  16.618  0.00  0.00    +0.000 C 
ENDBRANCH   6   8
BRANCH   7  14
ATOM     14  C   UNL     1       2.749   6.544  18.336  0.00  0.00    +0.000 C 
BRANCH  14  15
ATOM     15  N   UNL     1       2.348   7.419  19.430  0.00  0.00    +0.000 NA
ATOM     16  H   UNL     1       3.174   7.785  19.900  0.00  0.00    +0.000 HD
BRANCH  15  17
ATOM     17  C   UNL     1       1.461   8.527  19.048  0.00  0.00    +0.000 C 
ATOM     18  C   UNL     1       2.182   9.618  18.246  0.00  0.00    +0.000 C 
ATOM     19  C   UNL     1       1.283  10.840  18.168  0.00  0.00    +0.000 C 
ATOM     20  O   UNL     1       1.101  11.423  19.460  0.00  0.00    +0.000 OA
ATOM     21  C   UNL     1       0.706  10.529  20.421  0.00  0.00    +0.000 A 
ATOM     22  C   UNL     1       0.195  11.086  21.593  0.00  0.00    +0.000 A 
ATOM     23  C   UNL     1      -0.253  10.262  22.625  0.00  0.00    +0.000 A 
ATOM     24  C   UNL     1      -0.204   8.879  22.477  0.00  0.00    +0.000 A 
ATOM     25  C   UNL     1       0.322   8.321  21.311  0.00  0.00    +0.000 A 
ATOM     26  C   UNL     1       0.822   9.139  20.283  0.00  0.00    +0.000 A 
ENDBRANCH  15  17
ENDBRANCH  14  15
ENDBRANCH   7  14
TORSDOF 4
ENDMDL
MODEL 6
REMARK VINA RESULT:      -7.0      2.011      3.551
REMARK  Name = 
REMARK  6 active torsions:
REMARK  status: ('A' for Active; 'I' for Inactive)
REMARK    1  A    between atoms: C_1  and  C_2
REMARK    2  A    between atoms: N_4  and  C_5
REMARK    3  A    between atoms: C_6  and  N_7
REMARK    4  A    between atoms: C_13  and  C_14
REMARK    5  A    between atoms: C_14  and  N_15
REMARK    6  A    between atoms: N_15  and  C_16
REMARK                            x       y       z     vdW  Elec       q    Type
REMARK                         _______ _______ _______ _____ _____    ______ ____
ROOT
ATOM      1  C   UNL     1       0.845   4.822  20.469  0.00  0.00    +0.000 C 
ATOM      2  C   UNL     1       2.133   4.655  19.753  0.00  0.00    +0.000 A 
ATOM      3  N   UNL     1       2.887   3.593  20.018  0.00  0.00    +0.000 NA
ATOM      4  N   UNL     1       3.989   3.771  19.271  0.00  0.00    +0.000 N 
ATOM      5  C   UNL     1       5.060   2.819  19.456  0.00  0.00    +0.000 C 
ATOM      6  C   UNL     1       3.979   4.936  18.515  0.00  0.00    +0.000 A 
ATOM      7  C   UNL     1       2.737   5.520  18.782  0.00  0.00    +0.000 A 
ENDROOT
BRANCH   6   8
ATOM      8  N   UNL     1       5.058   5.337  17.768  0.00  0.00    +0.000 N 
ATOM      9  C   UNL     1       5.185   5.046  16.334  0.00  0.00    +0.000 C 
ATOM     10  C   UNL     1       6.374   4.105  16.095  0.00  0.00    +0.000 C 
ATOM     11  O   UNL     1       7.591   4.707  16.561  0.00  0.00    +0.000 OA
ATOM     12  C   UNL     1       7.507   4.944  17.975  0.00  0.00    +0.000 C 
ATOM     13  C   UNL     1       6.312   5.838  18.358  0.00  0.00    +0.000 C 
ENDBRANCH   6   8
BRANCH   7  14
ATOM     14  C   UNL     1       2.096   6.762  18.241  0.00  0.00    +0.000 C 
BRANCH  14  15
ATOM     15  N   UNL     1       2.214   7.814  19.243  0.00  0.00    +0.000 NA
ATOM     16  H   UNL     1       3.177   8.140  19.290  0.00  0.00    +0.000 HD
BRANCH  15  17
ATOM     17  C   UNL     1       1.310   8.958  19.055  0.00  0.00    +0.000 C 
ATOM     18  C   UNL     1       2.009  10.173  18.433  0.00  0.00    +0.000 C 
ATOM     19  C   UNL     1       1.095  11.380  18.563  0.00  0.00    +0.000 C 
ATOM     20  O   UNL     1       0.921  11.743  19.934  0.00  0.00    +0.000 OA
ATOM     21  C   UNL     1       0.547  10.700  20.741  0.00  0.00    +0.000 A 
ATOM     22  C   UNL     1       0.044  11.053  21.993  0.00  0.00    +0.000 A 
ATOM     23  C   UNL     1      -0.384  10.067  22.882  0.00  0.00    +0.000 A 
ATOM     24  C   UNL     1      -0.320   8.727  22.510  0.00  0.00    +0.000 A 
ATOM     25  C   UNL     1       0.199   8.372  21.265  0.00  0.00    +0.000 A 
ATOM     26  C   UNL     1       0.678   9.353  20.378  0.00  0.00    +0.000 A 
ENDBRANCH  15  17
ENDBRANCH  14  15
ENDBRANCH   7  14
TORSDOF 4
ENDMDL
MODEL 7
REMARK VINA RESULT:      -6.8      2.057      3.727
REMARK  Name = 
REMARK  6 active torsions:
REMARK  status: ('A' for Active; 'I' for Inactive)
REMARK    1  A    between atoms: C_1  and  C_2
REMARK    2  A    between atoms: N_4  and  C_5
REMARK    3  A    between atoms: C_6  and  N_7
REMARK    4  A    between atoms: C_13  and  C_14
REMARK    5  A    between atoms: C_14  and  N_15
REMARK    6  A    between atoms: N_15  and  C_16
REMARK                            x       y       z     vdW  Elec       q    Type
REMARK                         _______ _______ _______ _____ _____    ______ ____
ROOT
ATOM      1  C   UNL     1       1.064   2.856  21.246  0.00  0.00    +0.000 C 
ATOM      2  C   UNL     1       2.051   3.308  20.235  0.00  0.00    +0.000 A 
ATOM      3  N   UNL     1       2.545   2.422  19.375  0.00  0.00    +0.000 NA
ATOM      4  N   UNL     1       3.441   3.120  18.656  0.00  0.00    +0.000 N 
ATOM      5  C   UNL     1       4.240   2.373  17.712  0.00  0.00    +0.000 C 
ATOM      6  C   UNL     1       3.549   4.455  19.026  0.00  0.00    +0.000 A 
ATOM      7  C   UNL     1       2.604   4.616  20.044  0.00  0.00    +0.000 A 
ENDROOT
BRANCH   6   8
ATOM      8  N   UNL     1       4.480   5.298  18.474  0.00  0.00    +0.000 N 
ATOM      9  C   UNL     1       4.294   5.939  17.166  0.00  0.00    +0.000 C 
ATOM     10  C   UNL     1       5.343   5.417  16.174  0.00  0.00    +0.000 C 
ATOM     11  O   UNL     1       6.668   5.698  16.651  0.00  0.00    +0.000 OA
ATOM     12  C   UNL     1       6.887   5.029  17.902  0.00  0.00    +0.000 C 
ATOM     13  C   UNL     1       5.859   5.426  18.978  0.00  0.00    +0.000 C 
ENDBRANCH   6   8
BRANCH   7  14
ATOM     14  C   UNL     1       2.195   5.829  20.824  0.00  0.00    +0.000 C 
BRANCH  14  15
ATOM     15  N   UNL     1       2.727   7.008  20.153  0.00  0.00    +0.000 NA
ATOM     16  H   UNL     1       3.471   6.735  19.513  0.00  0.00    +0.000 HD
BRANCH  15  17
ATOM     17  C   UNL     1       1.732   7.821  19.439  0.00  0.00    +0.000 C 
ATOM     18  C   UNL     1       2.327   8.583  18.249  0.00  0.00    +0.000 C 
ATOM     19  C   UNL     1       1.317   9.615  17.776  0.00  0.00    +0.000 C 
ATOM     20  O   UNL     1       1.114  10.623  18.768  0.00  0.00    +0.000 OA
ATOM     21  C   UNL     1       0.828  10.126  20.013  0.00  0.00    +0.000 A 
ATOM     22  C   UNL     1       0.297  11.041  20.923  0.00  0.00    +0.000 A 
ATOM     23  C   UNL     1      -0.047  10.631  22.211  0.00  0.00    +0.000 A 
ATOM     24  C   UNL     1       0.127   9.302  22.583  0.00  0.00    +0.000 A 
ATOM     25  C   UNL     1       0.674   8.390  21.679  0.00  0.00    +0.000 A 
ATOM     26  C   UNL     1       1.070   8.799  20.393  0.00  0.00    +0.000 A 
ENDBRANCH  15  17
ENDBRANCH  14  15
ENDBRANCH   7  14
TORSDOF 4
ENDMDL
MODEL 8
REMARK VINA RESULT:      -6.8      1.189      2.058
REMARK  Name = 
REMARK  6 active torsions:
REMARK  status: ('A' for Active; 'I' for Inactive)
REMARK    1  A    between atoms: C_1  and  C_2
REMARK    2  A    between atoms: N_4  and  C_5
REMARK    3  A    between atoms: C_6  and  N_7
REMARK    4  A    between atoms: C_13  and  C_14
REMARK    5  A    between atoms: C_14  and  N_15
REMARK    6  A    between atoms: N_15  and  C_16
REMARK                            x       y       z     vdW  Elec       q    Type
REMARK                         _______ _______ _______ _____ _____    ______ ____
ROOT
ATOM      1  C   UNL     1       6.132   7.019  17.242  0.00  0.00    +0.000 C 
ATOM      2  C   UNL     1       5.178   6.116  17.932  0.00  0.00    +0.000 A 
ATOM      3  N   UNL     1       5.608   4.940  18.378  0.00  0.00    +0.000 NA
ATOM      4  N   UNL     1       4.510   4.351  18.879  0.00  0.00    +0.000 N 
ATOM      5  C   UNL     1       4.652   2.985  19.327  0.00  0.00    +0.000 C 
ATOM      6  C   UNL     1       3.356   5.118  18.772  0.00  0.00    +0.000 A 
ATOM      7  C   UNL     1       3.781   6.314  18.186  0.00  0.00    +0.000 A 
ENDROOT
BRANCH   6   8
ATOM      8  N   UNL     1       2.122   4.644  19.138  0.00  0.00    +0.000 N 
ATOM      9  C   UNL     1       1.663   4.615  20.533  0.00  0.00    +0.000 C 
ATOM     10  C   UNL     1       1.478   3.162  20.993  0.00  0.00    +0.000 C 
ATOM     11  O   UNL     1       0.513   2.493  20.166  0.00  0.00    +0.000 OA
ATOM     12  C   UNL     1       0.975   2.460  18.807  0.00  0.00    +0.000 C 
ATOM     13  C   UNL     1       1.253   3.864  18.239  0.00  0.00    +0.000 C 
ENDBRANCH   6   8
BRANCH   7  14
ATOM     14  C   UNL     1       3.030   7.567  17.851  0.00  0.00    +0.000 C 
BRANCH  14  15
ATOM     15  N   UNL     1       1.810   7.598  18.648  0.00  0.00    +0.000 NA
ATOM     16  H   UNL     1       1.636   6.679  19.050  0.00  0.00    +0.000 HD
BRANCH  15  17
ATOM     17  C   UNL     1       1.784   8.617  19.708  0.00  0.00    +0.000 C 
ATOM     18  C   UNL     1       1.678   8.012  21.113  0.00  0.00    +0.000 C 
ATOM     19  C   UNL     1       1.349   9.122  22.098  0.00  0.00    +0.000 C 
ATOM     20  O   UNL     1       0.047   9.656  21.850  0.00  0.00    +0.000 OA
ATOM     21  C   UNL     1      -0.165  10.018  20.545  0.00  0.00    +0.000 A 
ATOM     22  C   UNL     1      -1.269  10.840  20.316  0.00  0.00    +0.000 A 
ATOM     23  C   UNL     1      -1.559  11.282  19.025  0.00  0.00    +0.000 A 
ATOM     24  C   UNL     1      -0.736  10.913  17.966  0.00  0.00    +0.000 A 
ATOM     25  C   UNL     1       0.359  10.077  18.192  0.00  0.00    +0.000 A 
ATOM     26  C   UNL     1       0.636   9.585  19.480  0.00  0.00    +0.000 A 
ENDBRANCH  15  17
ENDBRANCH  14  15
ENDBRANCH   7  14
TORSDOF 4
ENDMDL
MODEL 9
REMARK VINA RESULT:      -6.8      2.315      4.246
REMARK  Name = 
REMARK  6 active torsions:
REMARK  status: ('A' for Active; 'I' for Inactive)
REMARK    1  A    between atoms: C_1  and  C_2
REMARK    2  A    between atoms: N_4  and  C_5
REMARK    3  A    between atoms: C_6  and  N_7
REMARK    4  A    between atoms: C_13  and  C_14
REMARK    5  A    between atoms: C_14  and  N_15
REMARK    6  A    between atoms: N_15  and  C_16
REMARK                            x       y       z     vdW  Elec       q    Type
REMARK                         _______ _______ _______ _____ _____    ______ ____
ROOT
ATOM      1  C   UNL     1       0.717   3.276  19.630  0.00  0.00    +0.000 C 
ATOM      2  C   UNL     1       1.970   3.768  19.007  0.00  0.00    +0.000 A 
ATOM      3  N   UNL     1       2.581   3.011  18.100  0.00  0.00    +0.000 NA
ATOM      4  N   UNL     1       3.694   3.695  17.790  0.00  0.00    +0.000 N 
ATOM      5  C   UNL     1       4.633   3.042  16.907  0.00  0.00    +0.000 C 
ATOM      6  C   UNL     1       3.832   4.895  18.477  0.00  0.00    +0.000 A 
ATOM      7  C   UNL     1       2.677   4.988  19.259  0.00  0.00    +0.000 A 
ENDROOT
BRANCH   6   8
ATOM      8  N   UNL     1       4.951   5.681  18.365  0.00  0.00    +0.000 N 
ATOM      9  C   UNL     1       5.122   6.674  17.296  0.00  0.00    +0.000 C 
ATOM     10  C   UNL     1       6.288   6.265  16.385  0.00  0.00    +0.000 C 
ATOM     11  O   UNL     1       7.506   6.172  17.140  0.00  0.00    +0.000 OA
ATOM     12  C   UNL     1       7.376   5.163  18.153  0.00  0.00    +0.000 C 
ATOM     13  C   UNL     1       6.198   5.428  19.109  0.00  0.00    +0.000 C 
ENDBRANCH   6   8
BRANCH   7  14
ATOM     14  C   UNL     1       2.201   6.066  20.186  0.00  0.00    +0.000 C 
BRANCH  14  15
ATOM     15  N   UNL     1       2.105   7.310  19.433  0.00  0.00    +0.000 NA
ATOM     16  H   UNL     1       1.408   7.216  18.697  0.00  0.00    +0.000 HD
BRANCH  15  17
ATOM     17  C   UNL     1       1.818   8.505  20.240  0.00  0.00    +0.000 C 
ATOM     18  C   UNL     1       1.396   8.168  21.675  0.00  0.00    +0.000 C 
ATOM     19  C   UNL     1       0.830   9.420  22.324  0.00  0.00    +0.000 C 
ATOM     20  O   UNL     1      -0.386   9.819  21.690  0.00  0.00    +0.000 OA
ATOM     21  C   UNL     1      -0.293   9.919  20.326  0.00  0.00    +0.000 A 
ATOM     22  C   UNL     1      -1.326  10.616  19.698  0.00  0.00    +0.000 A 
ATOM     23  C   UNL     1      -1.314  10.791  18.314  0.00  0.00    +0.000 A 
ATOM     24  C   UNL     1      -0.262  10.281  17.561  0.00  0.00    +0.000 A 
ATOM     25  C   UNL     1       0.763   9.568  18.186  0.00  0.00    +0.000 A 
ATOM     26  C   UNL     1       0.740   9.343  19.574  0.00  0.00    +0.000 A 
ENDBRANCH  15  17
ENDBRANCH  14  15
ENDBRANCH   7  14
TORSDOF 4
ENDMDL
