MODEL 1
REMARK VINA RESULT:      -7.7      0.000      0.000
REMARK  Name = 
REMARK  12 active torsions:
REMARK  status: ('A' for Active; 'I' for Inactive)
REMARK    1  A    between atoms: C_1  and  C_2
REMARK    2  A    between atoms: C_2  and  C_3
REMARK    3  A    between atoms: C_3  and  N_4
REMARK    4  A    between atoms: N_4  and  C_5
REMARK    5  A    between atoms: C_5  and  C_6
REMARK    6  A    between atoms: C_11  and  C_12
REMARK    7  A    between atoms: N_14  and  C_15
REMARK    8  A    between atoms: C_18  and  C_19
REMARK    9  A    between atoms: C_19  and  N_20
REMARK   10  A    between atoms: N_20  and  C_21
REMARK   11  A    between atoms: N_20  and  C_22
REMARK   12  A    between atoms: C_24  and  C_25
REMARK                            x       y       z     vdW  Elec       q    Type
REMARK                         _______ _______ _______ _____ _____    ______ ____
ROOT
ATOM      1  C   UNL     1       1.933   5.971  20.198  0.00  0.00    +0.000 C 
ATOM      2  O   UNL     1       0.863   5.528  20.560  0.00  0.00    +0.000 OA
ATOM      3  N   UNL     1       2.278   7.325  20.061  0.00  0.00    +0.000 N 
ATOM      4  H   UNL     1       3.140   7.529  19.573  0.00  0.00    +0.000 HD
ENDROOT
BRANCH   1   8
ATOM      5  N   UNL     1       5.808   4.950  17.509  0.00  0.00    +0.000 N 
ATOM      6  C   UNL     1       4.846   4.509  18.422  0.00  0.00    +0.000 A 
ATOM      7  C   UNL     1       3.753   5.299  18.659  0.00  0.00    +0.000 A 
ATOM      8  C   UNL     1       2.979   4.990  19.760  0.00  0.00    +0.000 A 
ATOM      9  N   UNL     1       3.144   3.873  20.503  0.00  0.00    +0.000 NA
ATOM     10  C   UNL     1       4.177   3.117  20.132  0.00  0.00    +0.000 A 
ATOM     11  N   UNL     1       5.066   3.402  19.157  0.00  0.00    +0.000 NA
BRANCH   5  12
ATOM     12  C   UNL     1       7.151   4.535  17.922  0.00  0.00    +0.000 C 
BRANCH  12  14
ATOM     13  C   UNL     1       7.902   7.049  18.236  0.00  0.00    +0.000 C 
ATOM     14  C   UNL     1       7.995   5.583  18.618  0.00  0.00    +0.000 C 
ENDBRANCH  12  14
ENDBRANCH   5  12
BRANCH   5  15
ATOM     15  C   UNL     1       5.402   5.041  16.099  0.00  0.00    +0.000 C 
BRANCH  15  16
ATOM     16  C   UNL     1       6.024   4.096  15.087  0.00  0.00    +0.000 C 
ATOM     17  C   UNL     1       5.770   3.838  13.604  0.00  0.00    +0.000 C 
ATOM     18  C   UNL     1       6.917   4.702  14.008  0.00  0.00    +0.000 C 
ENDBRANCH  15  16
ENDBRANCH   5  15
ENDBRANCH   1   8
BRANCH   3  19
ATOM     19  C   UNL     1       1.426   8.416  20.366  0.00  0.00    +0.000 A 
ATOM     20  C   UNL     1       1.062   8.694  21.684  0.00  0.00    +0.000 A 
ATOM     21  C   UNL     1       0.150   9.706  21.979  0.00  0.00    +0.000 A 
ATOM     22  C   UNL     1      -0.375  10.505  20.968  0.00  0.00    +0.000 A 
ATOM     23  C   UNL     1       0.027  10.267  19.644  0.00  0.00    +0.000 A 
ATOM     24  C   UNL     1       0.918   9.223  19.327  0.00  0.00    +0.000 A 
ATOM     25  C   UNL     1       1.251   8.976  17.881  0.00  0.00    +0.000 C 
BRANCH  22  26
ATOM     26  C   UNL     1      -1.350  11.619  21.299  0.00  0.00    +0.000 C 
BRANCH  26  27
ATOM     27  N   UNL     1      -1.349  12.020  22.716  0.00  0.00    +0.000 NA
ATOM     28  C   UNL     1      -0.751  13.342  22.921  0.00  0.00    +0.000 C 
ATOM     29  C   UNL     1      -2.719  12.028  23.239  0.00  0.00    +0.000 C 
ENDBRANCH  26  27
ENDBRANCH  22  26
ENDBRANCH   3  19
TORSDOF 8
ENDMDL
MODEL 2
REMARK VINA RESULT:      -7.2      0.871      1.228
REMARK  Name = 
REMARK  12 active torsions:
REMARK  status: ('A' for Active; 'I' for Inactive)
REMARK    1  A    between atoms: C_1  and  C_2
REMARK    2  A    between atoms: C_2  and  C_3
REMARK    3  A    between atoms: C_3  and  N_4
REMARK    4  A    between atoms: N_4  and  C_5
REMARK    5  A    between atoms: C_5  and  C_6
REMARK    6  A    between atoms: C_11  and  C_12
REMARK    7  A    between atoms: N_14  and  C_15
REMARK    8  A    between atoms: C_18  and  C_19
REMARK    9  A    between atoms: C_19  and  N_20
REMARK   10  A    between atoms: N_20  and  C_21
REMARK   11  A    between atoms: N_20  and  C_22
REMARK   12  A    between atoms: C_24  and  C_25
REMARK                            x       y       z     vdW  Elec       q    Type
REMARK                         _______ _______ _______ _____ _____    ______ ____
ROOT
ATOM      1  C   UNL     1       1.912   5.896  20.295  0.00  0.00    +0.000 C 
ATOM      2  O   UNL     1       0.837   5.488  20.681  0.00  0.00    +0.000 OA
ATOM      3  N   UNL     1       2.296   7.238  20.143  0.00  0.00    +0.000 N 
ATOM      4  H   UNL     1       3.154   7.413  19.636  0.00  0.00    +0.000 HD
ENDROOT
BRANCH   1   8
ATOM      5  N   UNL     1       5.481   4.632  17.302  0.00  0.00    +0.000 N 
ATOM      6  C   UNL     1       4.632   4.278  18.355  0.00  0.00    +0.000 A 
ATOM      7  C   UNL     1       3.561   5.083  18.634  0.00  0.00    +0.000 A 
ATOM      8  C   UNL     1       2.918   4.881  19.840  0.00  0.00    +0.000 A 
ATOM      9  N   UNL     1       3.181   3.843  20.665  0.00  0.00    +0.000 NA
ATOM     10  C   UNL     1       4.178   3.058  20.256  0.00  0.00    +0.000 A 
ATOM     11  N   UNL     1       4.949   3.250  19.165  0.00  0.00    +0.000 NA
BRANCH   5  12
ATOM     12  C   UNL     1       6.868   4.265  17.601  0.00  0.00    +0.000 C 
BRANCH  12  14
ATOM     13  C   UNL     1       7.534   6.798  17.946  0.00  0.00    +0.000 C 
ATOM     14  C   UNL     1       7.715   5.327  18.269  0.00  0.00    +0.000 C 
ENDBRANCH  12  14
ENDBRANCH   5  12
BRANCH   5  15
ATOM     15  C   UNL     1       4.920   4.582  15.944  0.00  0.00    +0.000 C 
BRANCH  15  16
ATOM     16  C   UNL     1       5.760   5.070  14.778  0.00  0.00    +0.000 C 
ATOM     17  C   UNL     1       7.191   4.784  14.328  0.00  0.00    +0.000 C 
ATOM     18  C   UNL     1       6.060   4.079  13.658  0.00  0.00    +0.000 C 
ENDBRANCH  15  16
ENDBRANCH   5  15
ENDBRANCH   1   8
BRANCH   3  19
ATOM     19  C   UNL     1       1.486   8.356  20.460  0.00  0.00    +0.000 A 
ATOM     20  C   UNL     1       1.022   8.560  21.761  0.00  0.00    +0.000 A 
ATOM     21  C   UNL     1       0.148   9.604  22.057  0.00  0.00    +0.000 A 
ATOM     22  C   UNL     1      -0.238  10.507  21.071  0.00  0.00    +0.000 A 
ATOM     23  C   UNL     1       0.265  10.342  19.771  0.00  0.00    +0.000 A 
ATOM     24  C   UNL     1       1.119   9.268  19.449  0.00  0.00    +0.000 A 
ATOM     25  C   UNL     1       1.564   9.106  18.022  0.00  0.00    +0.000 C 
BRANCH  22  26
ATOM     26  C   UNL     1      -1.173  11.654  21.406  0.00  0.00    +0.000 C 
BRANCH  26  27
ATOM     27  N   UNL     1      -1.505  12.516  20.258  0.00  0.00    +0.000 NA
ATOM     28  C   UNL     1      -2.908  12.389  19.854  0.00  0.00    +0.000 C 
ATOM     29  C   UNL     1      -1.226  13.918  20.583  0.00  0.00    +0.000 C 
ENDBRANCH  26  27
ENDBRANCH  22  26
ENDBRANCH   3  19
TORSDOF 8
ENDMDL
MODEL 3
REMARK VINA RESULT:      -7.0      2.540      3.143
REMARK  Name = 
REMARK  12 active torsions:
REMARK  status: ('A' for Active; 'I' for Inactive)
REMARK    1  A    between atoms: C_1  and  C_2
REMARK    2  A    between atoms: C_2  and  C_3
REMARK    3  A    between atoms: C_3  and  N_4
REMARK    4  A    between atoms: N_4  and  C_5
REMARK    5  A    between atoms: C_5  and  C_6
REMARK    6  A    between atoms: C_11  and  C_12
REMARK    7  A    between atoms: N_14  and  C_15
REMARK    8  A    between atoms: C_18  and  C_19
REMARK    9  A    between atoms: C_19  and  N_20
REMARK   10  A    between atoms: N_20  and  C_21
REMARK   11  A    between atoms: N_20  and  C_22
REMARK   12  A    between atoms: C_24  and  C_25
REMARK                            x       y       z     vdW  Elec       q    Type
REMARK                         _______ _______ _______ _____ _____    ______ ____
ROOT
ATOM      1  C   UNL     1       1.914   9.007  18.477  0.00  0.00    +0.000 C 
ATOM      2  O   UNL     1       2.230   9.525  17.427  0.00  0.00    +0.000 OA
ATOM      3  N   UNL     1       1.189   9.602  19.522  0.00  0.00    +0.000 N 
ATOM      4  H   UNL     1       1.168   9.105  20.403  0.00  0.00    +0.000 HD
ENDROOT
BRANCH   1   8
ATOM      5  N   UNL     1       5.054   5.466  17.533  0.00  0.00    +0.000 N 
ATOM      6  C   UNL     1       3.936   5.902  18.250  0.00  0.00    +0.000 A 
ATOM      7  C   UNL     1       3.319   7.061  17.863  0.00  0.00    +0.000 A 
ATOM      8  C   UNL     1       2.416   7.620  18.747  0.00  0.00    +0.000 A 
ATOM      9  N   UNL     1       1.995   7.007  19.876  0.00  0.00    +0.000 NA
ATOM     10  C   UNL     1       2.585   5.836  20.115  0.00  0.00    +0.000 A 
ATOM     11  N   UNL     1       3.570   5.274  19.383  0.00  0.00    +0.000 NA
BRANCH   5  12
ATOM     12  C   UNL     1       6.022   4.812  18.418  0.00  0.00    +0.000 C 
BRANCH  12  14
ATOM     13  C   UNL     1       7.617   6.868  17.961  0.00  0.00    +0.000 C 
ATOM     14  C   UNL     1       7.323   5.550  18.653  0.00  0.00    +0.000 C 
ENDBRANCH  12  14
ENDBRANCH   5  12
BRANCH   5  15
ATOM     15  C   UNL     1       4.834   5.041  16.143  0.00  0.00    +0.000 C 
BRANCH  15  16
ATOM     16  C   UNL     1       5.871   4.166  15.463  0.00  0.00    +0.000 C 
ATOM     17  C   UNL     1       6.219   3.901  14.000  0.00  0.00    +0.000 C 
ATOM     18  C   UNL     1       7.049   4.860  14.786  0.00  0.00    +0.000 C 
ENDBRANCH  15  16
ENDBRANCH   5  15
ENDBRANCH   1   8
BRANCH   3  19
ATOM     19  C   UNL     1       0.667  10.919  19.502  0.00  0.00    +0.000 A 
ATOM     20  C   UNL     1       1.328  11.962  20.153  0.00  0.00    +0.000 A 
ATOM     21  C   UNL     1       0.769  13.237  20.217  0.00  0.00    +0.000 A 
ATOM     22  C   UNL     1      -0.436  13.516  19.581  0.00  0.00    +0.000 A 
ATOM     23  C   UNL     1      -1.082  12.487  18.878  0.00  0.00    +0.000 A 
ATOM     24  C   UNL     1      -0.549  11.183  18.838  0.00  0.00    +0.000 A 
ATOM     25  C   UNL     1      -1.327  10.109  18.130  0.00  0.00    +0.000 C 
BRANCH  22  26
ATOM     26  C   UNL     1      -1.027  14.912  19.636  0.00  0.00    +0.000 C 
BRANCH  26  27
ATOM     27  N   UNL     1      -0.058  15.989  19.367  0.00  0.00    +0.000 NA
ATOM     28  C   UNL     1      -0.464  16.836  18.243  0.00  0.00    +0.000 C 
ATOM     29  C   UNL     1       0.110  16.824  20.560  0.00  0.00    +0.000 C 
ENDBRANCH  26  27
ENDBRANCH  22  26
ENDBRANCH   3  19
TORSDOF 8
ENDMDL
MODEL 4
REMARK VINA RESULT:      -7.0      1.999      2.501
REMARK  Name = 
REMARK  12 active torsions:
REMARK  status: ('A' for Active; 'I' for Inactive)
REMARK    1  A    between atoms: C_1  and  C_2
REMARK    2  A    between atoms: C_2  and  C_3
REMARK    3  A    between atoms: C_3  and  N_4
REMARK    4  A    between atoms: N_4  and  C_5
REMARK    5  A    between atoms: C_5  and  C_6
REMARK    6  A    between atoms: C_11  and  C_12
REMARK    7  A    between atoms: N_14  and  C_15
REMARK    8  A    between atoms: C_18  and  C_19
REMARK    9  A    between atoms: C_19  and  N_20
REMARK   10  A    between atoms: N_20  and  C_21
REMARK   11  A    between atoms: N_20  and  C_22
REMARK   12  A    between atoms: C_24  and  C_25
REMARK                            x       y       z     vdW  Elec       q    Type
REMARK                         _______ _______ _______ _____ _____    ______ ____
ROOT
ATOM      1  C   UNL     1       1.939   8.971  18.464  0.00  0.00    +0.000 C 
ATOM      2  O   UNL     1       2.238   9.721  17.558  0.00  0.00    +0.000 OA
ATOM      3  N   UNL     1       1.067   9.248  19.529  0.00  0.00    +0.000 N 
ATOM      4  H   UNL     1       1.067   8.592  20.299  0.00  0.00    +0.000 HD
ENDROOT
BRANCH   1   8
ATOM      5  N   UNL     1       5.520   6.079  17.013  0.00  0.00    +0.000 N 
ATOM      6  C   UNL     1       4.364   6.245  17.781  0.00  0.00    +0.000 A 
ATOM      7  C   UNL     1       3.588   7.352  17.570  0.00  0.00    +0.000 A 
ATOM      8  C   UNL     1       2.630   7.642  18.522  0.00  0.00    +0.000 A 
ATOM      9  N   UNL     1       2.313   6.812  19.542  0.00  0.00    +0.000 NA
ATOM     10  C   UNL     1       3.061   5.711  19.604  0.00  0.00    +0.000 A 
ATOM     11  N   UNL     1       4.102   5.407  18.802  0.00  0.00    +0.000 NA
BRANCH   5  12
ATOM     12  C   UNL     1       6.581   5.438  17.795  0.00  0.00    +0.000 C 
BRANCH  12  14
ATOM     13  C   UNL     1       7.925   7.712  17.853  0.00  0.00    +0.000 C 
ATOM     14  C   UNL     1       7.582   6.363  18.456  0.00  0.00    +0.000 C 
ENDBRANCH  12  14
ENDBRANCH   5  12
BRANCH   5  15
ATOM     15  C   UNL     1       5.341   5.845  15.573  0.00  0.00    +0.000 C 
BRANCH  15  16
ATOM     16  C   UNL     1       5.916   4.585  14.951  0.00  0.00    +0.000 C 
ATOM     17  C   UNL     1       5.788   3.949  13.569  0.00  0.00    +0.000 C 
ATOM     18  C   UNL     1       7.003   4.751  13.894  0.00  0.00    +0.000 C 
ENDBRANCH  15  16
ENDBRANCH   5  15
ENDBRANCH   1   8
BRANCH   3  19
ATOM     19  C   UNL     1       0.352  10.458  19.700  0.00  0.00    +0.000 A 
ATOM     20  C   UNL     1       0.711  11.369  20.695  0.00  0.00    +0.000 A 
ATOM     21  C   UNL     1      -0.047  12.515  20.929  0.00  0.00    +0.000 A 
ATOM     22  C   UNL     1      -1.151  12.808  20.135  0.00  0.00    +0.000 A 
ATOM     23  C   UNL     1      -1.490  11.926  19.097  0.00  0.00    +0.000 A 
ATOM     24  C   UNL     1      -0.755  10.744  18.874  0.00  0.00    +0.000 A 
ATOM     25  C   UNL     1      -1.214   9.805  17.793  0.00  0.00    +0.000 C 
BRANCH  22  26
ATOM     26  C   UNL     1      -1.959  14.068  20.381  0.00  0.00    +0.000 C 
BRANCH  26  27
ATOM     27  N   UNL     1      -2.998  13.927  21.416  0.00  0.00    +0.000 NA
ATOM     28  C   UNL     1      -3.008  15.053  22.354  0.00  0.00    +0.000 C 
ATOM     29  C   UNL     1      -4.319  13.812  20.792  0.00  0.00    +0.000 C 
ENDBRANCH  26  27
ENDBRANCH  22  26
ENDBRANCH   3  19
TORSDOF 8
ENDMDL
MODEL 5
REMARK VINA RESULT:      -6.9      1.543      2.213
REMARK  Name = 
REMARK  12 active torsions:
REMARK  status: ('A' for Active; 'I' for Inactive)
REMARK    1  A    between atoms: C_1  and  C_2
REMARK    2  A    between atoms: C_2  and  C_3
REMARK    3  A    between atoms: C_3  and  N_4
REMARK    4  A    between atoms: N_4  and  C_5
REMARK    5  A    between atoms: C_5  and  C_6
REMARK    6  A    between atoms: C_11  and  C_12
REMARK    7  A    between atoms: N_14  and  C_15
REMARK    8  A    between atoms: C_18  and  C_19
REMARK    9  A    between atoms: C_19  and  N_20
REMARK   10  A    between atoms: N_20  and  C_21
REMARK   11  A    between atoms: N_20  and  C_22
REMARK   12  A    between atoms: C_24  and  C_25
REMARK                            x       y       z     vdW  Elec       q    Type
REMARK                         _______ _______ _______ _____ _____    ______ ____
ROOT
ATOM      1  C   UNL     1       2.000   8.132  18.861  0.00  0.00    +0.000 C 
ATOM      2  O   UNL     1       2.159   8.917  17.949  0.00  0.00    +0.000 OA
ATOM      3  N   UNL     1       1.209   8.323  20.004  0.00  0.00    +0.000 N 
ATOM      4  H   UNL     1       1.328   7.658  20.757  0.00  0.00    +0.000 HD
ENDROOT
BRANCH   1   8
ATOM      5  N   UNL     1       5.644   5.550  17.029  0.00  0.00    +0.000 N 
ATOM      6  C   UNL     1       4.554   5.614  17.903  0.00  0.00    +0.000 A 
ATOM      7  C   UNL     1       3.679   6.660  17.787  0.00  0.00    +0.000 A 
ATOM      8  C   UNL     1       2.794   6.860  18.829  0.00  0.00    +0.000 A 
ATOM      9  N   UNL     1       2.638   5.996  19.857  0.00  0.00    +0.000 NA
ATOM     10  C   UNL     1       3.472   4.956  19.828  0.00  0.00    +0.000 A 
ATOM     11  N   UNL     1       4.455   4.745  18.927  0.00  0.00    +0.000 NA
BRANCH   5  12
ATOM     12  C   UNL     1       6.819   4.984  17.698  0.00  0.00    +0.000 C 
BRANCH  12  14
ATOM     13  C   UNL     1       7.822   7.406  18.028  0.00  0.00    +0.000 C 
ATOM     14  C   UNL     1       7.692   5.958  18.461  0.00  0.00    +0.000 C 
ENDBRANCH  12  14
ENDBRANCH   5  12
BRANCH   5  15
ATOM     15  C   UNL     1       5.349   5.320  15.608  0.00  0.00    +0.000 C 
BRANCH  15  16
ATOM     16  C   UNL     1       6.160   4.291  14.841  0.00  0.00    +0.000 C 
ATOM     17  C   UNL     1       6.154   3.827  13.387  0.00  0.00    +0.000 C 
ATOM     18  C   UNL     1       7.187   4.803  13.837  0.00  0.00    +0.000 C 
ENDBRANCH  15  16
ENDBRANCH   5  15
ENDBRANCH   1   8
BRANCH   3  19
ATOM     19  C   UNL     1       0.420   9.470  20.265  0.00  0.00    +0.000 A 
ATOM     20  C   UNL     1      -0.244  10.134  19.231  0.00  0.00    +0.000 A 
ATOM     21  C   UNL     1      -0.943  11.316  19.468  0.00  0.00    +0.000 A 
ATOM     22  C   UNL     1      -1.044  11.834  20.756  0.00  0.00    +0.000 A 
ATOM     23  C   UNL     1      -0.425  11.145  21.810  0.00  0.00    +0.000 A 
ATOM     24  C   UNL     1       0.317   9.969  21.580  0.00  0.00    +0.000 A 
ATOM     25  C   UNL     1       1.017   9.320  22.742  0.00  0.00    +0.000 C 
BRANCH  22  26
ATOM     26  C   UNL     1      -1.825  13.110  21.010  0.00  0.00    +0.000 C 
BRANCH  26  27
ATOM     27  N   UNL     1      -3.210  12.891  21.457  0.00  0.00    +0.000 NA
ATOM     28  C   UNL     1      -3.385  13.163  22.887  0.00  0.00    +0.000 C 
ATOM     29  C   UNL     1      -4.128  13.741  20.693  0.00  0.00    +0.000 C 
ENDBRANCH  26  27
ENDBRANCH  22  26
ENDBRANCH   3  19
TORSDOF 8
ENDMDL
MODEL 6
REMARK VINA RESULT:      -6.8      1.900      2.649
REMARK  Name = 
REMARK  12 active torsions:
REMARK  status: ('A' for Active; 'I' for Inactive)
REMARK    1  A    between atoms: C_1  and  C_2
REMARK    2  A    between atoms: C_2  and  C_3
REMARK    3  A    between atoms: C_3  and  N_4
REMARK    4  A    between atoms: N_4  and  C_5
REMARK    5  A    between atoms: C_5  and  C_6
REMARK    6  A    between atoms: C_11  and  C_12
REMARK    7  A    between atoms: N_14  and  C_15
REMARK    8  A    between atoms: C_18  and  C_19
REMARK    9  A    between atoms: C_19  and  N_20
REMARK   10  A    between atoms: N_20  and  C_21
REMARK   11  A    between atoms: N_20  and  C_22
REMARK   12  A    between atoms: C_24  and  C_25
REMARK                            x       y       z     vdW  Elec       q    Type
REMARK                         _______ _______ _______ _____ _____    ______ ____
ROOT
ATOM      1  C   UNL     1       1.914   8.605  18.407  0.00  0.00    +0.000 C 
ATOM      2  O   UNL     1       2.070   9.353  17.464  0.00  0.00    +0.000 OA
ATOM      3  N   UNL     1       1.059   8.804  19.503  0.00  0.00    +0.000 N 
ATOM      4  H   UNL     1       1.180   8.185  20.294  0.00  0.00    +0.000 HD
ENDROOT
BRANCH   1   8
ATOM      5  N   UNL     1       5.840   6.205  16.952  0.00  0.00    +0.000 N 
ATOM      6  C   UNL     1       4.680   6.224  17.732  0.00  0.00    +0.000 A 
ATOM      7  C   UNL     1       3.758   7.212  17.516  0.00  0.00    +0.000 A 
ATOM      8  C   UNL     1       2.780   7.384  18.476  0.00  0.00    +0.000 A 
ATOM      9  N   UNL     1       2.591   6.536  19.512  0.00  0.00    +0.000 NA
ATOM     10  C   UNL     1       3.483   5.548  19.581  0.00  0.00    +0.000 A 
ATOM     11  N   UNL     1       4.547   5.375  18.769  0.00  0.00    +0.000 NA
BRANCH   5  12
ATOM     12  C   UNL     1       6.987   5.728  17.729  0.00  0.00    +0.000 C 
BRANCH  12  14
ATOM     13  C   UNL     1       7.931   8.195  17.705  0.00  0.00    +0.000 C 
ATOM     14  C   UNL     1       7.917   6.790  18.277  0.00  0.00    +0.000 C 
ENDBRANCH  12  14
ENDBRANCH   5  12
BRANCH   5  15
ATOM     15  C   UNL     1       5.678   5.924  15.518  0.00  0.00    +0.000 C 
BRANCH  15  16
ATOM     16  C   UNL     1       6.313   4.676  14.932  0.00  0.00    +0.000 C 
ATOM     17  C   UNL     1       5.948   3.769  13.759  0.00  0.00    +0.000 C 
ATOM     18  C   UNL     1       7.008   4.803  13.580  0.00  0.00    +0.000 C 
ENDBRANCH  15  16
ENDBRANCH   5  15
ENDBRANCH   1   8
BRANCH   3  19
ATOM     19  C   UNL     1       0.194   9.914  19.668  0.00  0.00    +0.000 A 
ATOM     20  C   UNL     1      -0.316  10.597  18.563  0.00  0.00    +0.000 A 
ATOM     21  C   UNL     1      -1.090  11.745  18.722  0.00  0.00    +0.000 A 
ATOM     22  C   UNL     1      -1.422  12.206  19.992  0.00  0.00    +0.000 A 
ATOM     23  C   UNL     1      -0.958  11.495  21.110  0.00  0.00    +0.000 A 
ATOM     24  C   UNL     1      -0.143  10.355  20.965  0.00  0.00    +0.000 A 
ATOM     25  C   UNL     1       0.380   9.682  22.204  0.00  0.00    +0.000 C 
BRANCH  22  26
ATOM     26  C   UNL     1      -2.283  13.444  20.157  0.00  0.00    +0.000 C 
BRANCH  26  27
ATOM     27  N   UNL     1      -1.629  14.540  20.892  0.00  0.00    +0.000 NA
ATOM     28  C   UNL     1      -0.615  15.225  20.086  0.00  0.00    +0.000 C 
ATOM     29  C   UNL     1      -2.628  15.517  21.335  0.00  0.00    +0.000 C 
ENDBRANCH  26  27
ENDBRANCH  22  26
ENDBRANCH   3  19
TORSDOF 8
ENDMDL
MODEL 7
REMARK VINA RESULT:      -6.7      2.098      4.286
REMARK  Name = 
REMARK  12 active torsions:
REMARK  status: ('A' for Active; 'I' for Inactive)
REMARK    1  A    between atoms: C_1  and  C_2
REMARK    2  A    between atoms: C_2  and  C_3
REMARK    3  A    between atoms: C_3  and  N_4
REMARK    4  A    between atoms: N_4  and  C_5
REMARK    5  A    between atoms: C_5  and  C_6
REMARK    6  A    between atoms: C_11  and  C_12
REMARK    7  A    between atoms: N_14  and  C_15
REMARK    8  A    between atoms: C_18  and  C_19
REMARK    9  A    between atoms: C_19  and  N_20
REMARK   10  A    between atoms: N_20  and  C_21
REMARK   11  A    between atoms: N_20  and  C_22
REMARK   12  A    between atoms: C_24  and  C_25
REMARK                            x       y       z     vdW  Elec       q    Type
REMARK                         _______ _______ _______ _____ _____    ______ ____
ROOT
ATOM      1  C   UNL     1       1.038   8.492  20.534  0.00  0.00    +0.000 C 
ATOM      2  O   UNL     1       0.552   7.821  21.420  0.00  0.00    +0.000 OA
ATOM      3  N   UNL     1       0.745   9.834  20.241  0.00  0.00    +0.000 N 
ATOM      4  H   UNL     1       1.090  10.194  19.361  0.00  0.00    +0.000 HD
ENDROOT
BRANCH   1   8
ATOM      5  N   UNL     1       2.956   4.429  18.773  0.00  0.00    +0.000 N 
ATOM      6  C   UNL     1       2.919   5.826  18.764  0.00  0.00    +0.000 A 
ATOM      7  C   UNL     1       2.251   6.472  19.769  0.00  0.00    +0.000 A 
ATOM      8  C   UNL     1       1.980   7.814  19.585  0.00  0.00    +0.000 A 
ATOM      9  N   UNL     1       2.476   8.545  18.561  0.00  0.00    +0.000 NA
ATOM     10  C   UNL     1       3.196   7.843  17.686  0.00  0.00    +0.000 A 
ATOM     11  N   UNL     1       3.404   6.510  17.711  0.00  0.00    +0.000 NA
BRANCH   5  12
ATOM     12  C   UNL     1       2.928   3.895  17.409  0.00  0.00    +0.000 C 
BRANCH  12  14
ATOM     13  C   UNL     1       5.286   3.892  16.217  0.00  0.00    +0.000 C 
ATOM     14  C   UNL     1       4.172   3.165  16.947  0.00  0.00    +0.000 C 
ENDBRANCH  12  14
ENDBRANCH   5  12
BRANCH   5  15
ATOM     15  C   UNL     1       3.702   3.785  19.864  0.00  0.00    +0.000 C 
BRANCH  15  16
ATOM     16  C   UNL     1       2.967   2.864  20.821  0.00  0.00    +0.000 C 
ATOM     17  C   UNL     1       1.908   3.101  21.895  0.00  0.00    +0.000 C 
ATOM     18  C   UNL     1       1.488   2.600  20.554  0.00  0.00    +0.000 C 
ENDBRANCH  15  16
ENDBRANCH   5  15
ENDBRANCH   1   8
BRANCH   3  19
ATOM     19  C   UNL     1      -0.154  10.648  20.973  0.00  0.00    +0.000 A 
ATOM     20  C   UNL     1      -0.276  10.518  22.358  0.00  0.00    +0.000 A 
ATOM     21  C   UNL     1      -1.226  11.249  23.068  0.00  0.00    +0.000 A 
ATOM     22  C   UNL     1      -2.039  12.173  22.419  0.00  0.00    +0.000 A 
ATOM     23  C   UNL     1      -1.887  12.351  21.035  0.00  0.00    +0.000 A 
ATOM     24  C   UNL     1      -0.958  11.590  20.298  0.00  0.00    +0.000 A 
ATOM     25  C   UNL     1      -0.896  11.777  18.807  0.00  0.00    +0.000 C 
BRANCH  22  26
ATOM     26  C   UNL     1      -3.056  12.982  23.202  0.00  0.00    +0.000 C 
BRANCH  26  27
ATOM     27  N   UNL     1      -4.356  12.311  23.375  0.00  0.00    +0.000 NA
ATOM     28  C   UNL     1      -4.815  12.334  24.767  0.00  0.00    +0.000 C 
ATOM     29  C   UNL     1      -5.368  12.948  22.527  0.00  0.00    +0.000 C 
ENDBRANCH  26  27
ENDBRANCH  22  26
ENDBRANCH   3  19
TORSDOF 8
ENDMDL
MODEL 8
REMARK VINA RESULT:      -6.7      3.113     10.685
REMARK  Name = 
REMARK  12 active torsions:
REMARK  status: ('A' for Active; 'I' for Inactive)
REMARK    1  A    between atoms: C_1  and  C_2
REMARK    2  A    between atoms: C_2  and  C_3
REMARK    3  A    between atoms: C_3  and  N_4
REMARK    4  A    between atoms: N_4  and  C_5
REMARK    5  A    between atoms: C_5  and  C_6
REMARK    6  A    between atoms: C_11  and  C_12
REMARK    7  A    between atoms: N_14  and  C_15
REMARK    8  A    between atoms: C_18  and  C_19
REMARK    9  A    between atoms: C_19  and  N_20
REMARK   10  A    between atoms: N_20  and  C_21
REMARK   11  A    between atoms: N_20  and  C_22
REMARK   12  A    between atoms: C_24  and  C_25
REMARK                            x       y       z     vdW  Elec       q    Type
REMARK                         _______ _______ _______ _____ _____    ______ ____
ROOT
ATOM      1  C   UNL     1      -0.981  10.869  19.219  0.00  0.00    +0.000 C 
ATOM      2  O   UNL     1      -1.666  10.100  18.578  0.00  0.00    +0.000 OA
ATOM      3  N   UNL     1       0.348  10.670  19.625  0.00  0.00    +0.000 N 
ATOM      4  H   UNL     1       0.718  11.318  20.309  0.00  0.00    +0.000 HD
ENDROOT
BRANCH   1   8
ATOM      5  N   UNL     1      -4.946  13.217  20.654  0.00  0.00    +0.000 N 
ATOM      6  C   UNL     1      -3.575  13.255  20.385  0.00  0.00    +0.000 A 
ATOM      7  C   UNL     1      -3.007  12.206  19.714  0.00  0.00    +0.000 A 
ATOM      8  C   UNL     1      -1.628  12.126  19.717  0.00  0.00    +0.000 A 
ATOM      9  N   UNL     1      -0.823  13.101  20.197  0.00  0.00    +0.000 NA
ATOM     10  C   UNL     1      -1.473  14.128  20.744  0.00  0.00    +0.000 A 
ATOM     11  N   UNL     1      -2.809  14.233  20.904  0.00  0.00    +0.000 NA
BRANCH   5  12
ATOM     12  C   UNL     1      -5.245  13.849  21.941  0.00  0.00    +0.000 C 
BRANCH  12  14
ATOM     13  C   UNL     1      -4.186  12.662  24.051  0.00  0.00    +0.000 C 
ATOM     14  C   UNL     1      -5.366  12.923  23.133  0.00  0.00    +0.000 C 
ENDBRANCH  12  14
ENDBRANCH   5  12
BRANCH   5  15
ATOM     15  C   UNL     1      -5.857  13.287  19.502  0.00  0.00    +0.000 C 
BRANCH  15  16
ATOM     16  C   UNL     1      -6.882  12.186  19.301  0.00  0.00    +0.000 C 
ATOM     17  C   UNL     1      -6.792  10.757  18.769  0.00  0.00    +0.000 C 
ATOM     18  C   UNL     1      -6.827  10.987  20.243  0.00  0.00    +0.000 C 
ENDBRANCH  15  16
ENDBRANCH   5  15
ENDBRANCH   1   8
BRANCH   3  19
ATOM     19  C   UNL     1       1.132   9.533  19.313  0.00  0.00    +0.000 A 
ATOM     20  C   UNL     1       1.689   9.372  18.043  0.00  0.00    +0.000 A 
ATOM     21  C   UNL     1       2.381   8.211  17.703  0.00  0.00    +0.000 A 
ATOM     22  C   UNL     1       2.583   7.205  18.643  0.00  0.00    +0.000 A 
ATOM     23  C   UNL     1       2.073   7.381  19.939  0.00  0.00    +0.000 A 
ATOM     24  C   UNL     1       1.339   8.533  20.286  0.00  0.00    +0.000 A 
ATOM     25  C   UNL     1       0.757   8.626  21.670  0.00  0.00    +0.000 C 
BRANCH  22  26
ATOM     26  C   UNL     1       3.356   5.954  18.272  0.00  0.00    +0.000 C 
BRANCH  26  27
ATOM     27  N   UNL     1       2.764   4.706  18.783  0.00  0.00    +0.000 NA
ATOM     28  C   UNL     1       1.840   4.093  17.825  0.00  0.00    +0.000 C 
ATOM     29  C   UNL     1       3.821   3.744  19.112  0.00  0.00    +0.000 C 
ENDBRANCH  26  27
ENDBRANCH  22  26
ENDBRANCH   3  19
TORSDOF 8
ENDMDL
MODEL 9
REMARK VINA RESULT:      -6.6      2.498      9.691
REMARK  Name = 
REMARK  12 active torsions:
REMARK  status: ('A' for Active; 'I' for Inactive)
REMARK    1  A    between atoms: C_1  and  C_2
REMARK    2  A    between atoms: C_2  and  C_3
REMARK    3  A    between atoms: C_3  and  N_4
REMARK    4  A    between atoms: N_4  and  C_5
REMARK    5  A    between atoms: C_5  and  C_6
REMARK    6  A    between atoms: C_11  and  C_12
REMARK    7  A    between atoms: N_14  and  C_15
REMARK    8  A    between atoms: C_18  and  C_19
REMARK    9  A    between atoms: C_19  and  N_20
REMARK   10  A    between atoms: N_20  and  C_21
REMARK   11  A    between atoms: N_20  and  C_22
REMARK   12  A    between atoms: C_24  and  C_25
REMARK                            x       y       z     vdW  Elec       q    Type
REMARK                         _______ _______ _______ _____ _____    ______ ____
ROOT
ATOM      1  C   UNL     1       2.134   8.633  18.245  0.00  0.00    +0.000 C 
ATOM      2  O   UNL     1       2.282   9.119  17.143  0.00  0.00    +0.000 OA
ATOM      3  N   UNL     1       2.638   7.401  18.693  0.00  0.00    +0.000 N 
ATOM      4  H   UNL     1       2.273   7.051  19.569  0.00  0.00    +0.000 HD
ENDROOT
BRANCH   1   8
ATOM      5  N   UNL     1      -1.159  12.054  19.104  0.00  0.00    +0.000 N 
ATOM      6  C   UNL     1      -0.330  11.049  19.611  0.00  0.00    +0.000 A 
ATOM      7  C   UNL     1       0.647  10.533  18.803  0.00  0.00    +0.000 A 
ATOM      8  C   UNL     1       1.250   9.360  19.213  0.00  0.00    +0.000 A 
ATOM      9  N   UNL     1       1.048   8.798  20.426  0.00  0.00    +0.000 NA
ATOM     10  C   UNL     1       0.149   9.430  21.179  0.00  0.00    +0.000 A 
ATOM     11  N   UNL     1      -0.586  10.502  20.814  0.00  0.00    +0.000 NA
BRANCH   5  12
ATOM     12  C   UNL     1      -2.518  11.932  19.640  0.00  0.00    +0.000 C 
BRANCH  12  14
ATOM     13  C   UNL     1      -3.539  10.887  17.438  0.00  0.00    +0.000 C 
ATOM     14  C   UNL     1      -3.635  11.831  18.622  0.00  0.00    +0.000 C 
ENDBRANCH  12  14
ENDBRANCH   5  12
BRANCH   5  15
ATOM     15  C   UNL     1      -0.535  13.351  18.807  0.00  0.00    +0.000 C 
BRANCH  15  16
ATOM     16  C   UNL     1       0.162  14.109  19.921  0.00  0.00    +0.000 C 
ATOM     17  C   UNL     1       1.574  14.053  20.501  0.00  0.00    +0.000 C 
ATOM     18  C   UNL     1       1.227  15.128  19.527  0.00  0.00    +0.000 C 
ENDBRANCH  15  16
ENDBRANCH   5  15
ENDBRANCH   1   8
BRANCH   3  19
ATOM     19  C   UNL     1       3.449   6.527  17.927  0.00  0.00    +0.000 A 
ATOM     20  C   UNL     1       4.587   6.997  17.270  0.00  0.00    +0.000 A 
ATOM     21  C   UNL     1       5.334   6.163  16.440  0.00  0.00    +0.000 A 
ATOM     22  C   UNL     1       4.995   4.822  16.293  0.00  0.00    +0.000 A 
ATOM     23  C   UNL     1       3.883   4.327  16.992  0.00  0.00    +0.000 A 
ATOM     24  C   UNL     1       3.096   5.168  17.804  0.00  0.00    +0.000 A 
ATOM     25  C   UNL     1       1.876   4.591  18.468  0.00  0.00    +0.000 C 
BRANCH  22  26
ATOM     26  C   UNL     1       5.825   3.914  15.405  0.00  0.00    +0.000 C 
BRANCH  26  27
ATOM     27  N   UNL     1       6.100   4.466  14.067  0.00  0.00    +0.000 NA
ATOM     28  C   UNL     1       7.472   4.965  13.941  0.00  0.00    +0.000 C 
ATOM     29  C   UNL     1       5.866   3.444  13.042  0.00  0.00    +0.000 C 
ENDBRANCH  26  27
ENDBRANCH  22  26
ENDBRANCH   3  19
TORSDOF 8
ENDMDL
