MODEL 1
REMARK VINA RESULT:      -8.3      0.000      0.000
REMARK  Name = 
REMARK  4 active torsions:
REMARK  status: ('A' for Active; 'I' for Inactive)
REMARK    1  A    between atoms: C_1  and  C_2
REMARK    2  A    between atoms: C_4  and  C_5
REMARK    3  A    between atoms: C_10  and  C_11
REMARK    4  A    between atoms: C_16  and  C_17
REMARK                            x       y       z     vdW  Elec       q    Type
REMARK                         _______ _______ _______ _____ _____    ______ ____
ROOT
ATOM      1  C   UNL     1       2.837   7.071  18.942  0.00  0.00    +0.000 C 
ATOM      2  C   UNL     1       3.071   5.724  18.332  0.00  0.00    +0.000 A 
ATOM      3  C   UNL     1       2.373   4.610  18.754  0.00  0.00    +0.000 A 
ATOM      4  C   UNL     1       2.624   3.426  18.086  0.00  0.00    +0.000 A 
ATOM      5  C   UNL     1       1.973   2.146  18.509  0.00  0.00    +0.000 C 
ATOM      6  N   UNL     1       3.490   3.349  17.058  0.00  0.00    +0.000 NA
ATOM      7  C   UNL     1       4.170   4.471  16.738  0.00  0.00    +0.000 A 
ATOM      8  N   UNL     1       5.179   4.380  15.714  0.00  0.00    +0.000 N 
ATOM      9  N   UNL     1       5.014   3.522  14.662  0.00  0.00    +0.000 NA
ATOM     10  C   UNL     1       5.929   3.900  13.755  0.00  0.00    +0.000 A 
ATOM     11  C   UNL     1       6.817   4.855  14.312  0.00  0.00    +0.000 A 
ATOM     12  C   UNL     1       6.367   5.114  15.601  0.00  0.00    +0.000 A 
ATOM     13  N   UNL     1       3.989   5.664  17.349  0.00  0.00    +0.000 NA
ENDROOT
BRANCH  12  14
ATOM     14  C   UNL     1       7.001   5.932  16.652  0.00  0.00    +0.000 A 
ATOM     15  C   UNL     1       7.485   5.329  17.825  0.00  0.00    +0.000 A 
ATOM     16  C   UNL     1       8.099   6.091  18.825  0.00  0.00    +0.000 A 
ATOM     17  C   UNL     1       8.244   7.460  18.655  0.00  0.00    +0.000 A 
ATOM     18  F   UNL     1       8.861   8.185  19.598  0.00  0.00    +0.000 F 
ATOM     19  C   UNL     1       7.751   8.089  17.524  0.00  0.00    +0.000 A 
ATOM     20  C   UNL     1       7.105   7.331  16.543  0.00  0.00    +0.000 A 
ENDBRANCH  12  14
BRANCH  10  21
ATOM     21  C   UNL     1       5.990   3.343  12.357  0.00  0.00    +0.000 C 
ATOM     22  F   UNL     1       6.033   1.987  12.304  0.00  0.00    +0.000 F 
ATOM     23  F   UNL     1       4.903   3.723  11.629  0.00  0.00    +0.000 F 
ATOM     24  F   UNL     1       7.078   3.799  11.679  0.00  0.00    +0.000 F 
ENDBRANCH  10  21
TORSDOF 2
ENDMDL
MODEL 2
REMARK VINA RESULT:      -8.1      0.091      1.241
REMARK  Name = 
REMARK  4 active torsions:
REMARK  status: ('A' for Active; 'I' for Inactive)
REMARK    1  A    between atoms: C_1  and  C_2
REMARK    2  A    between atoms: C_4  and  C_5
REMARK    3  A    between atoms: C_10  and  C_11
REMARK    4  A    between atoms: C_16  and  C_17
REMARK                            x       y       z     vdW  Elec       q    Type
REMARK                         _______ _______ _______ _____ _____    ______ ____
ROOT
ATOM      1  C   UNL     1       2.881   6.960  19.055  0.00  0.00    +0.000 C 
ATOM      2  C   UNL     1       3.108   5.626  18.414  0.00  0.00    +0.000 A 
ATOM      3  C   UNL     1       2.420   4.502  18.824  0.00  0.00    +0.000 A 
ATOM      4  C   UNL     1       2.663   3.333  18.129  0.00  0.00    +0.000 A 
ATOM      5  C   UNL     1       2.022   2.042  18.536  0.00  0.00    +0.000 C 
ATOM      6  N   UNL     1       3.513   3.279  17.086  0.00  0.00    +0.000 NA
ATOM      7  C   UNL     1       4.184   4.409  16.777  0.00  0.00    +0.000 A 
ATOM      8  N   UNL     1       5.177   4.341  15.736  0.00  0.00    +0.000 N 
ATOM      9  N   UNL     1       4.997   3.504  14.669  0.00  0.00    +0.000 NA
ATOM     10  C   UNL     1       5.896   3.903  13.756  0.00  0.00    +0.000 A 
ATOM     11  C   UNL     1       6.790   4.849  14.317  0.00  0.00    +0.000 A 
ATOM     12  C   UNL     1       6.361   5.080  15.619  0.00  0.00    +0.000 A 
ATOM     13  N   UNL     1       4.010   5.588  17.415  0.00  0.00    +0.000 NA
ENDROOT
BRANCH  12  14
ATOM     14  C   UNL     1       7.010   5.880  16.675  0.00  0.00    +0.000 A 
ATOM     15  C   UNL     1       7.175   7.266  16.514  0.00  0.00    +0.000 A 
ATOM     16  C   UNL     1       7.778   8.039  17.512  0.00  0.00    +0.000 A 
ATOM     17  C   UNL     1       8.212   7.434  18.683  0.00  0.00    +0.000 A 
ATOM     18  F   UNL     1       8.761   8.179  19.652  0.00  0.00    +0.000 F 
ATOM     19  C   UNL     1       8.092   6.065  18.858  0.00  0.00    +0.000 A 
ATOM     20  C   UNL     1       7.522   5.289  17.844  0.00  0.00    +0.000 A 
ENDBRANCH  12  14
BRANCH  10  21
ATOM     21  C   UNL     1       5.935   3.374  12.345  0.00  0.00    +0.000 C 
ATOM     22  F   UNL     1       4.820   3.650  11.621  0.00  0.00    +0.000 F 
ATOM     23  F   UNL     1       6.985   3.899  11.654  0.00  0.00    +0.000 F 
ATOM     24  F   UNL     1       6.100   2.024  12.317  0.00  0.00    +0.000 F 
ENDBRANCH  10  21
TORSDOF 2
ENDMDL
MODEL 3
REMARK VINA RESULT:      -7.7      2.290      4.722
REMARK  Name = 
REMARK  4 active torsions:
REMARK  status: ('A' for Active; 'I' for Inactive)
REMARK    1  A    between atoms: C_1  and  C_2
REMARK    2  A    between atoms: C_4  and  C_5
REMARK    3  A    between atoms: C_10  and  C_11
REMARK    4  A    between atoms: C_16  and  C_17
REMARK                            x       y       z     vdW  Elec       q    Type
REMARK                         _______ _______ _______ _____ _____    ______ ____
ROOT
ATOM      1  C   UNL     1       7.773   5.163  20.361  0.00  0.00    +0.000 C 
ATOM      2  C   UNL     1       7.651   5.886  19.056  0.00  0.00    +0.000 A 
ATOM      3  C   UNL     1       8.095   7.184  18.906  0.00  0.00    +0.000 A 
ATOM      4  C   UNL     1       7.988   7.740  17.646  0.00  0.00    +0.000 A 
ATOM      5  C   UNL     1       8.375   9.163  17.390  0.00  0.00    +0.000 C 
ATOM      6  N   UNL     1       7.493   7.054  16.597  0.00  0.00    +0.000 NA
ATOM      7  C   UNL     1       7.035   5.806  16.835  0.00  0.00    +0.000 A 
ATOM      8  N   UNL     1       6.403   5.101  15.750  0.00  0.00    +0.000 N 
ATOM      9  N   UNL     1       6.836   5.288  14.466  0.00  0.00    +0.000 NA
ATOM     10  C   UNL     1       6.290   4.283  13.763  0.00  0.00    +0.000 A 
ATOM     11  C   UNL     1       5.341   3.583  14.550  0.00  0.00    +0.000 A 
ATOM     12  C   UNL     1       5.370   4.157  15.815  0.00  0.00    +0.000 A 
ATOM     13  N   UNL     1       7.095   5.198  18.041  0.00  0.00    +0.000 NA
ENDROOT
BRANCH  12  14
ATOM     14  C   UNL     1       4.493   3.888  16.970  0.00  0.00    +0.000 A 
ATOM     15  C   UNL     1       4.486   2.619  17.574  0.00  0.00    +0.000 A 
ATOM     16  C   UNL     1       3.668   2.352  18.677  0.00  0.00    +0.000 A 
ATOM     17  C   UNL     1       2.859   3.355  19.192  0.00  0.00    +0.000 A 
ATOM     18  F   UNL     1       2.100   3.109  20.268  0.00  0.00    +0.000 F 
ATOM     19  C   UNL     1       2.821   4.607  18.600  0.00  0.00    +0.000 A 
ATOM     20  C   UNL     1       3.611   4.860  17.476  0.00  0.00    +0.000 A 
ENDBRANCH  12  14
BRANCH  10  21
ATOM     21  C   UNL     1       6.641   3.989  12.327  0.00  0.00    +0.000 C 
ATOM     22  F   UNL     1       7.197   2.765  12.136  0.00  0.00    +0.000 F 
ATOM     23  F   UNL     1       5.537   4.041  11.532  0.00  0.00    +0.000 F 
ATOM     24  F   UNL     1       7.515   4.902  11.824  0.00  0.00    +0.000 F 
ENDBRANCH  10  21
TORSDOF 2
ENDMDL
MODEL 4
REMARK VINA RESULT:      -7.7      2.295      4.881
REMARK  Name = 
REMARK  4 active torsions:
REMARK  status: ('A' for Active; 'I' for Inactive)
REMARK    1  A    between atoms: C_1  and  C_2
REMARK    2  A    between atoms: C_4  and  C_5
REMARK    3  A    between atoms: C_10  and  C_11
REMARK    4  A    between atoms: C_16  and  C_17
REMARK                            x       y       z     vdW  Elec       q    Type
REMARK                         _______ _______ _______ _____ _____    ______ ____
ROOT
ATOM      1  C   UNL     1       7.777   5.157  20.352  0.00  0.00    +0.000 C 
ATOM      2  C   UNL     1       7.654   5.885  19.048  0.00  0.00    +0.000 A 
ATOM      3  C   UNL     1       8.101   7.182  18.901  0.00  0.00    +0.000 A 
ATOM      4  C   UNL     1       7.992   7.741  17.643  0.00  0.00    +0.000 A 
ATOM      5  C   UNL     1       8.383   9.165  17.391  0.00  0.00    +0.000 C 
ATOM      6  N   UNL     1       7.493   7.061  16.593  0.00  0.00    +0.000 NA
ATOM      7  C   UNL     1       7.031   5.814  16.829  0.00  0.00    +0.000 A 
ATOM      8  N   UNL     1       6.394   5.113  15.744  0.00  0.00    +0.000 N 
ATOM      9  N   UNL     1       6.823   5.303  14.459  0.00  0.00    +0.000 NA
ATOM     10  C   UNL     1       6.272   4.302  13.755  0.00  0.00    +0.000 A 
ATOM     11  C   UNL     1       5.323   3.602  14.543  0.00  0.00    +0.000 A 
ATOM     12  C   UNL     1       5.358   4.173  15.809  0.00  0.00    +0.000 A 
ATOM     13  N   UNL     1       7.093   5.201  18.033  0.00  0.00    +0.000 NA
ENDROOT
BRANCH  12  14
ATOM     14  C   UNL     1       4.484   3.903  16.966  0.00  0.00    +0.000 A 
ATOM     15  C   UNL     1       3.638   4.908  17.465  0.00  0.00    +0.000 A 
ATOM     16  C   UNL     1       2.795   4.664  18.554  0.00  0.00    +0.000 A 
ATOM     17  C   UNL     1       2.783   3.409  19.146  0.00  0.00    +0.000 A 
ATOM     18  F   UNL     1       1.952   3.165  20.169  0.00  0.00    +0.000 F 
ATOM     19  C   UNL     1       3.626   2.406  18.697  0.00  0.00    +0.000 A 
ATOM     20  C   UNL     1       4.495   2.664  17.632  0.00  0.00    +0.000 A 
ENDBRANCH  12  14
BRANCH  10  21
ATOM     21  C   UNL     1       6.618   4.011  12.317  0.00  0.00    +0.000 C 
ATOM     22  F   UNL     1       7.523   4.871  11.783  0.00  0.00    +0.000 F 
ATOM     23  F   UNL     1       7.145   2.762  12.183  0.00  0.00    +0.000 F 
ATOM     24  F   UNL     1       5.519   4.047  11.517  0.00  0.00    +0.000 F 
ENDBRANCH  10  21
TORSDOF 2
ENDMDL
MODEL 5
REMARK VINA RESULT:      -7.3      4.158      6.546
REMARK  Name = 
REMARK  4 active torsions:
REMARK  status: ('A' for Active; 'I' for Inactive)
REMARK    1  A    between atoms: C_1  and  C_2
REMARK    2  A    between atoms: C_4  and  C_5
REMARK    3  A    between atoms: C_10  and  C_11
REMARK    4  A    between atoms: C_16  and  C_17
REMARK                            x       y       z     vdW  Elec       q    Type
REMARK                         _______ _______ _______ _____ _____    ______ ____
ROOT
ATOM      1  C   UNL     1       6.733   8.055  17.497  0.00  0.00    +0.000 C 
ATOM      2  C   UNL     1       6.029   6.752  17.276  0.00  0.00    +0.000 A 
ATOM      3  C   UNL     1       6.382   5.909  16.241  0.00  0.00    +0.000 A 
ATOM      4  C   UNL     1       5.708   4.705  16.158  0.00  0.00    +0.000 A 
ATOM      5  C   UNL     1       5.964   3.749  15.035  0.00  0.00    +0.000 C 
ATOM      6  N   UNL     1       4.763   4.347  17.049  0.00  0.00    +0.000 NA
ATOM      7  C   UNL     1       4.441   5.247  18.003  0.00  0.00    +0.000 A 
ATOM      8  N   UNL     1       3.357   4.925  18.895  0.00  0.00    +0.000 N 
ATOM      9  N   UNL     1       3.140   3.628  19.272  0.00  0.00    +0.000 NA
ATOM     10  C   UNL     1       2.305   3.703  20.319  0.00  0.00    +0.000 A 
ATOM     11  C   UNL     1       1.820   5.026  20.476  0.00  0.00    +0.000 A 
ATOM     12  C   UNL     1       2.454   5.800  19.512  0.00  0.00    +0.000 A 
ATOM     13  N   UNL     1       5.046   6.448  18.143  0.00  0.00    +0.000 NA
ENDROOT
BRANCH  12  14
ATOM     14  C   UNL     1       2.215   7.212  19.161  0.00  0.00    +0.000 A 
ATOM     15  C   UNL     1       1.740   8.113  20.130  0.00  0.00    +0.000 A 
ATOM     16  C   UNL     1       1.521   9.458  19.815  0.00  0.00    +0.000 A 
ATOM     17  C   UNL     1       1.784   9.916  18.532  0.00  0.00    +0.000 A 
ATOM     18  F   UNL     1       1.604  11.211  18.239  0.00  0.00    +0.000 F 
ATOM     19  C   UNL     1       2.224   9.047  17.547  0.00  0.00    +0.000 A 
ATOM     20  C   UNL     1       2.407   7.696  17.854  0.00  0.00    +0.000 A 
ENDBRANCH  12  14
BRANCH  10  21
ATOM     21  C   UNL     1       1.933   2.516  21.171  0.00  0.00    +0.000 C 
ATOM     22  F   UNL     1       0.868   2.733  21.985  0.00  0.00    +0.000 F 
ATOM     23  F   UNL     1       1.618   1.438  20.400  0.00  0.00    +0.000 F 
ATOM     24  F   UNL     1       2.965   2.124  21.967  0.00  0.00    +0.000 F 
ENDBRANCH  10  21
TORSDOF 2
ENDMDL
MODEL 6
REMARK VINA RESULT:      -7.3      3.682      6.988
REMARK  Name = 
REMARK  4 active torsions:
REMARK  status: ('A' for Active; 'I' for Inactive)
REMARK    1  A    between atoms: C_1  and  C_2
REMARK    2  A    between atoms: C_4  and  C_5
REMARK    3  A    between atoms: C_10  and  C_11
REMARK    4  A    between atoms: C_16  and  C_17
REMARK                            x       y       z     vdW  Elec       q    Type
REMARK                         _______ _______ _______ _____ _____    ______ ____
ROOT
ATOM      1  C   UNL     1       6.655   4.279  15.246  0.00  0.00    +0.000 C 
ATOM      2  C   UNL     1       6.458   5.466  16.138  0.00  0.00    +0.000 A 
ATOM      3  C   UNL     1       7.512   6.283  16.494  0.00  0.00    +0.000 A 
ATOM      4  C   UNL     1       7.213   7.383  17.274  0.00  0.00    +0.000 A 
ATOM      5  C   UNL     1       8.290   8.295  17.774  0.00  0.00    +0.000 C 
ATOM      6  N   UNL     1       5.955   7.670  17.662  0.00  0.00    +0.000 NA
ATOM      7  C   UNL     1       4.987   6.796  17.314  0.00  0.00    +0.000 A 
ATOM      8  N   UNL     1       3.656   7.029  17.813  0.00  0.00    +0.000 N 
ATOM      9  N   UNL     1       3.201   8.307  17.984  0.00  0.00    +0.000 NA
ATOM     10  C   UNL     1       1.873   8.189  18.137  0.00  0.00    +0.000 A 
ATOM     11  C   UNL     1       1.508   6.826  18.279  0.00  0.00    +0.000 A 
ATOM     12  C   UNL     1       2.673   6.083  18.134  0.00  0.00    +0.000 A 
ATOM     13  N   UNL     1       5.201   5.693  16.562  0.00  0.00    +0.000 NA
ENDROOT
BRANCH  12  14
ATOM     14  C   UNL     1       2.871   4.633  18.317  0.00  0.00    +0.000 A 
ATOM     15  C   UNL     1       2.287   3.720  17.423  0.00  0.00    +0.000 A 
ATOM     16  C   UNL     1       2.475   2.342  17.578  0.00  0.00    +0.000 A 
ATOM     17  C   UNL     1       3.256   1.867  18.621  0.00  0.00    +0.000 A 
ATOM     18  F   UNL     1       3.463   0.550  18.751  0.00  0.00    +0.000 F 
ATOM     19  C   UNL     1       3.820   2.741  19.537  0.00  0.00    +0.000 A 
ATOM     20  C   UNL     1       3.601   4.115  19.402  0.00  0.00    +0.000 A 
ENDBRANCH  12  14
BRANCH  10  21
ATOM     21  C   UNL     1       0.935   9.367  18.178  0.00  0.00    +0.000 C 
ATOM     22  F   UNL     1      -0.096   9.281  17.297  0.00  0.00    +0.000 F 
ATOM     23  F   UNL     1       0.378   9.509  19.412  0.00  0.00    +0.000 F 
ATOM     24  F   UNL     1       1.581  10.536  17.916  0.00  0.00    +0.000 F 
ENDBRANCH  10  21
TORSDOF 2
ENDMDL
MODEL 7
REMARK VINA RESULT:      -7.1      3.697      6.994
REMARK  Name = 
REMARK  4 active torsions:
REMARK  status: ('A' for Active; 'I' for Inactive)
REMARK    1  A    between atoms: C_1  and  C_2
REMARK    2  A    between atoms: C_4  and  C_5
REMARK    3  A    between atoms: C_10  and  C_11
REMARK    4  A    between atoms: C_16  and  C_17
REMARK                            x       y       z     vdW  Elec       q    Type
REMARK                         _______ _______ _______ _____ _____    ______ ____
ROOT
ATOM      1  C   UNL     1       6.602   4.289  15.225  0.00  0.00    +0.000 C 
ATOM      2  C   UNL     1       6.419   5.469  16.129  0.00  0.00    +0.000 A 
ATOM      3  C   UNL     1       7.482   6.272  16.489  0.00  0.00    +0.000 A 
ATOM      4  C   UNL     1       7.196   7.368  17.281  0.00  0.00    +0.000 A 
ATOM      5  C   UNL     1       8.285   8.265  17.785  0.00  0.00    +0.000 C 
ATOM      6  N   UNL     1       5.943   7.665  17.674  0.00  0.00    +0.000 NA
ATOM      7  C   UNL     1       4.965   6.803  17.321  0.00  0.00    +0.000 A 
ATOM      8  N   UNL     1       3.638   7.045  17.826  0.00  0.00    +0.000 N 
ATOM      9  N   UNL     1       3.197   8.327  18.010  0.00  0.00    +0.000 NA
ATOM     10  C   UNL     1       1.868   8.220  18.166  0.00  0.00    +0.000 A 
ATOM     11  C   UNL     1       1.489   6.860  18.296  0.00  0.00    +0.000 A 
ATOM     12  C   UNL     1       2.646   6.107  18.141  0.00  0.00    +0.000 A 
ATOM     13  N   UNL     1       5.165   5.705  16.558  0.00  0.00    +0.000 NA
ENDROOT
BRANCH  12  14
ATOM     14  C   UNL     1       2.830   4.653  18.311  0.00  0.00    +0.000 A 
ATOM     15  C   UNL     1       3.587   4.155  19.384  0.00  0.00    +0.000 A 
ATOM     16  C   UNL     1       3.761   2.779  19.565  0.00  0.00    +0.000 A 
ATOM     17  C   UNL     1       3.169   1.889  18.680  0.00  0.00    +0.000 A 
ATOM     18  F   UNL     1       3.308   0.571  18.872  0.00  0.00    +0.000 F 
ATOM     19  C   UNL     1       2.441   2.349  17.595  0.00  0.00    +0.000 A 
ATOM     20  C   UNL     1       2.301   3.726  17.395  0.00  0.00    +0.000 A 
ENDBRANCH  12  14
BRANCH  10  21
ATOM     21  C   UNL     1       0.941   9.408  18.219  0.00  0.00    +0.000 C 
ATOM     22  F   UNL     1       1.556  10.598  17.995  0.00  0.00    +0.000 F 
ATOM     23  F   UNL     1      -0.046   9.301  17.287  0.00  0.00    +0.000 F 
ATOM     24  F   UNL     1       0.317   9.507  19.424  0.00  0.00    +0.000 F 
ENDBRANCH  10  21
TORSDOF 2
ENDMDL
MODEL 8
REMARK VINA RESULT:      -7.0      3.361      5.693
REMARK  Name = 
REMARK  4 active torsions:
REMARK  status: ('A' for Active; 'I' for Inactive)
REMARK    1  A    between atoms: C_1  and  C_2
REMARK    2  A    between atoms: C_4  and  C_5
REMARK    3  A    between atoms: C_10  and  C_11
REMARK    4  A    between atoms: C_16  and  C_17
REMARK                            x       y       z     vdW  Elec       q    Type
REMARK                         _______ _______ _______ _____ _____    ______ ____
ROOT
ATOM      1  C   UNL     1       1.585   8.161  22.032  0.00  0.00    +0.000 C 
ATOM      2  C   UNL     1       1.702   8.173  20.539  0.00  0.00    +0.000 A 
ATOM      3  C   UNL     1       1.049   9.116  19.771  0.00  0.00    +0.000 A 
ATOM      4  C   UNL     1       1.270   9.073  18.408  0.00  0.00    +0.000 A 
ATOM      5  C   UNL     1       0.557  10.005  17.478  0.00  0.00    +0.000 C 
ATOM      6  N   UNL     1       2.095   8.172  17.840  0.00  0.00    +0.000 NA
ATOM      7  C   UNL     1       2.658   7.252  18.653  0.00  0.00    +0.000 A 
ATOM      8  N   UNL     1       3.455   6.216  18.049  0.00  0.00    +0.000 N 
ATOM      9  N   UNL     1       4.196   6.484  16.931  0.00  0.00    +0.000 NA
ATOM     10  C   UNL     1       5.044   5.450  16.817  0.00  0.00    +0.000 A 
ATOM     11  C   UNL     1       4.702   4.422  17.733  0.00  0.00    +0.000 A 
ATOM     12  C   UNL     1       3.633   4.896  18.483  0.00  0.00    +0.000 A 
ATOM     13  N   UNL     1       2.484   7.222  19.993  0.00  0.00    +0.000 NA
ENDROOT
BRANCH  12  14
ATOM     14  C   UNL     1       2.818   4.179  19.482  0.00  0.00    +0.000 A 
ATOM     15  C   UNL     1       3.427   3.598  20.607  0.00  0.00    +0.000 A 
ATOM     16  C   UNL     1       2.667   2.925  21.569  0.00  0.00    +0.000 A 
ATOM     17  C   UNL     1       1.290   2.836  21.419  0.00  0.00    +0.000 A 
ATOM     18  F   UNL     1       0.559   2.219  22.357  0.00  0.00    +0.000 F 
ATOM     19  C   UNL     1       0.664   3.372  20.306  0.00  0.00    +0.000 A 
ATOM     20  C   UNL     1       1.430   4.012  19.328  0.00  0.00    +0.000 A 
ENDBRANCH  12  14
BRANCH  10  21
ATOM     21  C   UNL     1       6.174   5.409  15.821  0.00  0.00    +0.000 C 
ATOM     22  F   UNL     1       5.829   5.832  14.577  0.00  0.00    +0.000 F 
ATOM     23  F   UNL     1       7.210   6.197  16.223  0.00  0.00    +0.000 F 
ATOM     24  F   UNL     1       6.682   4.155  15.685  0.00  0.00    +0.000 F 
ENDBRANCH  10  21
TORSDOF 2
ENDMDL
MODEL 9
REMARK VINA RESULT:      -6.9      2.730      4.282
REMARK  Name = 
REMARK  4 active torsions:
REMARK  status: ('A' for Active; 'I' for Inactive)
REMARK    1  A    between atoms: C_1  and  C_2
REMARK    2  A    between atoms: C_4  and  C_5
REMARK    3  A    between atoms: C_10  and  C_11
REMARK    4  A    between atoms: C_16  and  C_17
REMARK                            x       y       z     vdW  Elec       q    Type
REMARK                         _______ _______ _______ _____ _____    ______ ____
ROOT
ATOM      1  C   UNL     1       0.619   3.326  20.224  0.00  0.00    +0.000 C 
ATOM      2  C   UNL     1       2.095   3.189  20.014  0.00  0.00    +0.000 A 
ATOM      3  C   UNL     1       2.856   2.332  20.784  0.00  0.00    +0.000 A 
ATOM      4  C   UNL     1       4.198   2.238  20.470  0.00  0.00    +0.000 A 
ATOM      5  C   UNL     1       5.127   1.392  21.286  0.00  0.00    +0.000 C 
ATOM      6  N   UNL     1       4.751   2.927  19.453  0.00  0.00    +0.000 NA
ATOM      7  C   UNL     1       3.950   3.780  18.779  0.00  0.00    +0.000 A 
ATOM      8  N   UNL     1       4.548   4.605  17.761  0.00  0.00    +0.000 N 
ATOM      9  N   UNL     1       5.589   4.126  17.014  0.00  0.00    +0.000 NA
ATOM     10  C   UNL     1       5.695   4.974  15.978  0.00  0.00    +0.000 A 
ATOM     11  C   UNL     1       4.868   6.108  16.177  0.00  0.00    +0.000 A 
ATOM     12  C   UNL     1       4.178   5.896  17.363  0.00  0.00    +0.000 A 
ATOM     13  N   UNL     1       2.631   3.937  19.031  0.00  0.00    +0.000 NA
ENDROOT
BRANCH  12  14
ATOM     14  C   UNL     1       3.286   6.820  18.089  0.00  0.00    +0.000 A 
ATOM     15  C   UNL     1       2.745   7.941  17.437  0.00  0.00    +0.000 A 
ATOM     16  C   UNL     1       1.889   8.821  18.109  0.00  0.00    +0.000 A 
ATOM     17  C   UNL     1       1.560   8.581  19.435  0.00  0.00    +0.000 A 
ATOM     18  F   UNL     1       0.715   9.405  20.069  0.00  0.00    +0.000 F 
ATOM     19  C   UNL     1       2.101   7.501  20.115  0.00  0.00    +0.000 A 
ATOM     20  C   UNL     1       2.985   6.645  19.452  0.00  0.00    +0.000 A 
ENDBRANCH  12  14
BRANCH  10  21
ATOM     21  C   UNL     1       6.601   4.732  14.798  0.00  0.00    +0.000 C 
ATOM     22  F   UNL     1       7.923   4.869  15.080  0.00  0.00    +0.000 F 
ATOM     23  F   UNL     1       6.440   3.473  14.305  0.00  0.00    +0.000 F 
ATOM     24  F   UNL     1       6.327   5.580  13.770  0.00  0.00    +0.000 F 
ENDBRANCH  10  21
TORSDOF 2
ENDMDL
