MODEL 1
REMARK VINA RESULT:      -7.5      0.000      0.000
REMARK  Name = 
REMARK  10 active torsions:
REMARK  status: ('A' for Active; 'I' for Inactive)
REMARK    1  A    between atoms: C_1  and  N_2
REMARK    2  A    between atoms: C_3  and  O_5
REMARK    3  A    between atoms: O_5  and  C_6
REMARK    4  A    between atoms: C_6  and  C_7
REMARK    5  A    between atoms: C_9  and  C_10
REMARK    6  A    between atoms: N_16  and  C_17
REMARK    7  A    between atoms: C_18  and  C_19
REMARK    8  A    between atoms: C_19  and  O_20
REMARK    9  A    between atoms: O_20  and  C_21
REMARK   10  A    between atoms: N_23  and  C_24
REMARK                            x       y       z     vdW  Elec       q    Type
REMARK                         _______ _______ _______ _____ _____    ______ ____
ROOT
ATOM      1  C   UNL     1       6.580   5.397  18.653  0.00  0.00    +0.000 A 
ATOM      2  N   UNL     1       5.556   5.311  19.568  0.00  0.00    +0.000 NA
ATOM      3  C   UNL     1       4.667   4.458  19.084  0.00  0.00    +0.000 A 
ATOM      4  N   UNL     1       5.068   4.041  17.825  0.00  0.00    +0.000 N 
ATOM      5  C   UNL     1       4.350   3.199  16.898  0.00  0.00    +0.000 C 
ATOM      6  C   UNL     1       6.301   4.604  17.556  0.00  0.00    +0.000 A 
ENDROOT
BRANCH   3   7
ATOM      7  C   UNL     1       3.435   4.080  19.798  0.00  0.00    +0.000 A 
ATOM      8  C   UNL     1       3.414   2.889  20.538  0.00  0.00    +0.000 A 
ATOM      9  C   UNL     1       2.269   2.492  21.237  0.00  0.00    +0.000 A 
ATOM     10  C   UNL     1       1.127   3.287  21.206  0.00  0.00    +0.000 A 
ATOM     11  C   UNL     1       1.119   4.457  20.452  0.00  0.00    +0.000 A 
ATOM     12  C   UNL     1       2.257   4.838  19.734  0.00  0.00    +0.000 A 
ENDBRANCH   3   7
BRANCH   1  13
ATOM     13  C   UNL     1       7.781   6.245  18.923  0.00  0.00    +0.000 C 
BRANCH  13  14
ATOM     14  O   UNL     1       8.184   7.025  17.783  0.00  0.00    +0.000 OA
BRANCH  14  17
ATOM     15  C   UNL     1       9.080  10.110  19.356  0.00  0.00    +0.000 C 
ATOM     16  N   UNL     1       8.965   8.745  18.926  0.00  0.00    +0.000 N 
ATOM     17  C   UNL     1       8.094   8.362  17.950  0.00  0.00    +0.000 C 
ATOM     18  O   UNL     1       7.374   9.120  17.321  0.00  0.00    +0.000 OA
ATOM     19  H   UNL     1       9.481   8.005  19.381  0.00  0.00    +0.000 HD
ENDBRANCH  14  17
ENDBRANCH  13  14
ENDBRANCH   1  13
BRANCH   6  20
ATOM     20  C   UNL     1       7.097   4.369  16.320  0.00  0.00    +0.000 C 
BRANCH  20  21
ATOM     21  O   UNL     1       6.735   5.369  15.355  0.00  0.00    +0.000 OA
BRANCH  21  22
ATOM     22  C   UNL     1       6.979   5.033  14.065  0.00  0.00    +0.000 C 
ATOM     23  O   UNL     1       7.801   5.561  13.333  0.00  0.00    +0.000 OA
ATOM     24  N   UNL     1       6.156   4.006  13.710  0.00  0.00    +0.000 N 
ATOM     25  C   UNL     1       6.201   3.372  12.421  0.00  0.00    +0.000 C 
ATOM     26  H   UNL     1       5.491   3.704  14.406  0.00  0.00    +0.000 HD
ENDBRANCH  21  22
ENDBRANCH  20  21
ENDBRANCH   6  20
TORSDOF 7
ENDMDL
MODEL 2
REMARK VINA RESULT:      -7.5      3.179      5.325
REMARK  Name = 
REMARK  10 active torsions:
REMARK  status: ('A' for Active; 'I' for Inactive)
REMARK    1  A    between atoms: C_1  and  N_2
REMARK    2  A    between atoms: C_3  and  O_5
REMARK    3  A    between atoms: O_5  and  C_6
REMARK    4  A    between atoms: C_6  and  C_7
REMARK    5  A    between atoms: C_9  and  C_10
REMARK    6  A    between atoms: N_16  and  C_17
REMARK    7  A    between atoms: C_18  and  C_19
REMARK    8  A    between atoms: C_19  and  O_20
REMARK    9  A    between atoms: O_20  and  C_21
REMARK   10  A    between atoms: N_23  and  C_24
REMARK                            x       y       z     vdW  Elec       q    Type
REMARK                         _______ _______ _______ _____ _____    ______ ____
ROOT
ATOM      1  C   UNL     1       3.695   4.023  17.606  0.00  0.00    +0.000 A 
ATOM      2  N   UNL     1       2.753   4.881  18.124  0.00  0.00    +0.000 NA
ATOM      3  C   UNL     1       3.261   6.102  18.073  0.00  0.00    +0.000 A 
ATOM      4  N   UNL     1       4.558   6.039  17.591  0.00  0.00    +0.000 N 
ATOM      5  C   UNL     1       5.514   7.115  17.472  0.00  0.00    +0.000 C 
ATOM      6  C   UNL     1       4.833   4.727  17.257  0.00  0.00    +0.000 A 
ENDROOT
BRANCH   3   7
ATOM      7  C   UNL     1       2.531   7.302  18.516  0.00  0.00    +0.000 A 
ATOM      8  C   UNL     1       2.106   7.388  19.850  0.00  0.00    +0.000 A 
ATOM      9  C   UNL     1       1.414   8.510  20.318  0.00  0.00    +0.000 A 
ATOM     10  C   UNL     1       1.141   9.566  19.454  0.00  0.00    +0.000 A 
ATOM     11  C   UNL     1       1.528   9.486  18.119  0.00  0.00    +0.000 A 
ATOM     12  C   UNL     1       2.196   8.351  17.648  0.00  0.00    +0.000 A 
ENDBRANCH   3   7
BRANCH   1  13
ATOM     13  C   UNL     1       3.412   2.562  17.471  0.00  0.00    +0.000 C 
BRANCH  13  14
ATOM     14  O   UNL     1       3.292   1.894  18.740  0.00  0.00    +0.000 OA
BRANCH  14  17
ATOM     15  C   UNL     1       1.366   2.873  21.591  0.00  0.00    +0.000 C 
ATOM     16  N   UNL     1       2.402   2.575  20.643  0.00  0.00    +0.000 N 
ATOM     17  C   UNL     1       2.129   2.115  19.389  0.00  0.00    +0.000 C 
ATOM     18  O   UNL     1       1.008   1.955  18.933  0.00  0.00    +0.000 OA
ATOM     19  H   UNL     1       3.378   2.633  20.894  0.00  0.00    +0.000 HD
ENDBRANCH  14  17
ENDBRANCH  13  14
ENDBRANCH   1  13
BRANCH   6  20
ATOM     20  C   UNL     1       6.109   4.244  16.661  0.00  0.00    +0.000 C 
BRANCH  20  21
ATOM     21  O   UNL     1       5.829   3.738  15.347  0.00  0.00    +0.000 OA
BRANCH  21  22
ATOM     22  C   UNL     1       6.598   4.255  14.359  0.00  0.00    +0.000 C 
ATOM     23  O   UNL     1       7.390   5.177  14.478  0.00  0.00    +0.000 OA
ATOM     24  N   UNL     1       6.347   3.580  13.201  0.00  0.00    +0.000 N 
ATOM     25  C   UNL     1       7.043   3.841  11.971  0.00  0.00    +0.000 C 
ATOM     26  H   UNL     1       5.628   2.873  13.242  0.00  0.00    +0.000 HD
ENDBRANCH  21  22
ENDBRANCH  20  21
ENDBRANCH   6  20
TORSDOF 7
ENDMDL
MODEL 3
REMARK VINA RESULT:      -7.5      3.272      5.666
REMARK  Name = 
REMARK  10 active torsions:
REMARK  status: ('A' for Active; 'I' for Inactive)
REMARK    1  A    between atoms: C_1  and  N_2
REMARK    2  A    between atoms: C_3  and  O_5
REMARK    3  A    between atoms: O_5  and  C_6
REMARK    4  A    between atoms: C_6  and  C_7
REMARK    5  A    between atoms: C_9  and  C_10
REMARK    6  A    between atoms: N_16  and  C_17
REMARK    7  A    between atoms: C_18  and  C_19
REMARK    8  A    between atoms: C_19  and  O_20
REMARK    9  A    between atoms: O_20  and  C_21
REMARK   10  A    between atoms: N_23  and  C_24
REMARK                            x       y       z     vdW  Elec       q    Type
REMARK                         _______ _______ _______ _____ _____    ______ ____
ROOT
ATOM      1  C   UNL     1       2.856   4.273  17.707  0.00  0.00    +0.000 A 
ATOM      2  N   UNL     1       2.079   5.204  18.356  0.00  0.00    +0.000 NA
ATOM      3  C   UNL     1       2.632   6.389  18.154  0.00  0.00    +0.000 A 
ATOM      4  N   UNL     1       3.808   6.230  17.438  0.00  0.00    +0.000 N 
ATOM      5  C   UNL     1       4.779   7.241  17.091  0.00  0.00    +0.000 C 
ATOM      6  C   UNL     1       3.942   4.893  17.117  0.00  0.00    +0.000 A 
ENDROOT
BRANCH   3   7
ATOM      7  C   UNL     1       2.067   7.646  18.673  0.00  0.00    +0.000 A 
ATOM      8  C   UNL     1       1.773   7.748  20.041  0.00  0.00    +0.000 A 
ATOM      9  C   UNL     1       1.239   8.924  20.580  0.00  0.00    +0.000 A 
ATOM     10  C   UNL     1       0.995  10.017  19.755  0.00  0.00    +0.000 A 
ATOM     11  C   UNL     1       1.252   9.925  18.389  0.00  0.00    +0.000 A 
ATOM     12  C   UNL     1       1.761   8.739  17.849  0.00  0.00    +0.000 A 
ENDBRANCH   3   7
BRANCH   1  13
ATOM     13  C   UNL     1       2.474   2.828  17.695  0.00  0.00    +0.000 C 
BRANCH  13  14
ATOM     14  O   UNL     1       3.455   1.983  18.322  0.00  0.00    +0.000 OA
BRANCH  14  17
ATOM     15  C   UNL     1       2.373   2.839  21.621  0.00  0.00    +0.000 C 
ATOM     16  N   UNL     1       2.473   2.501  20.229  0.00  0.00    +0.000 N 
ATOM     17  C   UNL     1       3.668   2.236  19.631  0.00  0.00    +0.000 C 
ATOM     18  O   UNL     1       4.746   2.211  20.203  0.00  0.00    +0.000 OA
ATOM     19  H   UNL     1       1.663   2.512  19.626  0.00  0.00    +0.000 HD
ENDBRANCH  14  17
ENDBRANCH  13  14
ENDBRANCH   1  13
BRANCH   6  20
ATOM     20  C   UNL     1       5.052   4.313  16.312  0.00  0.00    +0.000 C 
BRANCH  20  21
ATOM     21  O   UNL     1       5.984   3.695  17.212  0.00  0.00    +0.000 OA
BRANCH  21  22
ATOM     22  C   UNL     1       7.090   4.430  17.483  0.00  0.00    +0.000 C 
ATOM     23  O   UNL     1       8.015   4.641  16.714  0.00  0.00    +0.000 OA
ATOM     24  N   UNL     1       7.009   4.900  18.760  0.00  0.00    +0.000 N 
ATOM     25  C   UNL     1       7.996   5.767  19.344  0.00  0.00    +0.000 C 
ATOM     26  H   UNL     1       6.208   4.603  19.297  0.00  0.00    +0.000 HD
ENDBRANCH  21  22
ENDBRANCH  20  21
ENDBRANCH   6  20
TORSDOF 7
ENDMDL
MODEL 4
REMARK VINA RESULT:      -7.5      3.156      5.331
REMARK  Name = 
REMARK  10 active torsions:
REMARK  status: ('A' for Active; 'I' for Inactive)
REMARK    1  A    between atoms: C_1  and  N_2
REMARK    2  A    between atoms: C_3  and  O_5
REMARK    3  A    between atoms: O_5  and  C_6
REMARK    4  A    between atoms: C_6  and  C_7
REMARK    5  A    between atoms: C_9  and  C_10
REMARK    6  A    between atoms: N_16  and  C_17
REMARK    7  A    between atoms: C_18  and  C_19
REMARK    8  A    between atoms: C_19  and  O_20
REMARK    9  A    between atoms: O_20  and  C_21
REMARK   10  A    between atoms: N_23  and  C_24
REMARK                            x       y       z     vdW  Elec       q    Type
REMARK                         _______ _______ _______ _____ _____    ______ ____
ROOT
ATOM      1  C   UNL     1       3.888   4.070  17.683  0.00  0.00    +0.000 A 
ATOM      2  N   UNL     1       2.907   4.907  18.161  0.00  0.00    +0.000 NA
ATOM      3  C   UNL     1       3.383   6.141  18.110  0.00  0.00    +0.000 A 
ATOM      4  N   UNL     1       4.696   6.108  17.670  0.00  0.00    +0.000 N 
ATOM      5  C   UNL     1       5.626   7.209  17.567  0.00  0.00    +0.000 C 
ATOM      6  C   UNL     1       5.017   4.800  17.361  0.00  0.00    +0.000 A 
ENDROOT
BRANCH   3   7
ATOM      7  C   UNL     1       2.607   7.326  18.514  0.00  0.00    +0.000 A 
ATOM      8  C   UNL     1       2.361   8.334  17.570  0.00  0.00    +0.000 A 
ATOM      9  C   UNL     1       1.624   9.475  17.906  0.00  0.00    +0.000 A 
ATOM     10  C   UNL     1       1.121   9.621  19.195  0.00  0.00    +0.000 A 
ATOM     11  C   UNL     1       1.381   8.646  20.154  0.00  0.00    +0.000 A 
ATOM     12  C   UNL     1       2.139   7.519  19.822  0.00  0.00    +0.000 A 
ENDBRANCH   3   7
BRANCH   1  13
ATOM     13  C   UNL     1       3.648   2.599  17.559  0.00  0.00    +0.000 C 
BRANCH  13  14
ATOM     14  O   UNL     1       3.542   1.939  18.832  0.00  0.00    +0.000 OA
BRANCH  14  17
ATOM     15  C   UNL     1       1.526   2.891  21.629  0.00  0.00    +0.000 C 
ATOM     16  N   UNL     1       2.589   2.626  20.701  0.00  0.00    +0.000 N 
ATOM     17  C   UNL     1       2.360   2.108  19.462  0.00  0.00    +0.000 C 
ATOM     18  O   UNL     1       1.256   1.864  19.000  0.00  0.00    +0.000 OA
ATOM     19  H   UNL     1       3.557   2.753  20.961  0.00  0.00    +0.000 HD
ENDBRANCH  14  17
ENDBRANCH  13  14
ENDBRANCH   1  13
BRANCH   6  20
ATOM     20  C   UNL     1       6.324   4.346  16.812  0.00  0.00    +0.000 C 
BRANCH  20  21
ATOM     21  O   UNL     1       6.080   3.676  15.566  0.00  0.00    +0.000 OA
BRANCH  21  22
ATOM     22  C   UNL     1       6.670   4.244  14.486  0.00  0.00    +0.000 C 
ATOM     23  O   UNL     1       7.391   5.229  14.502  0.00  0.00    +0.000 OA
ATOM     24  N   UNL     1       6.329   3.537  13.372  0.00  0.00    +0.000 N 
ATOM     25  C   UNL     1       6.838   3.841  12.061  0.00  0.00    +0.000 C 
ATOM     26  H   UNL     1       5.683   2.773  13.504  0.00  0.00    +0.000 HD
ENDBRANCH  21  22
ENDBRANCH  20  21
ENDBRANCH   6  20
TORSDOF 7
ENDMDL
MODEL 5
REMARK VINA RESULT:      -7.4      3.007      5.197
REMARK  Name = 
REMARK  10 active torsions:
REMARK  status: ('A' for Active; 'I' for Inactive)
REMARK    1  A    between atoms: C_1  and  N_2
REMARK    2  A    between atoms: C_3  and  O_5
REMARK    3  A    between atoms: O_5  and  C_6
REMARK    4  A    between atoms: C_6  and  C_7
REMARK    5  A    between atoms: C_9  and  C_10
REMARK    6  A    between atoms: N_16  and  C_17
REMARK    7  A    between atoms: C_18  and  C_19
REMARK    8  A    between atoms: C_19  and  O_20
REMARK    9  A    between atoms: O_20  and  C_21
REMARK   10  A    between atoms: N_23  and  C_24
REMARK                            x       y       z     vdW  Elec       q    Type
REMARK                         _______ _______ _______ _____ _____    ______ ____
ROOT
ATOM      1  C   UNL     1       4.448   4.287  18.941  0.00  0.00    +0.000 A 
ATOM      2  N   UNL     1       3.451   5.145  19.343  0.00  0.00    +0.000 NA
ATOM      3  C   UNL     1       3.593   6.265  18.653  0.00  0.00    +0.000 A 
ATOM      4  N   UNL     1       4.722   6.173  17.855  0.00  0.00    +0.000 N 
ATOM      5  C   UNL     1       5.309   7.198  17.024  0.00  0.00    +0.000 C 
ATOM      6  C   UNL     1       5.254   4.906  18.003  0.00  0.00    +0.000 A 
ENDROOT
BRANCH   3   7
ATOM      7  C   UNL     1       2.687   7.419  18.786  0.00  0.00    +0.000 A 
ATOM      8  C   UNL     1       2.049   7.646  20.015  0.00  0.00    +0.000 A 
ATOM      9  C   UNL     1       1.184   8.732  20.190  0.00  0.00    +0.000 A 
ATOM     10  C   UNL     1       0.950   9.609  19.136  0.00  0.00    +0.000 A 
ATOM     11  C   UNL     1       1.551   9.384  17.901  0.00  0.00    +0.000 A 
ATOM     12  C   UNL     1       2.394   8.283  17.721  0.00  0.00    +0.000 A 
ENDBRANCH   3   7
BRANCH   1  13
ATOM     13  C   UNL     1       4.539   2.902  19.496  0.00  0.00    +0.000 C 
BRANCH  13  14
ATOM     14  O   UNL     1       3.979   1.909  18.618  0.00  0.00    +0.000 OA
BRANCH  14  17
ATOM     15  C   UNL     1       0.507   2.474  19.265  0.00  0.00    +0.000 C 
ATOM     16  N   UNL     1       1.923   2.253  19.346  0.00  0.00    +0.000 N 
ATOM     17  C   UNL     1       2.705   2.144  18.236  0.00  0.00    +0.000 C 
ATOM     18  O   UNL     1       2.309   2.265  17.087  0.00  0.00    +0.000 OA
ATOM     19  H   UNL     1       2.383   2.103  20.233  0.00  0.00    +0.000 HD
ENDBRANCH  14  17
ENDBRANCH  13  14
ENDBRANCH   1  13
BRANCH   6  20
ATOM     20  C   UNL     1       6.449   4.390  17.281  0.00  0.00    +0.000 C 
BRANCH  20  21
ATOM     21  O   UNL     1       6.008   3.788  16.054  0.00  0.00    +0.000 OA
BRANCH  21  22
ATOM     22  C   UNL     1       6.593   4.278  14.934  0.00  0.00    +0.000 C 
ATOM     23  O   UNL     1       7.368   5.221  14.887  0.00  0.00    +0.000 OA
ATOM     24  N   UNL     1       6.177   3.548  13.861  0.00  0.00    +0.000 N 
ATOM     25  C   UNL     1       6.658   3.771  12.524  0.00  0.00    +0.000 C 
ATOM     26  H   UNL     1       5.494   2.828  14.045  0.00  0.00    +0.000 HD
ENDBRANCH  21  22
ENDBRANCH  20  21
ENDBRANCH   6  20
TORSDOF 7
ENDMDL
MODEL 6
REMARK VINA RESULT:      -7.3      1.365      5.189
REMARK  Name = 
REMARK  10 active torsions:
REMARK  status: ('A' for Active; 'I' for Inactive)
REMARK    1  A    between atoms: C_1  and  N_2
REMARK    2  A    between atoms: C_3  and  O_5
REMARK    3  A    between atoms: O_5  and  C_6
REMARK    4  A    between atoms: C_6  and  C_7
REMARK    5  A    between atoms: C_9  and  C_10
REMARK    6  A    between atoms: N_16  and  C_17
REMARK    7  A    between atoms: C_18  and  C_19
REMARK    8  A    between atoms: C_19  and  O_20
REMARK    9  A    between atoms: O_20  and  C_21
REMARK   10  A    between atoms: N_23  and  C_24
REMARK                            x       y       z     vdW  Elec       q    Type
REMARK                         _______ _______ _______ _____ _____    ______ ____
ROOT
ATOM      1  C   UNL     1       5.120   4.641  15.909  0.00  0.00    +0.000 A 
ATOM      2  N   UNL     1       3.989   4.099  16.472  0.00  0.00    +0.000 NA
ATOM      3  C   UNL     1       4.086   4.260  17.783  0.00  0.00    +0.000 A 
ATOM      4  N   UNL     1       5.307   4.839  18.085  0.00  0.00    +0.000 N 
ATOM      5  C   UNL     1       5.870   5.095  19.390  0.00  0.00    +0.000 C 
ATOM      6  C   UNL     1       5.958   5.119  16.899  0.00  0.00    +0.000 A 
ENDROOT
BRANCH   3   7
ATOM      7  C   UNL     1       3.044   3.829  18.731  0.00  0.00    +0.000 A 
ATOM      8  C   UNL     1       2.215   4.796  19.318  0.00  0.00    +0.000 A 
ATOM      9  C   UNL     1       1.209   4.434  20.220  0.00  0.00    +0.000 A 
ATOM     10  C   UNL     1       1.017   3.094  20.544  0.00  0.00    +0.000 A 
ATOM     11  C   UNL     1       1.849   2.123  19.995  0.00  0.00    +0.000 A 
ATOM     12  C   UNL     1       2.871   2.491  19.113  0.00  0.00    +0.000 A 
ENDBRANCH   3   7
BRANCH   1  13
ATOM     13  C   UNL     1       5.300   4.670  14.425  0.00  0.00    +0.000 C 
BRANCH  13  14
ATOM     14  O   UNL     1       6.603   4.223  14.010  0.00  0.00    +0.000 OA
BRANCH  14  17
ATOM     15  C   UNL     1       5.772   1.948  11.378  0.00  0.00    +0.000 C 
ATOM     16  N   UNL     1       5.884   2.672  12.613  0.00  0.00    +0.000 N 
ATOM     17  C   UNL     1       6.671   3.778  12.737  0.00  0.00    +0.000 C 
ATOM     18  O   UNL     1       7.309   4.287  11.829  0.00  0.00    +0.000 OA
ATOM     19  H   UNL     1       5.434   2.347  13.455  0.00  0.00    +0.000 HD
ENDBRANCH  14  17
ENDBRANCH  13  14
ENDBRANCH   1  13
BRANCH   6  20
ATOM     20  C   UNL     1       7.284   5.787  16.787  0.00  0.00    +0.000 C 
BRANCH  20  21
ATOM     21  O   UNL     1       7.089   7.202  16.930  0.00  0.00    +0.000 OA
BRANCH  21  22
ATOM     22  C   UNL     1       7.872   7.796  17.863  0.00  0.00    +0.000 C 
ATOM     23  O   UNL     1       8.444   7.230  18.781  0.00  0.00    +0.000 OA
ATOM     24  N   UNL     1       7.920   9.136  17.614  0.00  0.00    +0.000 N 
ATOM     25  C   UNL     1       8.716  10.051  18.386  0.00  0.00    +0.000 C 
ATOM     26  H   UNL     1       7.355   9.470  16.848  0.00  0.00    +0.000 HD
ENDBRANCH  21  22
ENDBRANCH  20  21
ENDBRANCH   6  20
TORSDOF 7
ENDMDL
MODEL 7
REMARK VINA RESULT:      -7.3      1.540      5.139
REMARK  Name = 
REMARK  10 active torsions:
REMARK  status: ('A' for Active; 'I' for Inactive)
REMARK    1  A    between atoms: C_1  and  N_2
REMARK    2  A    between atoms: C_3  and  O_5
REMARK    3  A    between atoms: O_5  and  C_6
REMARK    4  A    between atoms: C_6  and  C_7
REMARK    5  A    between atoms: C_9  and  C_10
REMARK    6  A    between atoms: N_16  and  C_17
REMARK    7  A    between atoms: C_18  and  C_19
REMARK    8  A    between atoms: C_19  and  O_20
REMARK    9  A    between atoms: O_20  and  C_21
REMARK   10  A    between atoms: N_23  and  C_24
REMARK                            x       y       z     vdW  Elec       q    Type
REMARK                         _______ _______ _______ _____ _____    ______ ____
ROOT
ATOM      1  C   UNL     1       5.137   4.483  15.864  0.00  0.00    +0.000 A 
ATOM      2  N   UNL     1       3.907   4.069  16.320  0.00  0.00    +0.000 NA
ATOM      3  C   UNL     1       3.942   4.114  17.642  0.00  0.00    +0.000 A 
ATOM      4  N   UNL     1       5.212   4.484  18.055  0.00  0.00    +0.000 N 
ATOM      5  C   UNL     1       5.721   4.555  19.405  0.00  0.00    +0.000 C 
ATOM      6  C   UNL     1       5.969   4.756  16.932  0.00  0.00    +0.000 A 
ENDROOT
BRANCH   3   7
ATOM      7  C   UNL     1       2.792   3.768  18.495  0.00  0.00    +0.000 A 
ATOM      8  C   UNL     1       2.120   2.556  18.274  0.00  0.00    +0.000 A 
ATOM      9  C   UNL     1       1.026   2.183  19.063  0.00  0.00    +0.000 A 
ATOM     10  C   UNL     1       0.592   3.018  20.087  0.00  0.00    +0.000 A 
ATOM     11  C   UNL     1       1.227   4.239  20.302  0.00  0.00    +0.000 A 
ATOM     12  C   UNL     1       2.304   4.621  19.495  0.00  0.00    +0.000 A 
ENDBRANCH   3   7
BRANCH   1  13
ATOM     13  C   UNL     1       5.413   4.598  14.399  0.00  0.00    +0.000 C 
BRANCH  13  14
ATOM     14  O   UNL     1       6.579   3.862  13.988  0.00  0.00    +0.000 OA
BRANCH  14  17
ATOM     15  C   UNL     1       5.805   1.844  11.139  0.00  0.00    +0.000 C 
ATOM     16  N   UNL     1       5.914   2.431  12.445  0.00  0.00    +0.000 N 
ATOM     17  C   UNL     1       6.630   3.568  12.671  0.00  0.00    +0.000 C 
ATOM     18  O   UNL     1       7.200   4.219  11.810  0.00  0.00    +0.000 OA
ATOM     19  H   UNL     1       5.517   1.983  13.258  0.00  0.00    +0.000 HD
ENDBRANCH  14  17
ENDBRANCH  13  14
ENDBRANCH   1  13
BRANCH   6  20
ATOM     20  C   UNL     1       7.381   5.230  16.947  0.00  0.00    +0.000 C 
BRANCH  20  21
ATOM     21  O   UNL     1       7.379   6.653  16.755  0.00  0.00    +0.000 OA
BRANCH  21  22
ATOM     22  C   UNL     1       7.889   7.369  17.787  0.00  0.00    +0.000 C 
ATOM     23  O   UNL     1       8.240   6.918  18.866  0.00  0.00    +0.000 OA
ATOM     24  N   UNL     1       7.951   8.683  17.428  0.00  0.00    +0.000 N 
ATOM     25  C   UNL     1       8.501   9.706  18.276  0.00  0.00    +0.000 C 
ATOM     26  H   UNL     1       7.578   8.917  16.520  0.00  0.00    +0.000 HD
ENDBRANCH  21  22
ENDBRANCH  20  21
ENDBRANCH   6  20
TORSDOF 7
ENDMDL
MODEL 8
REMARK VINA RESULT:      -7.3      3.452      7.448
REMARK  Name = 
REMARK  10 active torsions:
REMARK  status: ('A' for Active; 'I' for Inactive)
REMARK    1  A    between atoms: C_1  and  N_2
REMARK    2  A    between atoms: C_3  and  O_5
REMARK    3  A    between atoms: O_5  and  C_6
REMARK    4  A    between atoms: C_6  and  C_7
REMARK    5  A    between atoms: C_9  and  C_10
REMARK    6  A    between atoms: N_16  and  C_17
REMARK    7  A    between atoms: C_18  and  C_19
REMARK    8  A    between atoms: C_19  and  O_20
REMARK    9  A    between atoms: O_20  and  C_21
REMARK   10  A    between atoms: N_23  and  C_24
REMARK                            x       y       z     vdW  Elec       q    Type
REMARK                         _______ _______ _______ _____ _____    ______ ____
ROOT
ATOM      1  C   UNL     1       4.512   3.403  17.834  0.00  0.00    +0.000 A 
ATOM      2  N   UNL     1       4.938   3.081  16.566  0.00  0.00    +0.000 NA
ATOM      3  C   UNL     1       5.401   4.190  16.013  0.00  0.00    +0.000 A 
ATOM      4  N   UNL     1       5.214   5.250  16.885  0.00  0.00    +0.000 N 
ATOM      5  C   UNL     1       5.475   6.651  16.648  0.00  0.00    +0.000 C 
ATOM      6  C   UNL     1       4.682   4.756  18.060  0.00  0.00    +0.000 A 
ENDROOT
BRANCH   3   7
ATOM      7  C   UNL     1       5.976   4.240  14.658  0.00  0.00    +0.000 A 
ATOM      8  C   UNL     1       7.157   4.967  14.445  0.00  0.00    +0.000 A 
ATOM      9  C   UNL     1       7.743   5.039  13.176  0.00  0.00    +0.000 A 
ATOM     10  C   UNL     1       7.154   4.379  12.102  0.00  0.00    +0.000 A 
ATOM     11  C   UNL     1       5.965   3.678  12.287  0.00  0.00    +0.000 A 
ATOM     12  C   UNL     1       5.368   3.630  13.551  0.00  0.00    +0.000 A 
ENDBRANCH   3   7
BRANCH   1  13
ATOM     13  C   UNL     1       3.976   2.353  18.753  0.00  0.00    +0.000 C 
BRANCH  13  14
ATOM     14  O   UNL     1       2.682   1.865  18.354  0.00  0.00    +0.000 OA
BRANCH  14  17
ATOM     15  C   UNL     1       1.290   3.049  21.428  0.00  0.00    +0.000 C 
ATOM     16  N   UNL     1       2.144   2.607  20.362  0.00  0.00    +0.000 N 
ATOM     17  C   UNL     1       1.658   2.270  19.134  0.00  0.00    +0.000 C 
ATOM     18  O   UNL     1       0.486   2.350  18.801  0.00  0.00    +0.000 OA
ATOM     19  H   UNL     1       3.134   2.466  20.505  0.00  0.00    +0.000 HD
ENDBRANCH  14  17
ENDBRANCH  13  14
ENDBRANCH   1  13
BRANCH   6  20
ATOM     20  C   UNL     1       4.373   5.569  19.268  0.00  0.00    +0.000 C 
BRANCH  20  21
ATOM     21  O   UNL     1       2.948   5.608  19.432  0.00  0.00    +0.000 OA
BRANCH  21  22
ATOM     22  C   UNL     1       2.415   6.852  19.507  0.00  0.00    +0.000 C 
ATOM     23  O   UNL     1       2.395   7.677  18.607  0.00  0.00    +0.000 OA
ATOM     24  N   UNL     1       1.902   7.040  20.756  0.00  0.00    +0.000 N 
ATOM     25  C   UNL     1       1.210   8.237  21.151  0.00  0.00    +0.000 C 
ATOM     26  H   UNL     1       2.036   6.287  21.414  0.00  0.00    +0.000 HD
ENDBRANCH  21  22
ENDBRANCH  20  21
ENDBRANCH   6  20
TORSDOF 7
ENDMDL
MODEL 9
REMARK VINA RESULT:      -7.3      1.733      4.399
REMARK  Name = 
REMARK  10 active torsions:
REMARK  status: ('A' for Active; 'I' for Inactive)
REMARK    1  A    between atoms: C_1  and  N_2
REMARK    2  A    between atoms: C_3  and  O_5
REMARK    3  A    between atoms: O_5  and  C_6
REMARK    4  A    between atoms: C_6  and  C_7
REMARK    5  A    between atoms: C_9  and  C_10
REMARK    6  A    between atoms: N_16  and  C_17
REMARK    7  A    between atoms: C_18  and  C_19
REMARK    8  A    between atoms: C_19  and  O_20
REMARK    9  A    between atoms: O_20  and  C_21
REMARK   10  A    between atoms: N_23  and  C_24
REMARK                            x       y       z     vdW  Elec       q    Type
REMARK                         _______ _______ _______ _____ _____    ______ ____
ROOT
ATOM      1  C   UNL     1       5.113   4.145  16.527  0.00  0.00    +0.000 A 
ATOM      2  N   UNL     1       4.423   3.345  17.406  0.00  0.00    +0.000 NA
ATOM      3  C   UNL     1       3.727   4.142  18.202  0.00  0.00    +0.000 A 
ATOM      4  N   UNL     1       4.015   5.462  17.894  0.00  0.00    +0.000 N 
ATOM      5  C   UNL     1       3.563   6.652  18.577  0.00  0.00    +0.000 C 
ATOM      6  C   UNL     1       4.868   5.476  16.807  0.00  0.00    +0.000 A 
ENDROOT
BRANCH   3   7
ATOM      7  C   UNL     1       2.834   3.648  19.263  0.00  0.00    +0.000 A 
ATOM      8  C   UNL     1       1.449   3.635  19.038  0.00  0.00    +0.000 A 
ATOM      9  C   UNL     1       0.562   3.170  20.015  0.00  0.00    +0.000 A 
ATOM     10  C   UNL     1       1.052   2.707  21.232  0.00  0.00    +0.000 A 
ATOM     11  C   UNL     1       2.420   2.741  21.486  0.00  0.00    +0.000 A 
ATOM     12  C   UNL     1       3.302   3.231  20.518  0.00  0.00    +0.000 A 
ENDBRANCH   3   7
BRANCH   1  13
ATOM     13  C   UNL     1       5.964   3.549  15.451  0.00  0.00    +0.000 C 
BRANCH  13  14
ATOM     14  O   UNL     1       5.481   3.841  14.128  0.00  0.00    +0.000 OA
BRANCH  14  17
ATOM     15  C   UNL     1       8.308   5.623  12.855  0.00  0.00    +0.000 C 
ATOM     16  N   UNL     1       7.214   5.116  13.634  0.00  0.00    +0.000 N 
ATOM     17  C   UNL     1       6.444   4.073  13.211  0.00  0.00    +0.000 C 
ATOM     18  O   UNL     1       6.624   3.445  12.180  0.00  0.00    +0.000 OA
ATOM     19  H   UNL     1       6.932   5.559  14.496  0.00  0.00    +0.000 HD
ENDBRANCH  14  17
ENDBRANCH  13  14
ENDBRANCH   1  13
BRANCH   6  20
ATOM     20  C   UNL     1       5.381   6.704  16.138  0.00  0.00    +0.000 C 
BRANCH  20  21
ATOM     21  O   UNL     1       6.815   6.676  16.187  0.00  0.00    +0.000 OA
BRANCH  21  22
ATOM     22  C   UNL     1       7.353   7.016  17.384  0.00  0.00    +0.000 C 
ATOM     23  O   UNL     1       7.604   8.151  17.758  0.00  0.00    +0.000 OA
ATOM     24  N   UNL     1       7.572   5.884  18.110  0.00  0.00    +0.000 N 
ATOM     25  C   UNL     1       8.082   5.897  19.454  0.00  0.00    +0.000 C 
ATOM     26  H   UNL     1       7.362   5.009  17.652  0.00  0.00    +0.000 HD
ENDBRANCH  21  22
ENDBRANCH  20  21
ENDBRANCH   6  20
TORSDOF 7
ENDMDL
