MODEL 1
REMARK VINA RESULT:      -8.2      0.000      0.000
REMARK  Name = 
REMARK  7 active torsions:
REMARK  status: ('A' for Active; 'I' for Inactive)
REMARK    1  A    between atoms: N_7  and  C_8
REMARK    2  A    between atoms: C_8  and  C_9
REMARK    3  A    between atoms: C_11  and  C_12
REMARK    4  A    between atoms: C_12  and  N_13
REMARK    5  A    between atoms: N_16  and  C_17
REMARK    6  A    between atoms: C_22  and  O_23
REMARK    7  A    between atoms: O_23  and  C_24
REMARK                            x       y       z     vdW  Elec       q    Type
REMARK                         _______ _______ _______ _____ _____    ______ ____
ROOT
ATOM      1  N   UNL     1       1.777   7.800  20.704  0.00  0.00    +0.000 NA
ATOM      2  C   UNL     1       1.989   8.349  19.349  0.00  0.00    +0.000 C 
ATOM      3  C   UNL     1       1.077   9.516  18.880  0.00  0.00    +0.000 C 
ATOM      4  N   UNL     1       0.955  10.540  19.928  0.00  0.00    +0.000 N 
ATOM      5  C   UNL     1       0.520   9.977  21.227  0.00  0.00    +0.000 C 
ATOM      6  C   UNL     1       1.474   8.851  21.681  0.00  0.00    +0.000 C 
ENDROOT
BRANCH   4   7
ATOM      7  C   UNL     1       0.462  11.822  19.632  0.00  0.00    +0.000 A 
ATOM      8  C   UNL     1       1.417  12.864  19.558  0.00  0.00    +0.000 A 
ATOM      9  C   UNL     1       1.080  14.192  19.276  0.00  0.00    +0.000 A 
ATOM     10  C   UNL     1      -0.247  14.537  19.096  0.00  0.00    +0.000 A 
ATOM     11  C   UNL     1      -1.221  13.547  19.165  0.00  0.00    +0.000 A 
ATOM     12  C   UNL     1      -0.877  12.187  19.348  0.00  0.00    +0.000 A 
BRANCH  12  13
ATOM     13  O   UNL     1      -1.878  11.225  19.294  0.00  0.00    +0.000 OA
BRANCH  13  14
ATOM     14  C   UNL     1      -2.582  11.076  18.107  0.00  0.00    +0.000 A 
ATOM     15  C   UNL     1      -3.875  11.579  17.914  0.00  0.00    +0.000 A 
ATOM     16  C   UNL     1      -4.560  11.321  16.723  0.00  0.00    +0.000 A 
ATOM     17  C   UNL     1      -3.938  10.615  15.699  0.00  0.00    +0.000 A 
ATOM     18  C   UNL     1      -2.626  10.161  15.863  0.00  0.00    +0.000 A 
ATOM     19  C   UNL     1      -1.946  10.396  17.073  0.00  0.00    +0.000 A 
ENDBRANCH  13  14
ENDBRANCH  12  13
ENDBRANCH   4   7
BRANCH   1  20
ATOM     20  C   UNL     1       0.911   6.621  20.761  0.00  0.00    +0.000 C 
BRANCH  20  23
ATOM     21  C   UNL     1       3.142   3.852  19.801  0.00  0.00    +0.000 A 
ATOM     22  C   UNL     1       3.039   5.226  20.107  0.00  0.00    +0.000 A 
ATOM     23  C   UNL     1       1.725   5.405  20.471  0.00  0.00    +0.000 A 
ATOM     24  O   UNL     1       1.092   4.201  20.460  0.00  0.00    +0.000 OA
ATOM     25  N   UNL     1       1.982   3.218  20.044  0.00  0.00    +0.000 NA
BRANCH  21  26
ATOM     26  C   UNL     1       4.332   3.127  19.249  0.00  0.00    +0.000 C 
BRANCH  26  33
ATOM     27  O   UNL     1       6.627   4.675  19.474  0.00  0.00    +0.000 OA
ATOM     28  C   UNL     1       6.013   4.711  18.406  0.00  0.00    +0.000 C 
ATOM     29  C   UNL     1       6.437   5.709  17.339  0.00  0.00    +0.000 C 
ATOM     30  C   UNL     1       5.716   5.645  16.002  0.00  0.00    +0.000 C 
ATOM     31  C   UNL     1       5.197   4.253  15.711  0.00  0.00    +0.000 C 
ATOM     32  C   UNL     1       4.284   3.817  16.846  0.00  0.00    +0.000 C 
ATOM     33  N   UNL     1       4.938   3.884  18.146  0.00  0.00    +0.000 N 
ENDBRANCH  26  33
ENDBRANCH  21  26
ENDBRANCH  20  23
ENDBRANCH   1  20
TORSDOF 7
ENDMDL
MODEL 2
REMARK VINA RESULT:      -8.1      2.768     10.163
REMARK  Name = 
REMARK  7 active torsions:
REMARK  status: ('A' for Active; 'I' for Inactive)
REMARK    1  A    between atoms: N_7  and  C_8
REMARK    2  A    between atoms: C_8  and  C_9
REMARK    3  A    between atoms: C_11  and  C_12
REMARK    4  A    between atoms: C_12  and  N_13
REMARK    5  A    between atoms: N_16  and  C_17
REMARK    6  A    between atoms: C_22  and  O_23
REMARK    7  A    between atoms: O_23  and  C_24
REMARK                            x       y       z     vdW  Elec       q    Type
REMARK                         _______ _______ _______ _____ _____    ______ ____
ROOT
ATOM      1  N   UNL     1       1.571   9.004  19.995  0.00  0.00    +0.000 NA
ATOM      2  C   UNL     1       1.615   8.045  21.117  0.00  0.00    +0.000 C 
ATOM      3  C   UNL     1       1.411   6.537  20.802  0.00  0.00    +0.000 C 
ATOM      4  N   UNL     1       2.212   6.133  19.638  0.00  0.00    +0.000 N 
ATOM      5  C   UNL     1       1.972   6.989  18.454  0.00  0.00    +0.000 C 
ATOM      6  C   UNL     1       2.226   8.474  18.795  0.00  0.00    +0.000 C 
ENDROOT
BRANCH   4   7
ATOM      7  C   UNL     1       2.450   4.776  19.361  0.00  0.00    +0.000 A 
ATOM      8  C   UNL     1       1.316   3.928  19.338  0.00  0.00    +0.000 A 
ATOM      9  C   UNL     1       1.392   2.556  19.079  0.00  0.00    +0.000 A 
ATOM     10  C   UNL     1       2.627   1.966  18.872  0.00  0.00    +0.000 A 
ATOM     11  C   UNL     1       3.768   2.759  18.891  0.00  0.00    +0.000 A 
ATOM     12  C   UNL     1       3.688   4.163  19.050  0.00  0.00    +0.000 A 
BRANCH  12  13
ATOM     13  O   UNL     1       4.848   4.920  18.946  0.00  0.00    +0.000 OA
BRANCH  13  14
ATOM     14  C   UNL     1       5.470   5.002  17.707  0.00  0.00    +0.000 A 
ATOM     15  C   UNL     1       4.839   5.510  16.564  0.00  0.00    +0.000 A 
ATOM     16  C   UNL     1       5.495   5.486  15.330  0.00  0.00    +0.000 A 
ATOM     17  C   UNL     1       6.799   5.013  15.241  0.00  0.00    +0.000 A 
ATOM     18  C   UNL     1       7.455   4.559  16.389  0.00  0.00    +0.000 A 
ATOM     19  C   UNL     1       6.785   4.557  17.627  0.00  0.00    +0.000 A 
ENDBRANCH  13  14
ENDBRANCH  12  13
ENDBRANCH   4   7
BRANCH   1  20
ATOM     20  C   UNL     1       0.268   9.633  19.773  0.00  0.00    +0.000 C 
BRANCH  20  23
ATOM     21  C   UNL     1      -0.590  12.283  22.183  0.00  0.00    +0.000 A 
ATOM     22  C   UNL     1      -0.916  11.007  21.674  0.00  0.00    +0.000 A 
ATOM     23  C   UNL     1       0.081  10.729  20.768  0.00  0.00    +0.000 A 
ATOM     24  O   UNL     1       0.993  11.739  20.785  0.00  0.00    +0.000 OA
ATOM     25  N   UNL     1       0.578  12.718  21.679  0.00  0.00    +0.000 NA
BRANCH  21  26
ATOM     26  C   UNL     1      -1.394  13.119  23.132  0.00  0.00    +0.000 C 
BRANCH  26  33
ATOM     27  O   UNL     1      -3.788  11.974  23.950  0.00  0.00    +0.000 OA
ATOM     28  C   UNL     1      -3.814  12.719  22.969  0.00  0.00    +0.000 C 
ATOM     29  C   UNL     1      -5.100  12.844  22.165  0.00  0.00    +0.000 C 
ATOM     30  C   UNL     1      -5.112  13.852  21.026  0.00  0.00    +0.000 C 
ATOM     31  C   UNL     1      -4.147  14.991  21.276  0.00  0.00    +0.000 C 
ATOM     32  C   UNL     1      -2.754  14.423  21.488  0.00  0.00    +0.000 C 
ATOM     33  N   UNL     1      -2.709  13.438  22.560  0.00  0.00    +0.000 N 
ENDBRANCH  26  33
ENDBRANCH  21  26
ENDBRANCH  20  23
ENDBRANCH   1  20
TORSDOF 7
ENDMDL
MODEL 3
REMARK VINA RESULT:      -8.1      2.371      9.963
REMARK  Name = 
REMARK  7 active torsions:
REMARK  status: ('A' for Active; 'I' for Inactive)
REMARK    1  A    between atoms: N_7  and  C_8
REMARK    2  A    between atoms: C_8  and  C_9
REMARK    3  A    between atoms: C_11  and  C_12
REMARK    4  A    between atoms: C_12  and  N_13
REMARK    5  A    between atoms: N_16  and  C_17
REMARK    6  A    between atoms: C_22  and  O_23
REMARK    7  A    between atoms: O_23  and  C_24
REMARK                            x       y       z     vdW  Elec       q    Type
REMARK                         _______ _______ _______ _____ _____    ______ ____
ROOT
ATOM      1  N   UNL     1       1.437   9.537  19.420  0.00  0.00    +0.000 NA
ATOM      2  C   UNL     1       1.395   8.877  20.741  0.00  0.00    +0.000 C 
ATOM      3  C   UNL     1       1.238   7.332  20.783  0.00  0.00    +0.000 C 
ATOM      4  N   UNL     1       2.141   6.686  19.821  0.00  0.00    +0.000 N 
ATOM      5  C   UNL     1       1.994   7.226  18.450  0.00  0.00    +0.000 C 
ATOM      6  C   UNL     1       2.200   8.756  18.440  0.00  0.00    +0.000 C 
ENDROOT
BRANCH   4   7
ATOM      7  C   UNL     1       2.419   5.311  19.900  0.00  0.00    +0.000 A 
ATOM      8  C   UNL     1       1.318   4.459  20.164  0.00  0.00    +0.000 A 
ATOM      9  C   UNL     1       1.436   3.070  20.274  0.00  0.00    +0.000 A 
ATOM     10  C   UNL     1       2.682   2.478  20.163  0.00  0.00    +0.000 A 
ATOM     11  C   UNL     1       3.791   3.276  19.910  0.00  0.00    +0.000 A 
ATOM     12  C   UNL     1       3.664   4.669  19.696  0.00  0.00    +0.000 A 
BRANCH  12  13
ATOM     13  O   UNL     1       4.788   5.401  19.332  0.00  0.00    +0.000 OA
BRANCH  13  14
ATOM     14  C   UNL     1       5.433   5.068  18.149  0.00  0.00    +0.000 A 
ATOM     15  C   UNL     1       6.804   4.788  18.076  0.00  0.00    +0.000 A 
ATOM     16  C   UNL     1       7.406   4.542  16.838  0.00  0.00    +0.000 A 
ATOM     17  C   UNL     1       6.637   4.514  15.681  0.00  0.00    +0.000 A 
ATOM     18  C   UNL     1       5.259   4.735  15.755  0.00  0.00    +0.000 A 
ATOM     19  C   UNL     1       4.656   5.010  16.997  0.00  0.00    +0.000 A 
ENDBRANCH  13  14
ENDBRANCH  12  13
ENDBRANCH   4   7
BRANCH   1  20
ATOM     20  C   UNL     1       0.150  10.051  18.947  0.00  0.00    +0.000 C 
BRANCH  20  23
ATOM     21  C   UNL     1       0.365  13.704  19.370  0.00  0.00    +0.000 A 
ATOM     22  C   UNL     1       0.937  12.450  19.675  0.00  0.00    +0.000 A 
ATOM     23  C   UNL     1       0.187  11.543  18.964  0.00  0.00    +0.000 A 
ATOM     24  O   UNL     1      -0.731  12.213  18.216  0.00  0.00    +0.000 OA
ATOM     25  N   UNL     1      -0.620  13.575  18.464  0.00  0.00    +0.000 NA
BRANCH  21  26
ATOM     26  C   UNL     1       0.724  15.037  19.953  0.00  0.00    +0.000 C 
BRANCH  26  33
ATOM     27  O   UNL     1       2.874  15.433  18.240  0.00  0.00    +0.000 OA
ATOM     28  C   UNL     1       1.947  16.243  18.194  0.00  0.00    +0.000 C 
ATOM     29  C   UNL     1       2.093  17.492  17.336  0.00  0.00    +0.000 C 
ATOM     30  C   UNL     1       0.885  18.408  17.231  0.00  0.00    +0.000 C 
ATOM     31  C   UNL     1      -0.412  17.649  17.420  0.00  0.00    +0.000 C 
ATOM     32  C   UNL     1      -0.380  16.940  18.763  0.00  0.00    +0.000 C 
ATOM     33  N   UNL     1       0.777  16.067  18.907  0.00  0.00    +0.000 N 
ENDBRANCH  26  33
ENDBRANCH  21  26
ENDBRANCH  20  23
ENDBRANCH   1  20
TORSDOF 7
ENDMDL
MODEL 4
REMARK VINA RESULT:      -8.0      3.226      9.909
REMARK  Name = 
REMARK  7 active torsions:
REMARK  status: ('A' for Active; 'I' for Inactive)
REMARK    1  A    between atoms: N_7  and  C_8
REMARK    2  A    between atoms: C_8  and  C_9
REMARK    3  A    between atoms: C_11  and  C_12
REMARK    4  A    between atoms: C_12  and  N_13
REMARK    5  A    between atoms: N_16  and  C_17
REMARK    6  A    between atoms: C_22  and  O_23
REMARK    7  A    between atoms: O_23  and  C_24
REMARK                            x       y       z     vdW  Elec       q    Type
REMARK                         _______ _______ _______ _____ _____    ______ ____
ROOT
ATOM      1  N   UNL     1       1.024   8.981  19.779  0.00  0.00    +0.000 NA
ATOM      2  C   UNL     1       1.269   9.115  18.329  0.00  0.00    +0.000 C 
ATOM      3  C   UNL     1       2.574   8.505  17.746  0.00  0.00    +0.000 C 
ATOM      4  N   UNL     1       2.797   7.150  18.268  0.00  0.00    +0.000 N 
ATOM      5  C   UNL     1       2.766   7.095  19.747  0.00  0.00    +0.000 C 
ATOM      6  C   UNL     1       1.437   7.669  20.286  0.00  0.00    +0.000 C 
ENDROOT
BRANCH   4   7
ATOM      7  C   UNL     1       3.714   6.280  17.653  0.00  0.00    +0.000 A 
ATOM      8  C   UNL     1       4.984   6.822  17.337  0.00  0.00    +0.000 A 
ATOM      9  C   UNL     1       5.999   6.082  16.722  0.00  0.00    +0.000 A 
ATOM     10  C   UNL     1       5.764   4.768  16.358  0.00  0.00    +0.000 A 
ATOM     11  C   UNL     1       4.530   4.197  16.643  0.00  0.00    +0.000 A 
ATOM     12  C   UNL     1       3.535   4.907  17.357  0.00  0.00    +0.000 A 
BRANCH  12  13
ATOM     13  O   UNL     1       2.365   4.250  17.716  0.00  0.00    +0.000 OA
BRANCH  13  14
ATOM     14  C   UNL     1       2.287   3.696  18.986  0.00  0.00    +0.000 A 
ATOM     15  C   UNL     1       1.131   3.745  19.775  0.00  0.00    +0.000 A 
ATOM     16  C   UNL     1       1.146   3.240  21.079  0.00  0.00    +0.000 A 
ATOM     17  C   UNL     1       2.292   2.632  21.578  0.00  0.00    +0.000 A 
ATOM     18  C   UNL     1       3.432   2.527  20.775  0.00  0.00    +0.000 A 
ATOM     19  C   UNL     1       3.425   3.060  19.472  0.00  0.00    +0.000 A 
ENDBRANCH  13  14
ENDBRANCH  12  13
ENDBRANCH   4   7
BRANCH   1  20
ATOM     20  C   UNL     1       1.449  10.128  20.583  0.00  0.00    +0.000 C 
BRANCH  20  23
ATOM     21  C   UNL     1      -1.478  11.666  22.205  0.00  0.00    +0.000 A 
ATOM     22  C   UNL     1      -0.871  11.294  20.987  0.00  0.00    +0.000 A 
ATOM     23  C   UNL     1       0.280  10.639  21.358  0.00  0.00    +0.000 A 
ATOM     24  O   UNL     1       0.327  10.554  22.715  0.00  0.00    +0.000 OA
ATOM     25  N   UNL     1      -0.782  11.194  23.254  0.00  0.00    +0.000 NA
BRANCH  21  26
ATOM     26  C   UNL     1      -2.711  12.497  22.394  0.00  0.00    +0.000 C 
BRANCH  26  33
ATOM     27  O   UNL     1      -4.042  12.859  24.805  0.00  0.00    +0.000 OA
ATOM     28  C   UNL     1      -3.263  13.742  24.441  0.00  0.00    +0.000 C 
ATOM     29  C   UNL     1      -3.192  15.041  25.231  0.00  0.00    +0.000 C 
ATOM     30  C   UNL     1      -2.145  16.057  24.804  0.00  0.00    +0.000 C 
ATOM     31  C   UNL     1      -0.955  15.392  24.146  0.00  0.00    +0.000 C 
ATOM     32  C   UNL     1      -1.437  14.574  22.959  0.00  0.00    +0.000 C 
ATOM     33  N   UNL     1      -2.457  13.602  23.329  0.00  0.00    +0.000 N 
ENDBRANCH  26  33
ENDBRANCH  21  26
ENDBRANCH  20  23
ENDBRANCH   1  20
TORSDOF 7
ENDMDL
MODEL 5
REMARK VINA RESULT:      -8.0      3.023      9.495
REMARK  Name = 
REMARK  7 active torsions:
REMARK  status: ('A' for Active; 'I' for Inactive)
REMARK    1  A    between atoms: N_7  and  C_8
REMARK    2  A    between atoms: C_8  and  C_9
REMARK    3  A    between atoms: C_11  and  C_12
REMARK    4  A    between atoms: C_12  and  N_13
REMARK    5  A    between atoms: N_16  and  C_17
REMARK    6  A    between atoms: C_22  and  O_23
REMARK    7  A    between atoms: O_23  and  C_24
REMARK                            x       y       z     vdW  Elec       q    Type
REMARK                         _______ _______ _______ _____ _____    ______ ____
ROOT
ATOM      1  N   UNL     1       1.142   8.816  19.610  0.00  0.00    +0.000 NA
ATOM      2  C   UNL     1       1.378   8.913  18.155  0.00  0.00    +0.000 C 
ATOM      3  C   UNL     1       2.697   8.322  17.586  0.00  0.00    +0.000 C 
ATOM      4  N   UNL     1       2.960   6.989  18.146  0.00  0.00    +0.000 N 
ATOM      5  C   UNL     1       2.935   6.978  19.627  0.00  0.00    +0.000 C 
ATOM      6  C   UNL     1       1.593   7.532  20.155  0.00  0.00    +0.000 C 
ENDROOT
BRANCH   4   7
ATOM      7  C   UNL     1       3.898   6.127  17.554  0.00  0.00    +0.000 A 
ATOM      8  C   UNL     1       5.180   6.671  17.295  0.00  0.00    +0.000 A 
ATOM      9  C   UNL     1       6.217   5.939  16.708  0.00  0.00    +0.000 A 
ATOM     10  C   UNL     1       5.994   4.631  16.315  0.00  0.00    +0.000 A 
ATOM     11  C   UNL     1       4.748   4.058  16.543  0.00  0.00    +0.000 A 
ATOM     12  C   UNL     1       3.728   4.759  17.229  0.00  0.00    +0.000 A 
BRANCH  12  13
ATOM     13  O   UNL     1       2.544   4.100  17.534  0.00  0.00    +0.000 OA
BRANCH  13  14
ATOM     14  C   UNL     1       2.373   3.620  18.825  0.00  0.00    +0.000 A 
ATOM     15  C   UNL     1       1.161   3.710  19.522  0.00  0.00    +0.000 A 
ATOM     16  C   UNL     1       1.081   3.283  20.851  0.00  0.00    +0.000 A 
ATOM     17  C   UNL     1       2.187   2.710  21.468  0.00  0.00    +0.000 A 
ATOM     18  C   UNL     1       3.382   2.563  20.758  0.00  0.00    +0.000 A 
ATOM     19  C   UNL     1       3.472   3.019  19.429  0.00  0.00    +0.000 A 
ENDBRANCH  13  14
ENDBRANCH  12  13
ENDBRANCH   4   7
BRANCH   1  20
ATOM     20  C   UNL     1       1.539   9.997  20.378  0.00  0.00    +0.000 C 
BRANCH  20  23
ATOM     21  C   UNL     1      -1.045  10.952  22.824  0.00  0.00    +0.000 A 
ATOM     22  C   UNL     1      -0.658  10.942  21.467  0.00  0.00    +0.000 A 
ATOM     23  C   UNL     1       0.527  10.245  21.447  0.00  0.00    +0.000 A 
ATOM     24  O   UNL     1       0.801   9.796  22.702  0.00  0.00    +0.000 OA
ATOM     25  N   UNL     1      -0.189  10.233  23.573  0.00  0.00    +0.000 NA
BRANCH  21  26
ATOM     26  C   UNL     1      -2.213  11.665  23.436  0.00  0.00    +0.000 C 
BRANCH  26  33
ATOM     27  O   UNL     1      -0.843  14.065  23.713  0.00  0.00    +0.000 OA
ATOM     28  C   UNL     1      -1.847  14.057  22.998  0.00  0.00    +0.000 C 
ATOM     29  C   UNL     1      -2.376  15.371  22.444  0.00  0.00    +0.000 C 
ATOM     30  C   UNL     1      -3.555  15.298  21.487  0.00  0.00    +0.000 C 
ATOM     31  C   UNL     1      -3.588  13.982  20.740  0.00  0.00    +0.000 C 
ATOM     32  C   UNL     1      -3.629  12.842  21.744  0.00  0.00    +0.000 C 
ATOM     33  N   UNL     1      -2.523  12.892  22.691  0.00  0.00    +0.000 N 
ENDBRANCH  26  33
ENDBRANCH  21  26
ENDBRANCH  20  23
ENDBRANCH   1  20
TORSDOF 7
ENDMDL
MODEL 6
REMARK VINA RESULT:      -8.0      2.395      9.360
REMARK  Name = 
REMARK  7 active torsions:
REMARK  status: ('A' for Active; 'I' for Inactive)
REMARK    1  A    between atoms: N_7  and  C_8
REMARK    2  A    between atoms: C_8  and  C_9
REMARK    3  A    between atoms: C_11  and  C_12
REMARK    4  A    between atoms: C_12  and  N_13
REMARK    5  A    between atoms: N_16  and  C_17
REMARK    6  A    between atoms: C_22  and  O_23
REMARK    7  A    between atoms: O_23  and  C_24
REMARK                            x       y       z     vdW  Elec       q    Type
REMARK                         _______ _______ _______ _____ _____    ______ ____
ROOT
ATOM      1  N   UNL     1       1.448   9.513  19.482  0.00  0.00    +0.000 NA
ATOM      2  C   UNL     1       1.408   8.826  20.789  0.00  0.00    +0.000 C 
ATOM      3  C   UNL     1       1.243   7.281  20.800  0.00  0.00    +0.000 C 
ATOM      4  N   UNL     1       2.138   6.651  19.820  0.00  0.00    +0.000 N 
ATOM      5  C   UNL     1       1.987   7.220  18.461  0.00  0.00    +0.000 C 
ATOM      6  C   UNL     1       2.202   8.750  18.483  0.00  0.00    +0.000 C 
ENDROOT
BRANCH   4   7
ATOM      7  C   UNL     1       2.408   5.273  19.868  0.00  0.00    +0.000 A 
ATOM      8  C   UNL     1       1.299   4.420  20.087  0.00  0.00    +0.000 A 
ATOM      9  C   UNL     1       1.409   3.027  20.162  0.00  0.00    +0.000 A 
ATOM     10  C   UNL     1       2.654   2.433  20.062  0.00  0.00    +0.000 A 
ATOM     11  C   UNL     1       3.772   3.232  19.853  0.00  0.00    +0.000 A 
ATOM     12  C   UNL     1       3.655   4.631  19.673  0.00  0.00    +0.000 A 
BRANCH  12  13
ATOM     13  O   UNL     1       4.789   5.367  19.351  0.00  0.00    +0.000 OA
BRANCH  13  14
ATOM     14  C   UNL     1       5.396   5.135  18.125  0.00  0.00    +0.000 A 
ATOM     15  C   UNL     1       4.700   5.148  16.909  0.00  0.00    +0.000 A 
ATOM     16  C   UNL     1       5.357   4.824  15.719  0.00  0.00    +0.000 A 
ATOM     17  C   UNL     1       6.719   4.545  15.727  0.00  0.00    +0.000 A 
ATOM     18  C   UNL     1       7.432   4.588  16.929  0.00  0.00    +0.000 A 
ATOM     19  C   UNL     1       6.765   4.887  18.132  0.00  0.00    +0.000 A 
ENDBRANCH  13  14
ENDBRANCH  12  13
ENDBRANCH   4   7
BRANCH   1  20
ATOM     20  C   UNL     1       0.162  10.045  19.027  0.00  0.00    +0.000 C 
BRANCH  20  23
ATOM     21  C   UNL     1       0.637  13.697  18.962  0.00  0.00    +0.000 A 
ATOM     22  C   UNL     1       1.185  12.447  19.321  0.00  0.00    +0.000 A 
ATOM     23  C   UNL     1       0.279  11.523  18.856  0.00  0.00    +0.000 A 
ATOM     24  O   UNL     1      -0.716  12.169  18.191  0.00  0.00    +0.000 OA
ATOM     25  N   UNL     1      -0.493  13.539  18.250  0.00  0.00    +0.000 NA
BRANCH  21  26
ATOM     26  C   UNL     1       1.159  15.057  19.313  0.00  0.00    +0.000 C 
BRANCH  26  33
ATOM     27  O   UNL     1       2.880  14.893  21.487  0.00  0.00    +0.000 OA
ATOM     28  C   UNL     1       3.373  15.121  20.380  0.00  0.00    +0.000 C 
ATOM     29  C   UNL     1       4.853  15.461  20.282  0.00  0.00    +0.000 C 
ATOM     30  C   UNL     1       5.435  15.632  18.888  0.00  0.00    +0.000 C 
ATOM     31  C   UNL     1       4.675  14.822  17.860  0.00  0.00    +0.000 C 
ATOM     32  C   UNL     1       3.211  15.227  17.893  0.00  0.00    +0.000 C 
ATOM     33  N   UNL     1       2.624  15.093  19.220  0.00  0.00    +0.000 N 
ENDBRANCH  26  33
ENDBRANCH  21  26
ENDBRANCH  20  23
ENDBRANCH   1  20
TORSDOF 7
ENDMDL
MODEL 7
REMARK VINA RESULT:      -7.9      2.646     10.241
REMARK  Name = 
REMARK  7 active torsions:
REMARK  status: ('A' for Active; 'I' for Inactive)
REMARK    1  A    between atoms: N_7  and  C_8
REMARK    2  A    between atoms: C_8  and  C_9
REMARK    3  A    between atoms: C_11  and  C_12
REMARK    4  A    between atoms: C_12  and  N_13
REMARK    5  A    between atoms: N_16  and  C_17
REMARK    6  A    between atoms: C_22  and  O_23
REMARK    7  A    between atoms: O_23  and  C_24
REMARK                            x       y       z     vdW  Elec       q    Type
REMARK                         _______ _______ _______ _____ _____    ______ ____
ROOT
ATOM      1  N   UNL     1       1.346   9.629  19.145  0.00  0.00    +0.000 NA
ATOM      2  C   UNL     1       1.286   9.036  20.497  0.00  0.00    +0.000 C 
ATOM      3  C   UNL     1       1.222   7.488  20.616  0.00  0.00    +0.000 C 
ATOM      4  N   UNL     1       2.205   6.853  19.727  0.00  0.00    +0.000 N 
ATOM      5  C   UNL     1       2.086   7.311  18.324  0.00  0.00    +0.000 C 
ATOM      6  C   UNL     1       2.197   8.850  18.241  0.00  0.00    +0.000 C 
ENDROOT
BRANCH   4   7
ATOM      7  C   UNL     1       2.562   5.504  19.891  0.00  0.00    +0.000 A 
ATOM      8  C   UNL     1       1.525   4.618  20.273  0.00  0.00    +0.000 A 
ATOM      9  C   UNL     1       1.726   3.249  20.476  0.00  0.00    +0.000 A 
ATOM     10  C   UNL     1       2.996   2.716  20.345  0.00  0.00    +0.000 A 
ATOM     11  C   UNL     1       4.046   3.550  19.978  0.00  0.00    +0.000 A 
ATOM     12  C   UNL     1       3.831   4.914  19.670  0.00  0.00    +0.000 A 
BRANCH  12  13
ATOM     13  O   UNL     1       4.893   5.675  19.197  0.00  0.00    +0.000 OA
BRANCH  13  14
ATOM     14  C   UNL     1       5.530   5.261  18.035  0.00  0.00    +0.000 A 
ATOM     15  C   UNL     1       6.874   4.867  17.995  0.00  0.00    +0.000 A 
ATOM     16  C   UNL     1       7.476   4.543  16.777  0.00  0.00    +0.000 A 
ATOM     17  C   UNL     1       6.729   4.551  15.605  0.00  0.00    +0.000 A 
ATOM     18  C   UNL     1       5.372   4.886  15.646  0.00  0.00    +0.000 A 
ATOM     19  C   UNL     1       4.772   5.240  16.869  0.00  0.00    +0.000 A 
ENDBRANCH  13  14
ENDBRANCH  12  13
ENDBRANCH   4   7
BRANCH   1  20
ATOM     20  C   UNL     1       0.052  10.036  18.594  0.00  0.00    +0.000 C 
BRANCH  20  23
ATOM     21  C   UNL     1      -1.495  12.959  20.216  0.00  0.00    +0.000 A 
ATOM     22  C   UNL     1      -1.680  11.641  19.746  0.00  0.00    +0.000 A 
ATOM     23  C   UNL     1      -0.432  11.242  19.328  0.00  0.00    +0.000 A 
ATOM     24  O   UNL     1       0.465  12.227  19.599  0.00  0.00    +0.000 OA
ATOM     25  N   UNL     1      -0.198  13.309  20.164  0.00  0.00    +0.000 NA
BRANCH  21  26
ATOM     26  C   UNL     1      -2.546  13.913  20.695  0.00  0.00    +0.000 C 
BRANCH  26  33
ATOM     27  O   UNL     1      -4.112  12.338  22.362  0.00  0.00    +0.000 OA
ATOM     28  C   UNL     1      -3.453  13.243  22.879  0.00  0.00    +0.000 C 
ATOM     29  C   UNL     1      -3.652  13.556  24.355  0.00  0.00    +0.000 C 
ATOM     30  C   UNL     1      -2.745  14.610  24.970  0.00  0.00    +0.000 C 
ATOM     31  C   UNL     1      -1.415  14.693  24.250  0.00  0.00    +0.000 C 
ATOM     32  C   UNL     1      -1.664  14.978  22.779  0.00  0.00    +0.000 C 
ATOM     33  N   UNL     1      -2.546  13.997  22.161  0.00  0.00    +0.000 N 
ENDBRANCH  26  33
ENDBRANCH  21  26
ENDBRANCH  20  23
ENDBRANCH   1  20
TORSDOF 7
ENDMDL
MODEL 8
REMARK VINA RESULT:      -7.9      3.314     10.014
REMARK  Name = 
REMARK  7 active torsions:
REMARK  status: ('A' for Active; 'I' for Inactive)
REMARK    1  A    between atoms: N_7  and  C_8
REMARK    2  A    between atoms: C_8  and  C_9
REMARK    3  A    between atoms: C_11  and  C_12
REMARK    4  A    between atoms: C_12  and  N_13
REMARK    5  A    between atoms: N_16  and  C_17
REMARK    6  A    between atoms: C_22  and  O_23
REMARK    7  A    between atoms: O_23  and  C_24
REMARK                            x       y       z     vdW  Elec       q    Type
REMARK                         _______ _______ _______ _____ _____    ______ ____
ROOT
ATOM      1  N   UNL     1       0.532  10.010  19.868  0.00  0.00    +0.000 NA
ATOM      2  C   UNL     1       0.788  10.031  18.414  0.00  0.00    +0.000 C 
ATOM      3  C   UNL     1       2.038   9.279  17.879  0.00  0.00    +0.000 C 
ATOM      4  N   UNL     1       2.147   7.945  18.486  0.00  0.00    +0.000 N 
ATOM      5  C   UNL     1       2.110   7.987  19.966  0.00  0.00    +0.000 C 
ATOM      6  C   UNL     1       0.834   8.703  20.460  0.00  0.00    +0.000 C 
ENDROOT
BRANCH   4   7
ATOM      7  C   UNL     1       2.988   6.965  17.933  0.00  0.00    +0.000 A 
ATOM      8  C   UNL     1       4.257   7.404  17.483  0.00  0.00    +0.000 A 
ATOM      9  C   UNL     1       5.202   6.548  16.908  0.00  0.00    +0.000 A 
ATOM     10  C   UNL     1       4.893   5.212  16.721  0.00  0.00    +0.000 A 
ATOM     11  C   UNL     1       3.655   4.739  17.143  0.00  0.00    +0.000 A 
ATOM     12  C   UNL     1       2.736   5.576  17.818  0.00  0.00    +0.000 A 
BRANCH  12  13
ATOM     13  O   UNL     1       1.564   5.025  18.320  0.00  0.00    +0.000 OA
BRANCH  13  14
ATOM     14  C   UNL     1       1.659   4.136  19.382  0.00  0.00    +0.000 A 
ATOM     15  C   UNL     1       1.278   2.791  19.294  0.00  0.00    +0.000 A 
ATOM     16  C   UNL     1       1.321   1.972  20.426  0.00  0.00    +0.000 A 
ATOM     17  C   UNL     1       1.800   2.471  21.631  0.00  0.00    +0.000 A 
ATOM     18  C   UNL     1       2.237   3.796  21.712  0.00  0.00    +0.000 A 
ATOM     19  C   UNL     1       2.168   4.630  20.580  0.00  0.00    +0.000 A 
ENDBRANCH  13  14
ENDBRANCH  12  13
ENDBRANCH   4   7
BRANCH   1  20
ATOM     20  C   UNL     1       1.051  11.166  20.601  0.00  0.00    +0.000 C 
BRANCH  20  23
ATOM     21  C   UNL     1      -1.685  13.073  22.165  0.00  0.00    +0.000 A 
ATOM     22  C   UNL     1      -1.052  12.699  20.960  0.00  0.00    +0.000 A 
ATOM     23  C   UNL     1      -0.070  11.816  21.342  0.00  0.00    +0.000 A 
ATOM     24  O   UNL     1      -0.153  11.610  22.684  0.00  0.00    +0.000 OA
ATOM     25  N   UNL     1      -1.173  12.395  23.207  0.00  0.00    +0.000 NA
BRANCH  21  26
ATOM     26  C   UNL     1      -2.763  14.098  22.350  0.00  0.00    +0.000 C 
BRANCH  26  33
ATOM     27  O   UNL     1      -4.831  13.146  20.760  0.00  0.00    +0.000 OA
ATOM     28  C   UNL     1      -5.000  13.147  21.981  0.00  0.00    +0.000 C 
ATOM     29  C   UNL     1      -6.369  12.789  22.542  0.00  0.00    +0.000 C 
ATOM     30  C   UNL     1      -6.499  12.705  24.055  0.00  0.00    +0.000 C 
ATOM     31  C   UNL     1      -5.185  12.337  24.710  0.00  0.00    +0.000 C 
ATOM     32  C   UNL     1      -4.129  13.354  24.309  0.00  0.00    +0.000 C 
ATOM     33  N   UNL     1      -3.991  13.475  22.864  0.00  0.00    +0.000 N 
ENDBRANCH  26  33
ENDBRANCH  21  26
ENDBRANCH  20  23
ENDBRANCH   1  20
TORSDOF 7
ENDMDL
MODEL 9
REMARK VINA RESULT:      -7.9      2.424      9.813
REMARK  Name = 
REMARK  7 active torsions:
REMARK  status: ('A' for Active; 'I' for Inactive)
REMARK    1  A    between atoms: N_7  and  C_8
REMARK    2  A    between atoms: C_8  and  C_9
REMARK    3  A    between atoms: C_11  and  C_12
REMARK    4  A    between atoms: C_12  and  N_13
REMARK    5  A    between atoms: N_16  and  C_17
REMARK    6  A    between atoms: C_22  and  O_23
REMARK    7  A    between atoms: O_23  and  C_24
REMARK                            x       y       z     vdW  Elec       q    Type
REMARK                         _______ _______ _______ _____ _____    ______ ____
ROOT
ATOM      1  N   UNL     1       1.694   9.381  19.200  0.00  0.00    +0.000 NA
ATOM      2  C   UNL     1       1.614   8.808  20.558  0.00  0.00    +0.000 C 
ATOM      3  C   UNL     1       1.331   7.286  20.696  0.00  0.00    +0.000 C 
ATOM      4  N   UNL     1       2.166   6.511  19.768  0.00  0.00    +0.000 N 
ATOM      5  C   UNL     1       2.046   6.978  18.367  0.00  0.00    +0.000 C 
ATOM      6  C   UNL     1       2.377   8.483  18.264  0.00  0.00    +0.000 C 
ENDROOT
BRANCH   4   7
ATOM      7  C   UNL     1       2.329   5.125  19.928  0.00  0.00    +0.000 A 
ATOM      8  C   UNL     1       1.152   4.373  20.162  0.00  0.00    +0.000 A 
ATOM      9  C   UNL     1       1.154   2.986  20.343  0.00  0.00    +0.000 A 
ATOM     10  C   UNL     1       2.354   2.297  20.339  0.00  0.00    +0.000 A 
ATOM     11  C   UNL     1       3.536   2.995  20.118  0.00  0.00    +0.000 A 
ATOM     12  C   UNL     1       3.531   4.381  19.832  0.00  0.00    +0.000 A 
BRANCH  12  13
ATOM     13  O   UNL     1       4.727   5.007  19.505  0.00  0.00    +0.000 OA
BRANCH  13  14
ATOM     14  C   UNL     1       5.249   4.803  18.235  0.00  0.00    +0.000 A 
ATOM     15  C   UNL     1       4.453   4.551  17.110  0.00  0.00    +0.000 A 
ATOM     16  C   UNL     1       5.047   4.272  15.876  0.00  0.00    +0.000 A 
ATOM     17  C   UNL     1       6.431   4.302  15.745  0.00  0.00    +0.000 A 
ATOM     18  C   UNL     1       7.229   4.611  16.850  0.00  0.00    +0.000 A 
ATOM     19  C   UNL     1       6.632   4.865  18.100  0.00  0.00    +0.000 A 
ENDBRANCH  13  14
ENDBRANCH  12  13
ENDBRANCH   4   7
BRANCH   1  20
ATOM     20  C   UNL     1       0.449   9.972  18.707  0.00  0.00    +0.000 C 
BRANCH  20  23
ATOM     21  C   UNL     1       0.579  13.416  20.006  0.00  0.00    +0.000 A 
ATOM     22  C   UNL     1       1.208  12.437  19.208  0.00  0.00    +0.000 A 
ATOM     23  C   UNL     1       0.339  11.371  19.215  0.00  0.00    +0.000 A 
ATOM     24  O   UNL     1      -0.779  11.712  19.910  0.00  0.00    +0.000 OA
ATOM     25  N   UNL     1      -0.636  13.002  20.406  0.00  0.00    +0.000 NA
BRANCH  21  26
ATOM     26  C   UNL     1       1.130  14.745  20.425  0.00  0.00    +0.000 C 
BRANCH  26  33
ATOM     27  O   UNL     1       3.126  15.342  18.588  0.00  0.00    +0.000 OA
ATOM     28  C   UNL     1       2.100  16.025  18.562  0.00  0.00    +0.000 C 
ATOM     29  C   UNL     1       2.041  17.245  17.655  0.00  0.00    +0.000 C 
ATOM     30  C   UNL     1       0.719  17.993  17.582  0.00  0.00    +0.000 C 
ATOM     31  C   UNL     1      -0.456  17.083  17.866  0.00  0.00    +0.000 C 
ATOM     32  C   UNL     1      -0.268  16.439  19.229  0.00  0.00    +0.000 C 
ATOM     33  N   UNL     1       0.999  15.729  19.342  0.00  0.00    +0.000 N 
ENDBRANCH  26  33
ENDBRANCH  21  26
ENDBRANCH  20  23
ENDBRANCH   1  20
TORSDOF 7
ENDMDL
