MODEL 1
REMARK VINA RESULT:      -7.4      0.000      0.000
REMARK  Name = 
REMARK  2 active torsions:
REMARK  status: ('A' for Active; 'I' for Inactive)
REMARK    1  A    between atoms: C_8  and  C_10
REMARK    2  A    between atoms: C_11  and  C_12
REMARK                            x       y       z     vdW  Elec       q    Type
REMARK                         _______ _______ _______ _____ _____    ______ ____
ROOT
ATOM      1  O   UNL     1       6.555   4.595  18.853  0.00  0.00    +0.000 OA
ATOM      2  C   UNL     1       6.939   5.679  18.421  0.00  0.00    +0.000 C 
ATOM      3  C   UNL     1       8.091   6.310  19.127  0.00  0.00    +0.000 C 
ATOM      4  C   UNL     1       8.513   7.549  18.851  0.00  0.00    +0.000 C 
ATOM      5  C   UNL     1       7.893   8.347  17.755  0.00  0.00    +0.000 C 
ATOM      6  C   UNL     1       7.236   7.425  16.733  0.00  0.00    +0.000 C 
ATOM      7  N   UNL     1       6.401   6.384  17.338  0.00  0.00    +0.000 N 
ATOM      8  C   UNL     1       5.292   5.993  16.571  0.00  0.00    +0.000 C 
ATOM      9  O   UNL     1       5.094   6.426  15.433  0.00  0.00    +0.000 OA
ENDROOT
BRANCH   8  10
ATOM     10  C   UNL     1       4.328   5.018  17.155  0.00  0.00    +0.000 C 
ATOM     11  C   UNL     1       3.366   5.432  17.998  0.00  0.00    +0.000 C 
BRANCH  11  12
ATOM     12  C   UNL     1       2.385   4.476  18.527  0.00  0.00    +0.000 A 
ATOM     13  C   UNL     1       2.213   3.267  17.835  0.00  0.00    +0.000 A 
ATOM     14  C   UNL     1       1.343   2.287  18.320  0.00  0.00    +0.000 A 
ATOM     15  C   UNL     1       0.637   2.504  19.501  0.00  0.00    +0.000 A 
ATOM     16  C   UNL     1       0.792   3.706  20.193  0.00  0.00    +0.000 A 
ATOM     17  C   UNL     1       1.660   4.690  19.710  0.00  0.00    +0.000 A 
ATOM     18 CL   UNL     1       1.806   6.156  20.616  0.00  0.00    +0.000 Cl
ENDBRANCH  11  12
ENDBRANCH   8  10
TORSDOF 2
ENDMDL
MODEL 2
REMARK VINA RESULT:      -6.9      3.819      5.128
REMARK  Name = 
REMARK  2 active torsions:
REMARK  status: ('A' for Active; 'I' for Inactive)
REMARK    1  A    between atoms: C_8  and  C_10
REMARK    2  A    between atoms: C_11  and  C_12
REMARK                            x       y       z     vdW  Elec       q    Type
REMARK                         _______ _______ _______ _____ _____    ______ ____
ROOT
ATOM      1  O   UNL     1       1.721   7.631  21.054  0.00  0.00    +0.000 OA
ATOM      2  C   UNL     1       1.211   8.550  20.419  0.00  0.00    +0.000 C 
ATOM      3  C   UNL     1       0.231   9.405  21.150  0.00  0.00    +0.000 C 
ATOM      4  C   UNL     1      -0.500  10.344  20.541  0.00  0.00    +0.000 C 
ATOM      5  C   UNL     1      -0.317  10.642  19.092  0.00  0.00    +0.000 C 
ATOM      6  C   UNL     1       1.075  10.218  18.634  0.00  0.00    +0.000 C 
ATOM      7  N   UNL     1       1.451   8.874  19.078  0.00  0.00    +0.000 N 
ATOM      8  C   UNL     1       2.296   8.175  18.202  0.00  0.00    +0.000 C 
ATOM      9  O   UNL     1       2.761   8.693  17.184  0.00  0.00    +0.000 OA
ENDROOT
BRANCH   8  10
ATOM     10  C   UNL     1       2.641   6.760  18.520  0.00  0.00    +0.000 C 
ATOM     11  C   UNL     1       1.974   5.748  17.940  0.00  0.00    +0.000 C 
BRANCH  11  12
ATOM     12  C   UNL     1       2.355   4.357  18.216  0.00  0.00    +0.000 A 
ATOM     13  C   UNL     1       3.226   3.728  17.313  0.00  0.00    +0.000 A 
ATOM     14  C   UNL     1       3.679   2.428  17.549  0.00  0.00    +0.000 A 
ATOM     15  C   UNL     1       3.268   1.743  18.690  0.00  0.00    +0.000 A 
ATOM     16  C   UNL     1       2.394   2.353  19.591  0.00  0.00    +0.000 A 
ATOM     17  C   UNL     1       1.937   3.654  19.356  0.00  0.00    +0.000 A 
ATOM     18 CL   UNL     1       0.856   4.352  20.512  0.00  0.00    +0.000 Cl
ENDBRANCH  11  12
ENDBRANCH   8  10
TORSDOF 2
ENDMDL
MODEL 3
REMARK VINA RESULT:      -6.9      4.524      5.972
REMARK  Name = 
REMARK  2 active torsions:
REMARK  status: ('A' for Active; 'I' for Inactive)
REMARK    1  A    between atoms: C_8  and  C_10
REMARK    2  A    between atoms: C_11  and  C_12
REMARK                            x       y       z     vdW  Elec       q    Type
REMARK                         _______ _______ _______ _____ _____    ______ ____
ROOT
ATOM      1  O   UNL     1       1.434   7.766  20.880  0.00  0.00    +0.000 OA
ATOM      2  C   UNL     1       0.968   8.896  20.761  0.00  0.00    +0.000 C 
ATOM      3  C   UNL     1       0.219   9.437  21.932  0.00  0.00    +0.000 C 
ATOM      4  C   UNL     1      -0.457  10.590  21.883  0.00  0.00    +0.000 C 
ATOM      5  C   UNL     1      -0.436  11.444  20.661  0.00  0.00    +0.000 C 
ATOM      6  C   UNL     1       0.812  11.154  19.833  0.00  0.00    +0.000 C 
ATOM      7  N   UNL     1       1.064   9.725  19.637  0.00  0.00    +0.000 N 
ATOM      8  C   UNL     1       1.680   9.392  18.420  0.00  0.00    +0.000 C 
ATOM      9  O   UNL     1       2.066  10.251  17.623  0.00  0.00    +0.000 OA
ENDROOT
BRANCH   8  10
ATOM     10  C   UNL     1       1.875   7.952  18.088  0.00  0.00    +0.000 C 
ATOM     11  C   UNL     1       3.111   7.433  18.001  0.00  0.00    +0.000 C 
BRANCH  11  12
ATOM     12  C   UNL     1       3.295   6.002  17.728  0.00  0.00    +0.000 A 
ATOM     13  C   UNL     1       2.291   5.122  18.158  0.00  0.00    +0.000 A 
ATOM     14  C   UNL     1       2.372   3.756  17.875  0.00  0.00    +0.000 A 
ATOM     15  C   UNL     1       3.457   3.257  17.157  0.00  0.00    +0.000 A 
ATOM     16  C   UNL     1       4.467   4.121  16.732  0.00  0.00    +0.000 A 
ATOM     17  C   UNL     1       4.390   5.488  17.016  0.00  0.00    +0.000 A 
ATOM     18 CL   UNL     1       5.675   6.504  16.460  0.00  0.00    +0.000 Cl
ENDBRANCH  11  12
ENDBRANCH   8  10
TORSDOF 2
ENDMDL
MODEL 4
REMARK VINA RESULT:      -6.8      4.083      5.399
REMARK  Name = 
REMARK  2 active torsions:
REMARK  status: ('A' for Active; 'I' for Inactive)
REMARK    1  A    between atoms: C_8  and  C_10
REMARK    2  A    between atoms: C_11  and  C_12
REMARK                            x       y       z     vdW  Elec       q    Type
REMARK                         _______ _______ _______ _____ _____    ______ ____
ROOT
ATOM      1  O   UNL     1       1.561   7.764  21.164  0.00  0.00    +0.000 OA
ATOM      2  C   UNL     1       1.100   8.705  20.524  0.00  0.00    +0.000 C 
ATOM      3  C   UNL     1       0.160   9.609  21.247  0.00  0.00    +0.000 C 
ATOM      4  C   UNL     1      -0.521  10.582  20.631  0.00  0.00    +0.000 C 
ATOM      5  C   UNL     1      -0.315  10.866  19.182  0.00  0.00    +0.000 C 
ATOM      6  C   UNL     1       1.056  10.371  18.733  0.00  0.00    +0.000 C 
ATOM      7  N   UNL     1       1.363   9.012  19.183  0.00  0.00    +0.000 N 
ATOM      8  C   UNL     1       2.176   8.268  18.314  0.00  0.00    +0.000 C 
ATOM      9  O   UNL     1       2.671   8.759  17.297  0.00  0.00    +0.000 OA
ENDROOT
BRANCH   8  10
ATOM     10  C   UNL     1       2.449   6.839  18.638  0.00  0.00    +0.000 C 
ATOM     11  C   UNL     1       1.992   5.859  17.841  0.00  0.00    +0.000 C 
BRANCH  11  12
ATOM     12  C   UNL     1       2.311   4.456  18.135  0.00  0.00    +0.000 A 
ATOM     13  C   UNL     1       1.412   3.738  18.938  0.00  0.00    +0.000 A 
ATOM     14  C   UNL     1       1.621   2.382  19.203  0.00  0.00    +0.000 A 
ATOM     15  C   UNL     1       2.730   1.730  18.669  0.00  0.00    +0.000 A 
ATOM     16  C   UNL     1       3.637   2.436  17.877  0.00  0.00    +0.000 A 
ATOM     17  C   UNL     1       3.432   3.794  17.612  0.00  0.00    +0.000 A 
ATOM     18 CL   UNL     1       4.594   4.609  16.623  0.00  0.00    +0.000 Cl
ENDBRANCH  11  12
ENDBRANCH   8  10
TORSDOF 2
ENDMDL
MODEL 5
REMARK VINA RESULT:      -6.8      3.776      5.924
REMARK  Name = 
REMARK  2 active torsions:
REMARK  status: ('A' for Active; 'I' for Inactive)
REMARK    1  A    between atoms: C_8  and  C_10
REMARK    2  A    between atoms: C_11  and  C_12
REMARK                            x       y       z     vdW  Elec       q    Type
REMARK                         _______ _______ _______ _____ _____    ______ ____
ROOT
ATOM      1  O   UNL     1       2.259   8.743  17.379  0.00  0.00    +0.000 OA
ATOM      2  C   UNL     1       1.809   9.009  18.491  0.00  0.00    +0.000 C 
ATOM      3  C   UNL     1       1.220  10.368  18.667  0.00  0.00    +0.000 C 
ATOM      4  C   UNL     1       0.829  10.834  19.858  0.00  0.00    +0.000 C 
ATOM      5  C   UNL     1       0.891   9.978  21.077  0.00  0.00    +0.000 C 
ATOM      6  C   UNL     1       0.870   8.503  20.693  0.00  0.00    +0.000 C 
ATOM      7  N   UNL     1       1.798   8.168  19.610  0.00  0.00    +0.000 N 
ATOM      8  C   UNL     1       2.341   6.875  19.672  0.00  0.00    +0.000 C 
ATOM      9  O   UNL     1       1.986   6.053  20.521  0.00  0.00    +0.000 OA
ENDROOT
BRANCH   8  10
ATOM     10  C   UNL     1       3.377   6.486  18.674  0.00  0.00    +0.000 C 
ATOM     11  C   UNL     1       4.090   5.359  18.834  0.00  0.00    +0.000 C 
BRANCH  11  12
ATOM     12  C   UNL     1       5.071   4.953  17.820  0.00  0.00    +0.000 A 
ATOM     13  C   UNL     1       4.583   4.499  16.585  0.00  0.00    +0.000 A 
ATOM     14  C   UNL     1       5.462   4.159  15.554  0.00  0.00    +0.000 A 
ATOM     15  C   UNL     1       6.837   4.270  15.745  0.00  0.00    +0.000 A 
ATOM     16  C   UNL     1       7.336   4.711  16.971  0.00  0.00    +0.000 A 
ATOM     17  C   UNL     1       6.459   5.050  18.006  0.00  0.00    +0.000 A 
ATOM     18 CL   UNL     1       7.143   5.589  19.501  0.00  0.00    +0.000 Cl
ENDBRANCH  11  12
ENDBRANCH   8  10
TORSDOF 2
ENDMDL
MODEL 6
REMARK VINA RESULT:      -6.7      4.336      5.590
REMARK  Name = 
REMARK  2 active torsions:
REMARK  status: ('A' for Active; 'I' for Inactive)
REMARK    1  A    between atoms: C_8  and  C_10
REMARK    2  A    between atoms: C_11  and  C_12
REMARK                            x       y       z     vdW  Elec       q    Type
REMARK                         _______ _______ _______ _____ _____    ______ ____
ROOT
ATOM      1  O   UNL     1       1.315   7.841  20.988  0.00  0.00    +0.000 OA
ATOM      2  C   UNL     1       0.958   8.951  20.600  0.00  0.00    +0.000 C 
ATOM      3  C   UNL     1       0.194   9.785  21.573  0.00  0.00    +0.000 C 
ATOM      4  C   UNL     1      -0.374  10.947  21.233  0.00  0.00    +0.000 C 
ATOM      5  C   UNL     1      -0.208  11.514  19.865  0.00  0.00    +0.000 C 
ATOM      6  C   UNL     1       1.054  10.962  19.210  0.00  0.00    +0.000 C 
ATOM      7  N   UNL     1       1.190   9.509  19.337  0.00  0.00    +0.000 N 
ATOM      8  C   UNL     1       1.842   8.878  18.267  0.00  0.00    +0.000 C 
ATOM      9  O   UNL     1       2.347   9.514  17.338  0.00  0.00    +0.000 OA
ENDROOT
BRANCH   8  10
ATOM     10  C   UNL     1       1.928   7.390  18.259  0.00  0.00    +0.000 C 
ATOM     11  C   UNL     1       3.120   6.775  18.179  0.00  0.00    +0.000 C 
BRANCH  11  12
ATOM     12  C   UNL     1       3.202   5.310  18.228  0.00  0.00    +0.000 A 
ATOM     13  C   UNL     1       2.092   4.579  17.777  0.00  0.00    +0.000 A 
ATOM     14  C   UNL     1       2.128   3.184  17.736  0.00  0.00    +0.000 A 
ATOM     15  C   UNL     1       3.273   2.503  18.144  0.00  0.00    +0.000 A 
ATOM     16  C   UNL     1       4.380   3.218  18.604  0.00  0.00    +0.000 A 
ATOM     17  C   UNL     1       4.346   4.615  18.648  0.00  0.00    +0.000 A 
ATOM     18 CL   UNL     1       5.752   5.440  19.228  0.00  0.00    +0.000 Cl
ENDBRANCH  11  12
ENDBRANCH   8  10
TORSDOF 2
ENDMDL
MODEL 7
REMARK VINA RESULT:      -6.6      3.640      5.542
REMARK  Name = 
REMARK  2 active torsions:
REMARK  status: ('A' for Active; 'I' for Inactive)
REMARK    1  A    between atoms: C_8  and  C_10
REMARK    2  A    between atoms: C_11  and  C_12
REMARK                            x       y       z     vdW  Elec       q    Type
REMARK                         _______ _______ _______ _____ _____    ______ ____
ROOT
ATOM      1  O   UNL     1       1.132   4.605  17.469  0.00  0.00    +0.000 OA
ATOM      2  C   UNL     1       2.096   3.978  17.899  0.00  0.00    +0.000 C 
ATOM      3  C   UNL     1       1.898   2.516  18.120  0.00  0.00    +0.000 C 
ATOM      4  C   UNL     1       2.816   1.747  18.717  0.00  0.00    +0.000 C 
ATOM      5  C   UNL     1       4.134   2.305  19.132  0.00  0.00    +0.000 C 
ATOM      6  C   UNL     1       4.469   3.546  18.310  0.00  0.00    +0.000 C 
ATOM      7  N   UNL     1       3.359   4.496  18.210  0.00  0.00    +0.000 N 
ATOM      8  C   UNL     1       3.739   5.845  18.121  0.00  0.00    +0.000 C 
ATOM      9  O   UNL     1       4.919   6.190  18.037  0.00  0.00    +0.000 OA
ENDROOT
BRANCH   8  10
ATOM     10  C   UNL     1       2.674   6.888  18.126  0.00  0.00    +0.000 C 
ATOM     11  C   UNL     1       2.422   7.600  19.237  0.00  0.00    +0.000 C 
BRANCH  11  12
ATOM     12  C   UNL     1       1.410   8.665  19.220  0.00  0.00    +0.000 A 
ATOM     13  C   UNL     1       0.978   9.134  17.970  0.00  0.00    +0.000 A 
ATOM     14  C   UNL     1      -0.028  10.099  17.881  0.00  0.00    +0.000 A 
ATOM     15  C   UNL     1      -0.614  10.604  19.040  0.00  0.00    +0.000 A 
ATOM     16  C   UNL     1      -0.186  10.153  20.289  0.00  0.00    +0.000 A 
ATOM     17  C   UNL     1       0.822   9.189  20.382  0.00  0.00    +0.000 A 
ATOM     18 CL   UNL     1       1.305   8.672  21.961  0.00  0.00    +0.000 Cl
ENDBRANCH  11  12
ENDBRANCH   8  10
TORSDOF 2
ENDMDL
MODEL 8
REMARK VINA RESULT:      -6.6      1.289      1.634
REMARK  Name = 
REMARK  2 active torsions:
REMARK  status: ('A' for Active; 'I' for Inactive)
REMARK    1  A    between atoms: C_8  and  C_10
REMARK    2  A    between atoms: C_11  and  C_12
REMARK                            x       y       z     vdW  Elec       q    Type
REMARK                         _______ _______ _______ _____ _____    ______ ____
ROOT
ATOM      1  O   UNL     1       6.776   4.802  19.278  0.00  0.00    +0.000 OA
ATOM      2  C   UNL     1       7.051   5.845  18.689  0.00  0.00    +0.000 C 
ATOM      3  C   UNL     1       8.239   6.599  19.184  0.00  0.00    +0.000 C 
ATOM      4  C   UNL     1       8.560   7.815  18.727  0.00  0.00    +0.000 C 
ATOM      5  C   UNL     1       7.780   8.456  17.631  0.00  0.00    +0.000 C 
ATOM      6  C   UNL     1       7.064   7.398  16.799  0.00  0.00    +0.000 C 
ATOM      7  N   UNL     1       6.359   6.399  17.606  0.00  0.00    +0.000 N 
ATOM      8  C   UNL     1       5.194   5.878  17.020  0.00  0.00    +0.000 C 
ATOM      9  O   UNL     1       4.849   6.170  15.873  0.00  0.00    +0.000 OA
ENDROOT
BRANCH   8  10
ATOM     10  C   UNL     1       4.355   4.938  17.815  0.00  0.00    +0.000 C 
ATOM     11  C   UNL     1       3.538   5.399  18.777  0.00  0.00    +0.000 C 
BRANCH  11  12
ATOM     12  C   UNL     1       2.672   4.474  19.519  0.00  0.00    +0.000 A 
ATOM     13  C   UNL     1       2.958   4.260  20.876  0.00  0.00    +0.000 A 
ATOM     14  C   UNL     1       2.136   3.443  21.656  0.00  0.00    +0.000 A 
ATOM     15  C   UNL     1       1.020   2.832  21.089  0.00  0.00    +0.000 A 
ATOM     16  C   UNL     1       0.731   3.028  19.738  0.00  0.00    +0.000 A 
ATOM     17  C   UNL     1       1.553   3.844  18.954  0.00  0.00    +0.000 A 
ATOM     18 CL   UNL     1       1.137   4.046  17.287  0.00  0.00    +0.000 Cl
ENDBRANCH  11  12
ENDBRANCH   8  10
TORSDOF 2
ENDMDL
MODEL 9
REMARK VINA RESULT:      -6.6      3.128      6.356
REMARK  Name = 
REMARK  2 active torsions:
REMARK  status: ('A' for Active; 'I' for Inactive)
REMARK    1  A    between atoms: C_8  and  C_10
REMARK    2  A    between atoms: C_11  and  C_12
REMARK                            x       y       z     vdW  Elec       q    Type
REMARK                         _______ _______ _______ _____ _____    ______ ____
ROOT
ATOM      1  O   UNL     1       3.483   1.957  17.848  0.00  0.00    +0.000 OA
ATOM      2  C   UNL     1       2.816   2.611  18.645  0.00  0.00    +0.000 C 
ATOM      3  C   UNL     1       1.476   2.063  19.004  0.00  0.00    +0.000 C 
ATOM      4  C   UNL     1       0.595   2.745  19.745  0.00  0.00    +0.000 C 
ATOM      5  C   UNL     1       0.940   4.075  20.322  0.00  0.00    +0.000 C 
ATOM      6  C   UNL     1       2.453   4.222  20.451  0.00  0.00    +0.000 C 
ATOM      7  N   UNL     1       3.184   3.821  19.246  0.00  0.00    +0.000 N 
ATOM      8  C   UNL     1       4.373   4.528  19.011  0.00  0.00    +0.000 C 
ATOM      9  O   UNL     1       4.815   5.355  19.812  0.00  0.00    +0.000 OA
ENDROOT
BRANCH   8  10
ATOM     10  C   UNL     1       5.125   4.263  17.751  0.00  0.00    +0.000 C 
ATOM     11  C   UNL     1       4.817   4.922  16.622  0.00  0.00    +0.000 C 
BRANCH  11  12
ATOM     12  C   UNL     1       5.596   4.697  15.398  0.00  0.00    +0.000 A 
ATOM     13  C   UNL     1       5.031   3.882  14.405  0.00  0.00    +0.000 A 
ATOM     14  C   UNL     1       5.690   3.679  13.190  0.00  0.00    +0.000 A 
ATOM     15  C   UNL     1       6.920   4.289  12.954  0.00  0.00    +0.000 A 
ATOM     16  C   UNL     1       7.498   5.093  13.937  0.00  0.00    +0.000 A 
ATOM     17  C   UNL     1       6.841   5.297  15.155  0.00  0.00    +0.000 A 
ATOM     18 CL   UNL     1       7.612   6.306  16.330  0.00  0.00    +0.000 Cl
ENDBRANCH  11  12
ENDBRANCH   8  10
TORSDOF 2
ENDMDL
