MODEL 1
REMARK VINA RESULT:      -6.8      0.000      0.000
REMARK  Name = 
REMARK  2 active torsions:
REMARK  status: ('A' for Active; 'I' for Inactive)
REMARK    1  A    between atoms: C_1  and  C_2
REMARK    2  A    between atoms: N_21  and  C_22
REMARK                            x       y       z     vdW  Elec       q    Type
REMARK                         _______ _______ _______ _____ _____    ______ ____
ROOT
ATOM      1  C   UNL     1      -3.196  18.474  22.188  0.00  0.00    +0.000 C 
ATOM      2  C   UNL     1      -4.199  18.331  21.037  0.00  0.00    +0.000 C 
ATOM      3  C   UNL     1      -4.069  16.959  20.321  0.00  0.00    +0.000 C 
ATOM      4  N   UNL     1      -4.683  15.873  21.098  0.00  0.00    +0.000 N 
ATOM      5  C   UNL     1      -3.940  14.886  21.714  0.00  0.00    +0.000 A 
ATOM      6  C   UNL     1      -2.750  14.450  21.165  0.00  0.00    +0.000 A 
ATOM      7  C   UNL     1      -2.025  13.418  21.754  0.00  0.00    +0.000 A 
ATOM      8  C   UNL     1      -2.488  12.759  22.872  0.00  0.00    +0.000 A 
ATOM      9  N   UNL     1      -1.813  11.668  23.424  0.00  0.00    +0.000 N 
ATOM     10  C   UNL     1      -0.987  10.739  22.787  0.00  0.00    +0.000 A 
ATOM     11  N   UNL     1      -0.483   9.747  23.548  0.00  0.00    +0.000 NA
ATOM     12  C   UNL     1       0.348   8.829  22.984  0.00  0.00    +0.000 A 
ATOM     13  C   UNL     1       0.649   8.906  21.628  0.00  0.00    +0.000 A 
ATOM     14  C   UNL     1       1.423   8.212  20.679  0.00  0.00    +0.000 A 
ATOM     15  C   UNL     1       2.261   7.064  20.789  0.00  0.00    +0.000 A 
ATOM     16  C   UNL     1       2.905   6.607  19.699  0.00  0.00    +0.000 A 
ATOM     17  N   UNL     1       2.766   7.232  18.476  0.00  0.00    +0.000 N 
ATOM     18  C   UNL     1       1.976   8.353  18.252  0.00  0.00    +0.000 A 
ATOM     19  O   UNL     1       1.909   8.849  17.133  0.00  0.00    +0.000 OA
ATOM     20  C   UNL     1       1.293   8.828  19.442  0.00  0.00    +0.000 A 
ATOM     21  N   UNL     1       0.440   9.900  19.610  0.00  0.00    +0.000 N 
ATOM     22  C   UNL     1       0.056   9.949  20.939  0.00  0.00    +0.000 A 
ATOM     23  N   UNL     1      -0.753  10.868  21.476  0.00  0.00    +0.000 NA
ATOM     24  N   UNL     1      -3.628  13.203  23.426  0.00  0.00    +0.000 NA
ATOM     25  N   UNL     1      -4.357  14.263  22.835  0.00  0.00    +0.000 NA
ATOM     26  C   UNL     1      -6.054  16.141  21.543  0.00  0.00    +0.000 C 
ATOM     27  C   UNL     1      -6.153  17.509  22.247  0.00  0.00    +0.000 C 
ATOM     28  N   UNL     1      -5.579  18.631  21.475  0.00  0.00    +0.000 NA
ATOM     29  H   UNL     1      -2.203  11.306  24.279  0.00  0.00    +0.000 HD
ATOM     30  H   UNL     1       3.255   6.881  17.663  0.00  0.00    +0.000 HD
ATOM     31  H   UNL     1      -5.580  19.468  22.055  0.00  0.00    +0.000 HD
ENDROOT
BRANCH  21  32
ATOM     32  C   UNL     1       0.017  10.836  18.583  0.00  0.00    +0.000 C 
ATOM     33  C   UNL     1      -1.462  10.755  18.201  0.00  0.00    +0.000 C 
ATOM     34  C   UNL     1      -1.721  12.060  17.459  0.00  0.00    +0.000 C 
ATOM     35  C   UNL     1      -0.738  13.081  18.033  0.00  0.00    +0.000 C 
ATOM     36  C   UNL     1       0.238  12.312  18.921  0.00  0.00    +0.000 C 
ENDBRANCH  21  32
TORSDOF 1
ENDMDL
MODEL 2
REMARK VINA RESULT:      -6.5      2.317      4.414
REMARK  Name = 
REMARK  2 active torsions:
REMARK  status: ('A' for Active; 'I' for Inactive)
REMARK    1  A    between atoms: C_1  and  C_2
REMARK    2  A    between atoms: N_21  and  C_22
REMARK                            x       y       z     vdW  Elec       q    Type
REMARK                         _______ _______ _______ _____ _____    ______ ____
ROOT
ATOM      1  C   UNL     1      -4.474  15.148  21.289  0.00  0.00    +0.000 C 
ATOM      2  C   UNL     1      -3.936  15.327  22.714  0.00  0.00    +0.000 C 
ATOM      3  C   UNL     1      -2.766  14.352  23.020  0.00  0.00    +0.000 C 
ATOM      4  N   UNL     1      -1.507  14.794  22.403  0.00  0.00    +0.000 N 
ATOM      5  C   UNL     1      -0.922  14.127  21.345  0.00  0.00    +0.000 A 
ATOM      6  C   UNL     1      -1.049  12.759  21.215  0.00  0.00    +0.000 A 
ATOM      7  C   UNL     1      -0.417  12.076  20.178  0.00  0.00    +0.000 A 
ATOM      8  C   UNL     1       0.398  12.728  19.279  0.00  0.00    +0.000 A 
ATOM      9  N   UNL     1       1.105  12.044  18.286  0.00  0.00    +0.000 N 
ATOM     10  C   UNL     1       1.577  10.730  18.299  0.00  0.00    +0.000 A 
ATOM     11  N   UNL     1       2.271  10.320  17.219  0.00  0.00    +0.000 NA
ATOM     12  C   UNL     1       2.734   9.041  17.168  0.00  0.00    +0.000 A 
ATOM     13  C   UNL     1       2.510   8.179  18.236  0.00  0.00    +0.000 A 
ATOM     14  C   UNL     1       2.787   6.845  18.591  0.00  0.00    +0.000 A 
ATOM     15  C   UNL     1       3.466   5.798  17.903  0.00  0.00    +0.000 A 
ATOM     16  C   UNL     1       3.582   4.590  18.484  0.00  0.00    +0.000 A 
ATOM     17  N   UNL     1       3.055   4.349  19.736  0.00  0.00    +0.000 N 
ATOM     18  C   UNL     1       2.376   5.292  20.498  0.00  0.00    +0.000 A 
ATOM     19  O   UNL     1       1.935   4.995  21.602  0.00  0.00    +0.000 OA
ATOM     20  C   UNL     1       2.263   6.587  19.850  0.00  0.00    +0.000 A 
ATOM     21  N   UNL     1       1.663   7.751  20.287  0.00  0.00    +0.000 N 
ATOM     22  C   UNL     1       1.809   8.714  19.303  0.00  0.00    +0.000 A 
ATOM     23  N   UNL     1       1.336   9.962  19.368  0.00  0.00    +0.000 NA
ATOM     24  N   UNL     1       0.496  14.063  19.384  0.00  0.00    +0.000 NA
ATOM     25  N   UNL     1      -0.160  14.758  20.428  0.00  0.00    +0.000 NA
ATOM     26  C   UNL     1      -1.153  16.190  22.673  0.00  0.00    +0.000 C 
ATOM     27  C   UNL     1      -2.333  17.134  22.363  0.00  0.00    +0.000 C 
ATOM     28  N   UNL     1      -3.607  16.740  23.000  0.00  0.00    +0.000 NA
ATOM     29  H   UNL     1       1.615  12.625  17.641  0.00  0.00    +0.000 HD
ATOM     30  H   UNL     1       3.147   3.436  20.164  0.00  0.00    +0.000 HD
ATOM     31  H   UNL     1      -4.351  17.342  22.653  0.00  0.00    +0.000 HD
ENDROOT
BRANCH  21  32
ATOM     32  C   UNL     1       0.980   7.947  21.553  0.00  0.00    +0.000 C 
ATOM     33  C   UNL     1       1.541   9.072  22.426  0.00  0.00    +0.000 C 
ATOM     34  C   UNL     1       0.436   9.333  23.441  0.00  0.00    +0.000 C 
ATOM     35  C   UNL     1      -0.876   8.963  22.751  0.00  0.00    +0.000 C 
ATOM     36  C   UNL     1      -0.513   8.267  21.441  0.00  0.00    +0.000 C 
ENDBRANCH  21  32
TORSDOF 1
ENDMDL
MODEL 3
REMARK VINA RESULT:      -6.4      2.508      4.250
REMARK  Name = 
REMARK  2 active torsions:
REMARK  status: ('A' for Active; 'I' for Inactive)
REMARK    1  A    between atoms: C_1  and  C_2
REMARK    2  A    between atoms: N_21  and  C_22
REMARK                            x       y       z     vdW  Elec       q    Type
REMARK                         _______ _______ _______ _____ _____    ______ ____
ROOT
ATOM      1  C   UNL     1      -4.728  15.321  22.944  0.00  0.00    +0.000 C 
ATOM      2  C   UNL     1      -4.147  15.215  24.359  0.00  0.00    +0.000 C 
ATOM      3  C   UNL     1      -2.949  14.228  24.423  0.00  0.00    +0.000 C 
ATOM      4  N   UNL     1      -1.720  14.821  23.876  0.00  0.00    +0.000 N 
ATOM      5  C   UNL     1      -1.158  14.404  22.686  0.00  0.00    +0.000 A 
ATOM      6  C   UNL     1      -1.262  13.089  22.277  0.00  0.00    +0.000 A 
ATOM      7  C   UNL     1      -0.651  12.653  21.105  0.00  0.00    +0.000 A 
ATOM      8  C   UNL     1       0.121  13.498  20.338  0.00  0.00    +0.000 A 
ATOM      9  N   UNL     1       0.809  13.054  19.205  0.00  0.00    +0.000 N 
ATOM     10  C   UNL     1       1.307  11.778  18.931  0.00  0.00    +0.000 A 
ATOM     11  N   UNL     1       1.973  11.619  17.770  0.00  0.00    +0.000 NA
ATOM     12  C   UNL     1       2.459  10.391  17.441  0.00  0.00    +0.000 A 
ATOM     13  C   UNL     1       2.287   9.321  18.313  0.00  0.00    +0.000 A 
ATOM     14  C   UNL     1       2.602   7.950  18.374  0.00  0.00    +0.000 A 
ATOM     15  C   UNL     1       3.278   7.087  17.465  0.00  0.00    +0.000 A 
ATOM     16  C   UNL     1       3.437   5.788  17.777  0.00  0.00    +0.000 A 
ATOM     17  N   UNL     1       2.956   5.278  18.966  0.00  0.00    +0.000 N 
ATOM     18  C   UNL     1       2.285   6.025  19.926  0.00  0.00    +0.000 A 
ATOM     19  O   UNL     1       1.886   5.495  20.957  0.00  0.00    +0.000 OA
ATOM     20  C   UNL     1       2.124   7.423  19.566  0.00  0.00    +0.000 A 
ATOM     21  N   UNL     1       1.517   8.455  20.252  0.00  0.00    +0.000 N 
ATOM     22  C   UNL     1       1.611   9.604  19.486  0.00  0.00    +0.000 A 
ATOM     23  N   UNL     1       1.116  10.800  19.823  0.00  0.00    +0.000 NA
ATOM     24  N   UNL     1       0.197  14.784  20.716  0.00  0.00    +0.000 NA
ATOM     25  N   UNL     1      -0.438  15.231  21.900  0.00  0.00    +0.000 NA
ATOM     26  C   UNL     1      -1.385  16.140  24.420  0.00  0.00    +0.000 C 
ATOM     27  C   UNL     1      -2.592  17.096  24.346  0.00  0.00    +0.000 C 
ATOM     28  N   UNL     1      -3.837  16.545  24.924  0.00  0.00    +0.000 NA
ATOM     29  H   UNL     1       1.286  13.769  18.681  0.00  0.00    +0.000 HD
ATOM     30  H   UNL     1       3.080   4.300  19.193  0.00  0.00    +0.000 HD
ATOM     31  H   UNL     1      -4.604  17.187  24.731  0.00  0.00    +0.000 HD
ENDROOT
BRANCH  21  32
ATOM     32  C   UNL     1       0.872   8.366  21.550  0.00  0.00    +0.000 C 
ATOM     33  C   UNL     1       1.491   9.239  22.644  0.00  0.00    +0.000 C 
ATOM     34  C   UNL     1       0.421   9.284  23.727  0.00  0.00    +0.000 C 
ATOM     35  C   UNL     1      -0.920   9.121  23.011  0.00  0.00    +0.000 C 
ATOM     36  C   UNL     1      -0.612   8.743  21.564  0.00  0.00    +0.000 C 
ENDBRANCH  21  32
TORSDOF 1
ENDMDL
MODEL 4
REMARK VINA RESULT:      -6.3      4.291      6.070
REMARK  Name = 
REMARK  2 active torsions:
REMARK  status: ('A' for Active; 'I' for Inactive)
REMARK    1  A    between atoms: C_1  and  C_2
REMARK    2  A    between atoms: N_21  and  C_22
REMARK                            x       y       z     vdW  Elec       q    Type
REMARK                         _______ _______ _______ _____ _____    ______ ____
ROOT
ATOM      1  C   UNL     1      -5.263  12.265  24.554  0.00  0.00    +0.000 C 
ATOM      2  C   UNL     1      -5.997  13.563  24.196  0.00  0.00    +0.000 C 
ATOM      3  C   UNL     1      -5.140  14.481  23.282  0.00  0.00    +0.000 C 
ATOM      4  N   UNL     1      -5.124  14.010  21.890  0.00  0.00    +0.000 N 
ATOM      5  C   UNL     1      -3.998  13.472  21.298  0.00  0.00    +0.000 A 
ATOM      6  C   UNL     1      -2.736  13.900  21.659  0.00  0.00    +0.000 A 
ATOM      7  C   UNL     1      -1.602  13.398  21.028  0.00  0.00    +0.000 A 
ATOM      8  C   UNL     1      -1.694  12.498  19.989  0.00  0.00    +0.000 A 
ATOM      9  N   UNL     1      -0.570  12.049  19.291  0.00  0.00    +0.000 N 
ATOM     10  C   UNL     1       0.644  12.706  19.078  0.00  0.00    +0.000 A 
ATOM     11  N   UNL     1       1.563  12.063  18.330  0.00  0.00    +0.000 NA
ATOM     12  C   UNL     1       2.773  12.647  18.111  0.00  0.00    +0.000 A 
ATOM     13  C   UNL     1       3.042  13.905  18.638  0.00  0.00    +0.000 A 
ATOM     14  C   UNL     1       4.101  14.832  18.666  0.00  0.00    +0.000 A 
ATOM     15  C   UNL     1       5.410  14.800  18.106  0.00  0.00    +0.000 A 
ATOM     16  C   UNL     1       6.240  15.841  18.299  0.00  0.00    +0.000 A 
ATOM     17  N   UNL     1       5.843  16.942  19.030  0.00  0.00    +0.000 N 
ATOM     18  C   UNL     1       4.592  17.083  19.619  0.00  0.00    +0.000 A 
ATOM     19  O   UNL     1       4.319  18.094  20.257  0.00  0.00    +0.000 OA
ATOM     20  C   UNL     1       3.716  15.947  19.399  0.00  0.00    +0.000 A 
ATOM     21  N   UNL     1       2.422  15.725  19.825  0.00  0.00    +0.000 N 
ATOM     22  C   UNL     1       2.018  14.483  19.368  0.00  0.00    +0.000 A 
ATOM     23  N   UNL     1       0.827  13.922  19.604  0.00  0.00    +0.000 NA
ATOM     24  N   UNL     1      -2.918  12.055  19.659  0.00  0.00    +0.000 NA
ATOM     25  N   UNL     1      -4.071  12.554  20.312  0.00  0.00    +0.000 NA
ATOM     26  C   UNL     1      -6.448  13.740  21.322  0.00  0.00    +0.000 C 
ATOM     27  C   UNL     1      -7.276  12.829  22.251  0.00  0.00    +0.000 C 
ATOM     28  N   UNL     1      -7.345  13.295  23.652  0.00  0.00    +0.000 NA
ATOM     29  H   UNL     1      -0.746  11.342  18.597  0.00  0.00    +0.000 HD
ATOM     30  H   UNL     1       6.474  17.720  19.170  0.00  0.00    +0.000 HD
ATOM     31  H   UNL     1      -7.807  12.584  24.216  0.00  0.00    +0.000 HD
ENDROOT
BRANCH  21  32
ATOM     32  C   UNL     1       1.612  16.624  20.629  0.00  0.00    +0.000 C 
ATOM     33  C   UNL     1       0.238  16.957  20.045  0.00  0.00    +0.000 C 
ATOM     34  C   UNL     1      -0.531  17.537  21.224  0.00  0.00    +0.000 C 
ATOM     35  C   UNL     1       0.055  16.889  22.478  0.00  0.00    +0.000 C 
ATOM     36  C   UNL     1       1.308  16.130  22.046  0.00  0.00    +0.000 C 
ENDBRANCH  21  32
TORSDOF 1
ENDMDL
MODEL 5
REMARK VINA RESULT:      -6.3      7.764     11.644
REMARK  Name = 
REMARK  2 active torsions:
REMARK  status: ('A' for Active; 'I' for Inactive)
REMARK    1  A    between atoms: C_1  and  C_2
REMARK    2  A    between atoms: N_21  and  C_22
REMARK                            x       y       z     vdW  Elec       q    Type
REMARK                         _______ _______ _______ _____ _____    ______ ____
ROOT
ATOM      1  C   UNL     1      10.520  11.371  19.355  0.00  0.00    +0.000 C 
ATOM      2  C   UNL     1      10.466  11.733  17.866  0.00  0.00    +0.000 C 
ATOM      3  C   UNL     1       9.324  12.739  17.554  0.00  0.00    +0.000 C 
ATOM      4  N   UNL     1       9.674  14.109  17.957  0.00  0.00    +0.000 N 
ATOM      5  C   UNL     1       9.065  14.751  19.018  0.00  0.00    +0.000 A 
ATOM      6  C   UNL     1       7.747  14.494  19.338  0.00  0.00    +0.000 A 
ATOM      7  C   UNL     1       7.115  15.179  20.372  0.00  0.00    +0.000 A 
ATOM      8  C   UNL     1       7.759  16.171  21.079  0.00  0.00    +0.000 A 
ATOM      9  N   UNL     1       7.112  16.923  22.062  0.00  0.00    +0.000 N 
ATOM     10  C   UNL     1       5.756  17.244  22.165  0.00  0.00    +0.000 A 
ATOM     11  N   UNL     1       5.390  18.025  23.201  0.00  0.00    +0.000 NA
ATOM     12  C   UNL     1       4.078  18.348  23.362  0.00  0.00    +0.000 A 
ATOM     13  C   UNL     1       3.134  17.893  22.448  0.00  0.00    +0.000 A 
ATOM     14  C   UNL     1       1.744  17.974  22.239  0.00  0.00    +0.000 A 
ATOM     15  C   UNL     1       0.706  18.619  22.972  0.00  0.00    +0.000 A 
ATOM     16  C   UNL     1      -0.566  18.526  22.544  0.00  0.00    +0.000 A 
ATOM     17  N   UNL     1      -0.882  17.815  21.404  0.00  0.00    +0.000 N 
ATOM     18  C   UNL     1       0.045  17.150  20.610  0.00  0.00    +0.000 A 
ATOM     19  O   UNL     1      -0.320  16.538  19.613  0.00  0.00    +0.000 OA
ATOM     20  C   UNL     1       1.409  17.264  21.094  0.00  0.00    +0.000 A 
ATOM     21  N   UNL     1       2.581  16.743  20.583  0.00  0.00    +0.000 N 
ATOM     22  C   UNL     1       3.625  17.121  21.410  0.00  0.00    +0.000 A 
ATOM     23  N   UNL     1       4.907  16.782  21.240  0.00  0.00    +0.000 NA
ATOM     24  N   UNL     1       9.051  16.399  20.791  0.00  0.00    +0.000 NA
ATOM     25  N   UNL     1       9.698  15.692  19.749  0.00  0.00    +0.000 NA
ATOM     26  C   UNL     1      10.975  14.575  17.470  0.00  0.00    +0.000 C 
ATOM     27  C   UNL     1      12.087  13.556  17.791  0.00  0.00    +0.000 C 
ATOM     28  N   UNL     1      11.784  12.174  17.363  0.00  0.00    +0.000 NA
ATOM     29  H   UNL     1       7.695  17.574  22.562  0.00  0.00    +0.000 HD
ATOM     30  H   UNL     1      -1.841  17.750  21.089  0.00  0.00    +0.000 HD
ATOM     31  H   UNL     1      12.510  11.552  17.713  0.00  0.00    +0.000 HD
ENDROOT
BRANCH  21  32
ATOM     32  C   UNL     1       2.714  15.925  19.390  0.00  0.00    +0.000 C 
ATOM     33  C   UNL     1       3.701  16.453  18.347  0.00  0.00    +0.000 C 
ATOM     34  C   UNL     1       3.957  15.254  17.445  0.00  0.00    +0.000 C 
ATOM     35  C   UNL     1       3.764  14.013  18.316  0.00  0.00    +0.000 C 
ATOM     36  C   UNL     1       3.167  14.484  19.640  0.00  0.00    +0.000 C 
ENDBRANCH  21  32
TORSDOF 1
ENDMDL
MODEL 6
REMARK VINA RESULT:      -6.2      9.328     10.364
REMARK  Name = 
REMARK  2 active torsions:
REMARK  status: ('A' for Active; 'I' for Inactive)
REMARK    1  A    between atoms: C_1  and  C_2
REMARK    2  A    between atoms: N_21  and  C_22
REMARK                            x       y       z     vdW  Elec       q    Type
REMARK                         _______ _______ _______ _____ _____    ______ ____
ROOT
ATOM      1  C   UNL     1       6.116  17.837  27.898  0.00  0.00    +0.000 C 
ATOM      2  C   UNL     1       5.026  18.631  27.168  0.00  0.00    +0.000 C 
ATOM      3  C   UNL     1       5.070  18.401  25.633  0.00  0.00    +0.000 C 
ATOM      4  N   UNL     1       4.492  17.103  25.255  0.00  0.00    +0.000 N 
ATOM      5  C   UNL     1       5.257  16.058  24.775  0.00  0.00    +0.000 A 
ATOM      6  C   UNL     1       6.391  16.299  24.026  0.00  0.00    +0.000 A 
ATOM      7  C   UNL     1       7.135  15.247  23.496  0.00  0.00    +0.000 A 
ATOM      8  C   UNL     1       6.743  13.936  23.653  0.00  0.00    +0.000 A 
ATOM      9  N   UNL     1       7.433  12.877  23.057  0.00  0.00    +0.000 N 
ATOM     10  C   UNL     1       8.187  12.879  21.882  0.00  0.00    +0.000 A 
ATOM     11  N   UNL     1       8.725  11.703  21.499  0.00  0.00    +0.000 NA
ATOM     12  C   UNL     1       9.489  11.653  20.374  0.00  0.00    +0.000 A 
ATOM     13  C   UNL     1       9.688  12.803  19.619  0.00  0.00    +0.000 A 
ATOM     14  C   UNL     1      10.372  13.192  18.451  0.00  0.00    +0.000 A 
ATOM     15  C   UNL     1      11.189  12.464  17.538  0.00  0.00    +0.000 A 
ATOM     16  C   UNL     1      11.738  13.101  16.487  0.00  0.00    +0.000 A 
ATOM     17  N   UNL     1      11.521  14.447  16.279  0.00  0.00    +0.000 N 
ATOM     18  C   UNL     1      10.742  15.254  17.099  0.00  0.00    +0.000 A 
ATOM     19  O   UNL     1      10.602  16.445  16.844  0.00  0.00    +0.000 OA
ATOM     20  C   UNL     1      10.162  14.546  18.226  0.00  0.00    +0.000 A 
ATOM     21  N   UNL     1       9.350  15.005  19.243  0.00  0.00    +0.000 N 
ATOM     22  C   UNL     1       9.068  13.947  20.090  0.00  0.00    +0.000 A 
ATOM     23  N   UNL     1       8.324  14.021  21.198  0.00  0.00    +0.000 NA
ATOM     24  N   UNL     1       5.659  13.699  24.410  0.00  0.00    +0.000 NA
ATOM     25  N   UNL     1       4.912  14.768  24.962  0.00  0.00    +0.000 NA
ATOM     26  C   UNL     1       3.166  16.839  25.820  0.00  0.00    +0.000 C 
ATOM     27  C   UNL     1       3.151  17.077  27.343  0.00  0.00    +0.000 C 
ATOM     28  N   UNL     1       3.690  18.390  27.755  0.00  0.00    +0.000 NA
ATOM     29  H   UNL     1       7.100  11.957  23.294  0.00  0.00    +0.000 HD
ATOM     30  H   UNL     1      11.938  14.917  15.485  0.00  0.00    +0.000 HD
ATOM     31  H   UNL     1       3.752  18.419  28.771  0.00  0.00    +0.000 HD
ENDROOT
BRANCH  21  32
ATOM     32  C   UNL     1       8.871  16.366  19.418  0.00  0.00    +0.000 C 
ATOM     33  C   UNL     1       7.350  16.518  19.464  0.00  0.00    +0.000 C 
ATOM     34  C   UNL     1       7.138  17.905  20.055  0.00  0.00    +0.000 C 
ATOM     35  C   UNL     1       8.345  18.177  20.952  0.00  0.00    +0.000 C 
ATOM     36  C   UNL     1       9.357  17.064  20.691  0.00  0.00    +0.000 C 
ENDBRANCH  21  32
TORSDOF 1
ENDMDL
MODEL 7
REMARK VINA RESULT:      -6.2      4.652      7.871
REMARK  Name = 
REMARK  2 active torsions:
REMARK  status: ('A' for Active; 'I' for Inactive)
REMARK    1  A    between atoms: C_1  and  C_2
REMARK    2  A    between atoms: N_21  and  C_22
REMARK                            x       y       z     vdW  Elec       q    Type
REMARK                         _______ _______ _______ _____ _____    ______ ____
ROOT
ATOM      1  C   UNL     1       4.251  17.884  20.597  0.00  0.00    +0.000 C 
ATOM      2  C   UNL     1       4.574  17.332  21.991  0.00  0.00    +0.000 C 
ATOM      3  C   UNL     1       3.517  16.298  22.466  0.00  0.00    +0.000 C 
ATOM      4  N   UNL     1       3.698  14.991  21.818  0.00  0.00    +0.000 N 
ATOM      5  C   UNL     1       2.810  14.493  20.885  0.00  0.00    +0.000 A 
ATOM      6  C   UNL     1       1.465  14.794  20.958  0.00  0.00    +0.000 A 
ATOM      7  C   UNL     1       0.560  14.251  20.050  0.00  0.00    +0.000 A 
ATOM      8  C   UNL     1       0.959  13.357  19.082  0.00  0.00    +0.000 A 
ATOM      9  N   UNL     1       0.050  12.740  18.218  0.00  0.00    +0.000 N 
ATOM     10  C   UNL     1      -1.296  12.440  18.438  0.00  0.00    +0.000 A 
ATOM     11  N   UNL     1      -1.949  11.801  17.447  0.00  0.00    +0.000 NA
ATOM     12  C   UNL     1      -3.269  11.506  17.599  0.00  0.00    +0.000 A 
ATOM     13  C   UNL     1      -3.924  11.842  18.779  0.00  0.00    +0.000 A 
ATOM     14  C   UNL     1      -5.214  11.739  19.335  0.00  0.00    +0.000 A 
ATOM     15  C   UNL     1      -6.430  11.198  18.827  0.00  0.00    +0.000 A 
ATOM     16  C   UNL     1      -7.541  11.240  19.584  0.00  0.00    +0.000 A 
ATOM     17  N   UNL     1      -7.522  11.797  20.846  0.00  0.00    +0.000 N 
ATOM     18  C   UNL     1      -6.396  12.351  21.443  0.00  0.00    +0.000 A 
ATOM     19  O   UNL     1      -6.464  12.830  22.570  0.00  0.00    +0.000 OA
ATOM     20  C   UNL     1      -5.211  12.296  20.607  0.00  0.00    +0.000 A 
ATOM     21  N   UNL     1      -3.928  12.743  20.851  0.00  0.00    +0.000 N 
ATOM     22  C   UNL     1      -3.151  12.472  19.738  0.00  0.00    +0.000 A 
ATOM     23  N   UNL     1      -1.857  12.781  19.604  0.00  0.00    +0.000 NA
ATOM     24  N   UNL     1       2.272  13.089  18.988  0.00  0.00    +0.000 NA
ATOM     25  N   UNL     1       3.194  13.654  19.902  0.00  0.00    +0.000 NA
ATOM     26  C   UNL     1       5.063  14.462  21.884  0.00  0.00    +0.000 C 
ATOM     27  C   UNL     1       6.090  15.510  21.410  0.00  0.00    +0.000 C 
ATOM     28  N   UNL     1       5.961  16.826  22.070  0.00  0.00    +0.000 NA
ATOM     29  H   UNL     1       0.457  12.158  17.506  0.00  0.00    +0.000 HD
ATOM     30  H   UNL     1      -8.363  11.824  21.408  0.00  0.00    +0.000 HD
ATOM     31  H   UNL     1       6.593  17.486  21.621  0.00  0.00    +0.000 HD
ENDROOT
BRANCH  21  32
ATOM     32  C   UNL     1      -3.457  13.399  22.058  0.00  0.00    +0.000 C 
ATOM     33  C   UNL     1      -4.166  14.711  22.402  0.00  0.00    +0.000 C 
ATOM     34  C   UNL     1      -3.799  14.954  23.860  0.00  0.00    +0.000 C 
ATOM     35  C   UNL     1      -3.573  13.576  24.480  0.00  0.00    +0.000 C 
ATOM     36  C   UNL     1      -3.570  12.565  23.336  0.00  0.00    +0.000 C 
ENDBRANCH  21  32
TORSDOF 1
ENDMDL
MODEL 8
REMARK VINA RESULT:      -6.0      4.560      7.167
REMARK  Name = 
REMARK  2 active torsions:
REMARK  status: ('A' for Active; 'I' for Inactive)
REMARK    1  A    between atoms: C_1  and  C_2
REMARK    2  A    between atoms: N_21  and  C_22
REMARK                            x       y       z     vdW  Elec       q    Type
REMARK                         _______ _______ _______ _____ _____    ______ ____
ROOT
ATOM      1  C   UNL     1       5.475  13.850  23.660  0.00  0.00    +0.000 C 
ATOM      2  C   UNL     1       5.931  14.476  22.337  0.00  0.00    +0.000 C 
ATOM      3  C   UNL     1       4.770  14.573  21.309  0.00  0.00    +0.000 C 
ATOM      4  N   UNL     1       3.858  15.685  21.614  0.00  0.00    +0.000 N 
ATOM      5  C   UNL     1       2.569  15.487  22.069  0.00  0.00    +0.000 A 
ATOM      6  C   UNL     1       1.841  14.383  21.672  0.00  0.00    +0.000 A 
ATOM      7  C   UNL     1       0.523  14.208  22.086  0.00  0.00    +0.000 A 
ATOM      8  C   UNL     1      -0.120  15.149  22.860  0.00  0.00    +0.000 A 
ATOM      9  N   UNL     1      -1.467  15.028  23.212  0.00  0.00    +0.000 N 
ATOM     10  C   UNL     1      -2.494  14.380  22.523  0.00  0.00    +0.000 A 
ATOM     11  N   UNL     1      -3.727  14.442  23.065  0.00  0.00    +0.000 NA
ATOM     12  C   UNL     1      -4.761  13.807  22.447  0.00  0.00    +0.000 A 
ATOM     13  C   UNL     1      -4.543  13.124  21.256  0.00  0.00    +0.000 A 
ATOM     14  C   UNL     1      -5.278  12.362  20.328  0.00  0.00    +0.000 A 
ATOM     15  C   UNL     1      -6.651  11.983  20.282  0.00  0.00    +0.000 A 
ATOM     16  C   UNL     1      -7.096  11.227  19.261  0.00  0.00    +0.000 A 
ATOM     17  N   UNL     1      -6.244  10.813  18.258  0.00  0.00    +0.000 N 
ATOM     18  C   UNL     1      -4.891  11.124  18.199  0.00  0.00    +0.000 A 
ATOM     19  O   UNL     1      -4.201  10.714  17.272  0.00  0.00    +0.000 OA
ATOM     20  C   UNL     1      -4.434  11.939  19.311  0.00  0.00    +0.000 A 
ATOM     21  N   UNL     1      -3.177  12.434  19.594  0.00  0.00    +0.000 N 
ATOM     22  C   UNL     1      -3.245  13.147  20.778  0.00  0.00    +0.000 A 
ATOM     23  N   UNL     1      -2.214  13.754  21.375  0.00  0.00    +0.000 NA
ATOM     24  N   UNL     1       0.596  16.207  23.274  0.00  0.00    +0.000 NA
ATOM     25  N   UNL     1       1.941  16.376  22.866  0.00  0.00    +0.000 NA
ATOM     26  C   UNL     1       4.519  16.974  21.830  0.00  0.00    +0.000 C 
ATOM     27  C   UNL     1       5.667  16.848  22.851  0.00  0.00    +0.000 C 
ATOM     28  N   UNL     1       6.626  15.763  22.553  0.00  0.00    +0.000 NA
ATOM     29  H   UNL     1      -1.816  15.737  23.836  0.00  0.00    +0.000 HD
ATOM     30  H   UNL     1      -6.588  10.245  17.495  0.00  0.00    +0.000 HD
ATOM     31  H   UNL     1       7.278  15.673  23.330  0.00  0.00    +0.000 HD
ENDROOT
BRANCH  21  32
ATOM     32  C   UNL     1      -1.974  12.238  18.803  0.00  0.00    +0.000 C 
ATOM     33  C   UNL     1      -1.017  13.431  18.773  0.00  0.00    +0.000 C 
ATOM     34  C   UNL     1       0.289  12.840  18.260  0.00  0.00    +0.000 C 
ATOM     35  C   UNL     1       0.296  11.374  18.695  0.00  0.00    +0.000 C 
ATOM     36  C   UNL     1      -1.096  11.063  19.239  0.00  0.00    +0.000 C 
ENDBRANCH  21  32
TORSDOF 1
ENDMDL
MODEL 9
REMARK VINA RESULT:      -5.9      5.088      6.574
REMARK  Name = 
REMARK  2 active torsions:
REMARK  status: ('A' for Active; 'I' for Inactive)
REMARK    1  A    between atoms: C_1  and  C_2
REMARK    2  A    between atoms: N_21  and  C_22
REMARK                            x       y       z     vdW  Elec       q    Type
REMARK                         _______ _______ _______ _____ _____    ______ ____
ROOT
ATOM      1  C   UNL     1      -5.593  14.540  21.775  0.00  0.00    +0.000 C 
ATOM      2  C   UNL     1      -5.372  13.024  21.844  0.00  0.00    +0.000 C 
ATOM      3  C   UNL     1      -3.871  12.649  21.706  0.00  0.00    +0.000 C 
ATOM      4  N   UNL     1      -3.126  12.895  22.949  0.00  0.00    +0.000 N 
ATOM      5  C   UNL     1      -2.190  13.904  23.068  0.00  0.00    +0.000 A 
ATOM      6  C   UNL     1      -1.429  14.294  21.985  0.00  0.00    +0.000 A 
ATOM      7  C   UNL     1      -0.448  15.273  22.115  0.00  0.00    +0.000 A 
ATOM      8  C   UNL     1      -0.163  15.850  23.333  0.00  0.00    +0.000 A 
ATOM      9  N   UNL     1       0.875  16.772  23.494  0.00  0.00    +0.000 N 
ATOM     10  C   UNL     1       2.061  16.887  22.766  0.00  0.00    +0.000 A 
ATOM     11  N   UNL     1       2.924  17.849  23.151  0.00  0.00    +0.000 NA
ATOM     12  C   UNL     1       4.084  18.020  22.461  0.00  0.00    +0.000 A 
ATOM     13  C   UNL     1       4.380  17.192  21.384  0.00  0.00    +0.000 A 
ATOM     14  C   UNL     1       5.406  17.024  20.434  0.00  0.00    +0.000 A 
ATOM     15  C   UNL     1       6.629  17.722  20.220  0.00  0.00    +0.000 A 
ATOM     16  C   UNL     1       7.437  17.349  19.209  0.00  0.00    +0.000 A 
ATOM     17  N   UNL     1       7.099  16.301  18.379  0.00  0.00    +0.000 N 
ATOM     18  C   UNL     1       5.936  15.549  18.495  0.00  0.00    +0.000 A 
ATOM     19  O   UNL     1       5.709  14.634  17.712  0.00  0.00    +0.000 OA
ATOM     20  C   UNL     1       5.081  15.971  19.590  0.00  0.00    +0.000 A 
ATOM     21  N   UNL     1       3.862  15.477  20.008  0.00  0.00    +0.000 N 
ATOM     22  C   UNL     1       3.436  16.224  21.093  0.00  0.00    +0.000 A 
ATOM     23  N   UNL     1       2.286  16.045  21.750  0.00  0.00    +0.000 NA
ATOM     24  N   UNL     1      -0.924  15.495  24.380  0.00  0.00    +0.000 NA
ATOM     25  N   UNL     1      -1.932  14.511  24.245  0.00  0.00    +0.000 NA
ATOM     26  C   UNL     1      -3.736  12.317  24.149  0.00  0.00    +0.000 C 
ATOM     27  C   UNL     1      -5.224  12.704  24.260  0.00  0.00    +0.000 C 
ATOM     28  N   UNL     1      -6.012  12.432  23.039  0.00  0.00    +0.000 NA
ATOM     29  H   UNL     1       0.951  17.181  24.411  0.00  0.00    +0.000 HD
ATOM     30  H   UNL     1       7.713  16.028  17.621  0.00  0.00    +0.000 HD
ATOM     31  H   UNL     1      -6.947  12.820  23.154  0.00  0.00    +0.000 HD
ENDROOT
BRANCH  21  32
ATOM     32  C   UNL     1       3.129  14.371  19.415  0.00  0.00    +0.000 C 
ATOM     33  C   UNL     1       2.563  13.359  20.413  0.00  0.00    +0.000 C 
ATOM     34  C   UNL     1       1.533  12.583  19.603  0.00  0.00    +0.000 C 
ATOM     35  C   UNL     1       1.022  13.543  18.528  0.00  0.00    +0.000 C 
ATOM     36  C   UNL     1       1.922  14.776  18.565  0.00  0.00    +0.000 C 
ENDBRANCH  21  32
TORSDOF 1
ENDMDL
