MODEL 1
REMARK VINA RESULT:      -7.7      0.000      0.000
REMARK  Name = 
REMARK  8 active torsions:
REMARK  status: ('A' for Active; 'I' for Inactive)
REMARK    1  A    between atoms: C_1  and  O_2
REMARK    2  A    between atoms: O_2  and  C_3
REMARK    3  A    between atoms: C_7  and  C_8
REMARK    4  A    between atoms: C_8  and  N_9
REMARK    5  A    between atoms: C_12  and  C_13
REMARK    6  A    between atoms: N_19  and  C_20
REMARK    7  A    between atoms: C_24  and  O_25
REMARK    8  A    between atoms: O_25  and  C_26
REMARK                            x       y       z     vdW  Elec       q    Type
REMARK                         _______ _______ _______ _____ _____    ______ ____
ROOT
ATOM      1  N   UNL     1       0.656  10.294  19.264  0.00  0.00    +0.000 N 
ATOM      2  C   UNL     1       1.437   9.349  18.620  0.00  0.00    +0.000 A 
ATOM      3  O   UNL     1       1.794   9.406  17.451  0.00  0.00    +0.000 OA
ATOM      4  C   UNL     1       1.851   8.145  19.466  0.00  0.00    +0.000 A 
ATOM      5  C   UNL     1       2.525   7.001  18.761  0.00  0.00    +0.000 C 
ATOM      6  N   UNL     1       1.633   8.065  20.747  0.00  0.00    +0.000 NA
ATOM      7  C   UNL     1       0.939   9.127  21.347  0.00  0.00    +0.000 A 
ATOM      8  C   UNL     1       0.667   9.138  22.698  0.00  0.00    +0.000 A 
ATOM      9  N   UNL     1      -0.042  10.102  23.328  0.00  0.00    +0.000 NA
ATOM     10  C   UNL     1      -0.529  11.085  22.562  0.00  0.00    +0.000 A 
ATOM     11  N   UNL     1      -1.273  12.082  23.193  0.00  0.00    +0.000 N 
ATOM     12  N   UNL     1      -0.316  11.167  21.241  0.00  0.00    +0.000 NA
ATOM     13  C   UNL     1       0.421  10.208  20.655  0.00  0.00    +0.000 A 
ATOM     14  H   UNL     1      -1.336  11.881  24.183  0.00  0.00    +0.000 HD
ENDROOT
BRANCH  11  15
ATOM     15  C   UNL     1      -2.374  12.788  22.673  0.00  0.00    +0.000 A 
ATOM     16  C   UNL     1      -2.232  14.007  21.998  0.00  0.00    +0.000 A 
ATOM     17  C   UNL     1      -3.344  14.684  21.500  0.00  0.00    +0.000 A 
ATOM     18  C   UNL     1      -4.616  14.149  21.683  0.00  0.00    +0.000 A 
ATOM     19  C   UNL     1      -4.785  12.937  22.357  0.00  0.00    +0.000 A 
ATOM     20  C   UNL     1      -3.663  12.255  22.835  0.00  0.00    +0.000 A 
BRANCH  19  21
ATOM     21  O   UNL     1      -6.087  12.538  22.484  0.00  0.00    +0.000 OA
ATOM     22  C   UNL     1      -7.029  13.124  21.597  0.00  0.00    +0.000 C 
ENDBRANCH  19  21
ENDBRANCH  11  15
BRANCH   1  23
ATOM     23  C   UNL     1       0.025  11.358  18.493  0.00  0.00    +0.000 C 
BRANCH  23  28
ATOM     24  C   UNL     1      -3.816  11.507  18.342  0.00  0.00    +0.000 A 
ATOM     25  C   UNL     1      -4.081  10.437  17.491  0.00  0.00    +0.000 A 
ATOM     26  C   UNL     1      -3.037   9.696  16.939  0.00  0.00    +0.000 A 
ATOM     27  C   UNL     1      -1.715  10.006  17.260  0.00  0.00    +0.000 A 
ATOM     28  C   UNL     1      -1.424  11.062  18.136  0.00  0.00    +0.000 A 
ATOM     29  C   UNL     1      -2.490  11.832  18.637  0.00  0.00    +0.000 A 
BRANCH  24  31
ATOM     30  C   UNL     1      -6.149  11.938  18.140  0.00  0.00    +0.000 C 
ATOM     31  O   UNL     1      -4.923  12.147  18.831  0.00  0.00    +0.000 OA
ENDBRANCH  24  31
ENDBRANCH  23  28
ENDBRANCH   1  23
TORSDOF 5
ENDMDL
MODEL 2
REMARK VINA RESULT:      -7.7      1.080      1.586
REMARK  Name = 
REMARK  8 active torsions:
REMARK  status: ('A' for Active; 'I' for Inactive)
REMARK    1  A    between atoms: C_1  and  O_2
REMARK    2  A    between atoms: O_2  and  C_3
REMARK    3  A    between atoms: C_7  and  C_8
REMARK    4  A    between atoms: C_8  and  N_9
REMARK    5  A    between atoms: C_12  and  C_13
REMARK    6  A    between atoms: N_19  and  C_20
REMARK    7  A    between atoms: C_24  and  O_25
REMARK    8  A    between atoms: O_25  and  C_26
REMARK                            x       y       z     vdW  Elec       q    Type
REMARK                         _______ _______ _______ _____ _____    ______ ____
ROOT
ATOM      1  N   UNL     1       0.661  10.445  19.336  0.00  0.00    +0.000 N 
ATOM      2  C   UNL     1       1.446   9.518  18.672  0.00  0.00    +0.000 A 
ATOM      3  O   UNL     1       1.824   9.613  17.512  0.00  0.00    +0.000 OA
ATOM      4  C   UNL     1       1.835   8.280  19.481  0.00  0.00    +0.000 A 
ATOM      5  C   UNL     1       2.511   7.157  18.747  0.00  0.00    +0.000 C 
ATOM      6  N   UNL     1       1.593   8.156  20.754  0.00  0.00    +0.000 NA
ATOM      7  C   UNL     1       0.898   9.202  21.381  0.00  0.00    +0.000 A 
ATOM      8  C   UNL     1       0.601   9.166  22.725  0.00  0.00    +0.000 A 
ATOM      9  N   UNL     1      -0.111  10.113  23.378  0.00  0.00    +0.000 NA
ATOM     10  C   UNL     1      -0.577  11.128  22.639  0.00  0.00    +0.000 A 
ATOM     11  N   UNL     1      -1.324  12.107  23.293  0.00  0.00    +0.000 N 
ATOM     12  N   UNL     1      -0.339  11.255  21.326  0.00  0.00    +0.000 NA
ATOM     13  C   UNL     1       0.400  10.311  20.719  0.00  0.00    +0.000 A 
ATOM     14  H   UNL     1      -1.406  11.871  24.274  0.00  0.00    +0.000 HD
ENDROOT
BRANCH  11  15
ATOM     15  C   UNL     1      -2.409  12.841  22.780  0.00  0.00    +0.000 A 
ATOM     16  C   UNL     1      -2.240  14.048  22.089  0.00  0.00    +0.000 A 
ATOM     17  C   UNL     1      -3.337  14.754  21.598  0.00  0.00    +0.000 A 
ATOM     18  C   UNL     1      -4.622  14.260  21.805  0.00  0.00    +0.000 A 
ATOM     19  C   UNL     1      -4.819  13.061  22.494  0.00  0.00    +0.000 A 
ATOM     20  C   UNL     1      -3.711  12.350  22.965  0.00  0.00    +0.000 A 
BRANCH  19  21
ATOM     21  O   UNL     1      -6.130  12.704  22.643  0.00  0.00    +0.000 OA
ATOM     22  C   UNL     1      -6.652  12.713  23.965  0.00  0.00    +0.000 C 
ENDBRANCH  19  21
ENDBRANCH  11  15
BRANCH   1  23
ATOM     23  C   UNL     1       0.052  11.542  18.593  0.00  0.00    +0.000 C 
BRANCH  23  28
ATOM     24  C   UNL     1      -2.968  10.181  16.637  0.00  0.00    +0.000 A 
ATOM     25  C   UNL     1      -4.015  10.782  17.332  0.00  0.00    +0.000 A 
ATOM     26  C   UNL     1      -3.759  11.587  18.441  0.00  0.00    +0.000 A 
ATOM     27  C   UNL     1      -2.444  11.819  18.847  0.00  0.00    +0.000 A 
ATOM     28  C   UNL     1      -1.371  11.247  18.147  0.00  0.00    +0.000 A 
ATOM     29  C   UNL     1      -1.656  10.393  17.065  0.00  0.00    +0.000 A 
BRANCH  24  31
ATOM     30  C   UNL     1      -3.495  10.103  14.316  0.00  0.00    +0.000 C 
ATOM     31  O   UNL     1      -3.345   9.427  15.559  0.00  0.00    +0.000 OA
ENDBRANCH  24  31
ENDBRANCH  23  28
ENDBRANCH   1  23
TORSDOF 5
ENDMDL
MODEL 3
REMARK VINA RESULT:      -7.3      1.060      1.757
REMARK  Name = 
REMARK  8 active torsions:
REMARK  status: ('A' for Active; 'I' for Inactive)
REMARK    1  A    between atoms: C_1  and  O_2
REMARK    2  A    between atoms: O_2  and  C_3
REMARK    3  A    between atoms: C_7  and  C_8
REMARK    4  A    between atoms: C_8  and  N_9
REMARK    5  A    between atoms: C_12  and  C_13
REMARK    6  A    between atoms: N_19  and  C_20
REMARK    7  A    between atoms: C_24  and  O_25
REMARK    8  A    between atoms: O_25  and  C_26
REMARK                            x       y       z     vdW  Elec       q    Type
REMARK                         _______ _______ _______ _____ _____    ______ ____
ROOT
ATOM      1  N   UNL     1       0.611  10.308  19.453  0.00  0.00    +0.000 N 
ATOM      2  C   UNL     1       1.401   9.310  18.910  0.00  0.00    +0.000 A 
ATOM      3  O   UNL     1       1.829   9.293  17.763  0.00  0.00    +0.000 OA
ATOM      4  C   UNL     1       1.729   8.144  19.842  0.00  0.00    +0.000 A 
ATOM      5  C   UNL     1       2.410   6.946  19.242  0.00  0.00    +0.000 C 
ATOM      6  N   UNL     1       1.432   8.140  21.110  0.00  0.00    +0.000 NA
ATOM      7  C   UNL     1       0.734   9.251  21.609  0.00  0.00    +0.000 A 
ATOM      8  C   UNL     1       0.382   9.342  22.938  0.00  0.00    +0.000 A 
ATOM      9  N   UNL     1      -0.335  10.357  23.471  0.00  0.00    +0.000 NA
ATOM     10  C   UNL     1      -0.748  11.309  22.625  0.00  0.00    +0.000 A 
ATOM     11  N   UNL     1      -1.500  12.357  23.156  0.00  0.00    +0.000 N 
ATOM     12  N   UNL     1      -0.453  11.313  21.317  0.00  0.00    +0.000 NA
ATOM     13  C   UNL     1       0.289  10.304  20.830  0.00  0.00    +0.000 A 
ATOM     14  H   UNL     1      -1.627  12.213  24.149  0.00  0.00    +0.000 HD
ENDROOT
BRANCH  11  15
ATOM     15  C   UNL     1      -2.546  13.061  22.532  0.00  0.00    +0.000 A 
ATOM     16  C   UNL     1      -3.864  12.585  22.510  0.00  0.00    +0.000 A 
ATOM     17  C   UNL     1      -4.876  13.305  21.877  0.00  0.00    +0.000 A 
ATOM     18  C   UNL     1      -4.575  14.509  21.248  0.00  0.00    +0.000 A 
ATOM     19  C   UNL     1      -3.269  15.004  21.251  0.00  0.00    +0.000 A 
ATOM     20  C   UNL     1      -2.264  14.286  21.905  0.00  0.00    +0.000 A 
BRANCH  19  21
ATOM     21  O   UNL     1      -3.110  16.185  20.579  0.00  0.00    +0.000 OA
ATOM     22  C   UNL     1      -2.123  17.079  21.076  0.00  0.00    +0.000 C 
ENDBRANCH  19  21
ENDBRANCH  11  15
BRANCH   1  23
ATOM     23  C   UNL     1       0.057  11.344  18.589  0.00  0.00    +0.000 C 
BRANCH  23  28
ATOM     24  C   UNL     1      -3.766  11.525  18.203  0.00  0.00    +0.000 A 
ATOM     25  C   UNL     1      -3.988  10.450  17.345  0.00  0.00    +0.000 A 
ATOM     26  C   UNL     1      -2.919   9.695  16.865  0.00  0.00    +0.000 A 
ATOM     27  C   UNL     1      -1.617   9.996  17.263  0.00  0.00    +0.000 A 
ATOM     28  C   UNL     1      -1.370  11.057  18.147  0.00  0.00    +0.000 A 
ATOM     29  C   UNL     1      -2.458  11.841  18.575  0.00  0.00    +0.000 A 
BRANCH  24  31
ATOM     30  C   UNL     1      -5.905  12.408  17.642  0.00  0.00    +0.000 C 
ATOM     31  O   UNL     1      -4.895  12.180  18.617  0.00  0.00    +0.000 OA
ENDBRANCH  24  31
ENDBRANCH  23  28
ENDBRANCH   1  23
TORSDOF 5
ENDMDL
MODEL 4
REMARK VINA RESULT:      -7.3      1.431      2.236
REMARK  Name = 
REMARK  8 active torsions:
REMARK  status: ('A' for Active; 'I' for Inactive)
REMARK    1  A    between atoms: C_1  and  O_2
REMARK    2  A    between atoms: O_2  and  C_3
REMARK    3  A    between atoms: C_7  and  C_8
REMARK    4  A    between atoms: C_8  and  N_9
REMARK    5  A    between atoms: C_12  and  C_13
REMARK    6  A    between atoms: N_19  and  C_20
REMARK    7  A    between atoms: C_24  and  O_25
REMARK    8  A    between atoms: O_25  and  C_26
REMARK                            x       y       z     vdW  Elec       q    Type
REMARK                         _______ _______ _______ _____ _____    ______ ____
ROOT
ATOM      1  N   UNL     1       0.567  10.553  19.376  0.00  0.00    +0.000 N 
ATOM      2  C   UNL     1       1.351   9.605  18.741  0.00  0.00    +0.000 A 
ATOM      3  O   UNL     1       1.745   9.674  17.584  0.00  0.00    +0.000 OA
ATOM      4  C   UNL     1       1.718   8.381  19.579  0.00  0.00    +0.000 A 
ATOM      5  C   UNL     1       2.393   7.236  18.877  0.00  0.00    +0.000 C 
ATOM      6  N   UNL     1       1.459   8.284  20.852  0.00  0.00    +0.000 NA
ATOM      7  C   UNL     1       0.766   9.349  21.448  0.00  0.00    +0.000 A 
ATOM      8  C   UNL     1       0.453   9.343  22.789  0.00  0.00    +0.000 A 
ATOM      9  N   UNL     1      -0.258  10.310  23.413  0.00  0.00    +0.000 NA
ATOM     10  C   UNL     1      -0.705  11.314  22.649  0.00  0.00    +0.000 A 
ATOM     11  N   UNL     1      -1.451  12.313  23.274  0.00  0.00    +0.000 N 
ATOM     12  N   UNL     1      -0.450  11.412  21.337  0.00  0.00    +0.000 NA
ATOM     13  C   UNL     1       0.287  10.450  20.758  0.00  0.00    +0.000 A 
ATOM     14  H   UNL     1      -1.547  12.098  24.257  0.00  0.00    +0.000 HD
ENDROOT
BRANCH  11  15
ATOM     15  C   UNL     1      -2.523  13.047  22.731  0.00  0.00    +0.000 A 
ATOM     16  C   UNL     1      -3.736  12.447  22.368  0.00  0.00    +0.000 A 
ATOM     17  C   UNL     1      -4.775  13.202  21.827  0.00  0.00    +0.000 A 
ATOM     18  C   UNL     1      -4.606  14.570  21.635  0.00  0.00    +0.000 A 
ATOM     19  C   UNL     1      -3.405  15.191  21.985  0.00  0.00    +0.000 A 
ATOM     20  C   UNL     1      -2.375  14.430  22.545  0.00  0.00    +0.000 A 
BRANCH  19  21
ATOM     21  O   UNL     1      -3.366  16.533  21.723  0.00  0.00    +0.000 OA
ATOM     22  C   UNL     1      -3.094  16.919  20.383  0.00  0.00    +0.000 C 
ENDBRANCH  19  21
ENDBRANCH  11  15
BRANCH   1  23
ATOM     23  C   UNL     1      -0.022  11.640  18.603  0.00  0.00    +0.000 C 
BRANCH  23  28
ATOM     24  C   UNL     1      -3.053  10.300  16.650  0.00  0.00    +0.000 A 
ATOM     25  C   UNL     1      -4.095  10.910  17.344  0.00  0.00    +0.000 A 
ATOM     26  C   UNL     1      -3.832  11.715  18.452  0.00  0.00    +0.000 A 
ATOM     27  C   UNL     1      -2.516  11.937  18.857  0.00  0.00    +0.000 A 
ATOM     28  C   UNL     1      -1.448  11.355  18.158  0.00  0.00    +0.000 A 
ATOM     29  C   UNL     1      -1.739  10.502  17.078  0.00  0.00    +0.000 A 
BRANCH  24  31
ATOM     30  C   UNL     1      -3.208  10.100  14.282  0.00  0.00    +0.000 C 
ATOM     31  O   UNL     1      -3.436   9.547  15.573  0.00  0.00    +0.000 OA
ENDBRANCH  24  31
ENDBRANCH  23  28
ENDBRANCH   1  23
TORSDOF 5
ENDMDL
MODEL 5
REMARK VINA RESULT:      -7.1      4.926      9.516
REMARK  Name = 
REMARK  8 active torsions:
REMARK  status: ('A' for Active; 'I' for Inactive)
REMARK    1  A    between atoms: C_1  and  O_2
REMARK    2  A    between atoms: O_2  and  C_3
REMARK    3  A    between atoms: C_7  and  C_8
REMARK    4  A    between atoms: C_8  and  N_9
REMARK    5  A    between atoms: C_12  and  C_13
REMARK    6  A    between atoms: N_19  and  C_20
REMARK    7  A    between atoms: C_24  and  O_25
REMARK    8  A    between atoms: O_25  and  C_26
REMARK                            x       y       z     vdW  Elec       q    Type
REMARK                         _______ _______ _______ _____ _____    ______ ____
ROOT
ATOM      1  N   UNL     1       2.692   5.124  19.086  0.00  0.00    +0.000 N 
ATOM      2  C   UNL     1       1.611   4.304  19.361  0.00  0.00    +0.000 A 
ATOM      3  O   UNL     1       0.775   4.506  20.231  0.00  0.00    +0.000 OA
ATOM      4  C   UNL     1       1.498   3.047  18.499  0.00  0.00    +0.000 A 
ATOM      5  C   UNL     1       0.464   2.029  18.889  0.00  0.00    +0.000 C 
ATOM      6  N   UNL     1       2.259   2.820  17.467  0.00  0.00    +0.000 NA
ATOM      7  C   UNL     1       3.256   3.767  17.183  0.00  0.00    +0.000 A 
ATOM      8  C   UNL     1       4.105   3.618  16.109  0.00  0.00    +0.000 A 
ATOM      9  N   UNL     1       5.118   4.464  15.813  0.00  0.00    +0.000 NA
ATOM     10  C   UNL     1       5.309   5.489  16.652  0.00  0.00    +0.000 A 
ATOM     11  N   UNL     1       6.358   6.364  16.368  0.00  0.00    +0.000 N 
ATOM     12  N   UNL     1       4.535   5.722  17.721  0.00  0.00    +0.000 NA
ATOM     13  C   UNL     1       3.518   4.878  17.965  0.00  0.00    +0.000 A 
ATOM     14  H   UNL     1       6.837   6.057  15.532  0.00  0.00    +0.000 HD
ENDROOT
BRANCH  11  15
ATOM     15  C   UNL     1       7.174   7.049  17.288  0.00  0.00    +0.000 A 
ATOM     16  C   UNL     1       7.761   6.413  18.390  0.00  0.00    +0.000 A 
ATOM     17  C   UNL     1       8.559   7.123  19.285  0.00  0.00    +0.000 A 
ATOM     18  C   UNL     1       8.769   8.485  19.091  0.00  0.00    +0.000 A 
ATOM     19  C   UNL     1       8.192   9.143  18.003  0.00  0.00    +0.000 A 
ATOM     20  C   UNL     1       7.410   8.420  17.099  0.00  0.00    +0.000 A 
BRANCH  19  21
ATOM     21  O   UNL     1       8.463  10.483  17.944  0.00  0.00    +0.000 OA
ATOM     22  C   UNL     1       9.371  10.998  18.909  0.00  0.00    +0.000 C 
ENDBRANCH  19  21
ENDBRANCH  11  15
BRANCH   1  23
ATOM     23  C   UNL     1       3.017   6.221  19.991  0.00  0.00    +0.000 C 
BRANCH  23  28
ATOM     24  C   UNL     1       0.654   9.219  20.464  0.00  0.00    +0.000 A 
ATOM     25  C   UNL     1       0.664   9.759  19.179  0.00  0.00    +0.000 A 
ATOM     26  C   UNL     1       1.450   9.189  18.179  0.00  0.00    +0.000 A 
ATOM     27  C   UNL     1       2.214   8.054  18.452  0.00  0.00    +0.000 A 
ATOM     28  C   UNL     1       2.199   7.476  19.730  0.00  0.00    +0.000 A 
ATOM     29  C   UNL     1       1.442   8.100  20.740  0.00  0.00    +0.000 A 
BRANCH  24  31
ATOM     30  C   UNL     1      -0.008   9.532  22.730  0.00  0.00    +0.000 C 
ATOM     31  O   UNL     1      -0.168   9.857  21.354  0.00  0.00    +0.000 OA
ENDBRANCH  24  31
ENDBRANCH  23  28
ENDBRANCH   1  23
TORSDOF 5
ENDMDL
MODEL 6
REMARK VINA RESULT:      -6.7      1.956      6.391
REMARK  Name = 
REMARK  8 active torsions:
REMARK  status: ('A' for Active; 'I' for Inactive)
REMARK    1  A    between atoms: C_1  and  O_2
REMARK    2  A    between atoms: O_2  and  C_3
REMARK    3  A    between atoms: C_7  and  C_8
REMARK    4  A    between atoms: C_8  and  N_9
REMARK    5  A    between atoms: C_12  and  C_13
REMARK    6  A    between atoms: N_19  and  C_20
REMARK    7  A    between atoms: C_24  and  O_25
REMARK    8  A    between atoms: O_25  and  C_26
REMARK                            x       y       z     vdW  Elec       q    Type
REMARK                         _______ _______ _______ _____ _____    ______ ____
ROOT
ATOM      1  N   UNL     1      -0.941  12.149  20.462  0.00  0.00    +0.000 N 
ATOM      2  C   UNL     1      -1.527  13.284  20.997  0.00  0.00    +0.000 A 
ATOM      3  O   UNL     1      -1.978  14.219  20.349  0.00  0.00    +0.000 OA
ATOM      4  C   UNL     1      -1.580  13.343  22.523  0.00  0.00    +0.000 A 
ATOM      5  C   UNL     1      -2.021  14.635  23.152  0.00  0.00    +0.000 C 
ATOM      6  N   UNL     1      -1.250  12.342  23.288  0.00  0.00    +0.000 NA
ATOM      7  C   UNL     1      -0.780  11.180  22.656  0.00  0.00    +0.000 A 
ATOM      8  C   UNL     1      -0.413  10.066  23.379  0.00  0.00    +0.000 A 
ATOM      9  N   UNL     1       0.098   8.937  22.837  0.00  0.00    +0.000 NA
ATOM     10  C   UNL     1       0.281   8.938  21.511  0.00  0.00    +0.000 A 
ATOM     11  N   UNL     1       0.818   7.786  20.937  0.00  0.00    +0.000 N 
ATOM     12  N   UNL     1      -0.048   9.969  20.721  0.00  0.00    +0.000 NA
ATOM     13  C   UNL     1      -0.584  11.062  21.291  0.00  0.00    +0.000 A 
ATOM     14  H   UNL     1       1.003   7.103  21.660  0.00  0.00    +0.000 HD
ENDROOT
BRANCH  11  15
ATOM     15  C   UNL     1       1.679   7.704  19.826  0.00  0.00    +0.000 A 
ATOM     16  C   UNL     1       1.725   8.696  18.838  0.00  0.00    +0.000 A 
ATOM     17  C   UNL     1       2.585   8.582  17.747  0.00  0.00    +0.000 A 
ATOM     18  C   UNL     1       3.404   7.463  17.629  0.00  0.00    +0.000 A 
ATOM     19  C   UNL     1       3.374   6.458  18.598  0.00  0.00    +0.000 A 
ATOM     20  C   UNL     1       2.523   6.590  19.699  0.00  0.00    +0.000 A 
BRANCH  19  21
ATOM     21  O   UNL     1       4.213   5.406  18.349  0.00  0.00    +0.000 OA
ATOM     22  C   UNL     1       3.769   4.441  17.405  0.00  0.00    +0.000 C 
ENDBRANCH  19  21
ENDBRANCH  11  15
BRANCH   1  23
ATOM     23  C   UNL     1      -0.638  12.096  19.036  0.00  0.00    +0.000 C 
BRANCH  23  28
ATOM     24  C   UNL     1      -4.022  11.064  17.526  0.00  0.00    +0.000 A 
ATOM     25  C   UNL     1      -3.634   9.977  16.747  0.00  0.00    +0.000 A 
ATOM     26  C   UNL     1      -2.294   9.599  16.676  0.00  0.00    +0.000 A 
ATOM     27  C   UNL     1      -1.333  10.294  17.410  0.00  0.00    +0.000 A 
ATOM     28  C   UNL     1      -1.703  11.376  18.223  0.00  0.00    +0.000 A 
ATOM     29  C   UNL     1      -3.052  11.775  18.235  0.00  0.00    +0.000 A 
BRANCH  24  31
ATOM     30  C   UNL     1      -6.126  10.819  18.615  0.00  0.00    +0.000 C 
ATOM     31  O   UNL     1      -5.366  11.328  17.525  0.00  0.00    +0.000 OA
ENDBRANCH  24  31
ENDBRANCH  23  28
ENDBRANCH   1  23
TORSDOF 5
ENDMDL
MODEL 7
REMARK VINA RESULT:      -6.7      2.044      3.627
REMARK  Name = 
REMARK  8 active torsions:
REMARK  status: ('A' for Active; 'I' for Inactive)
REMARK    1  A    between atoms: C_1  and  O_2
REMARK    2  A    between atoms: O_2  and  C_3
REMARK    3  A    between atoms: C_7  and  C_8
REMARK    4  A    between atoms: C_8  and  N_9
REMARK    5  A    between atoms: C_12  and  C_13
REMARK    6  A    between atoms: N_19  and  C_20
REMARK    7  A    between atoms: C_24  and  O_25
REMARK    8  A    between atoms: O_25  and  C_26
REMARK                            x       y       z     vdW  Elec       q    Type
REMARK                         _______ _______ _______ _____ _____    ______ ____
ROOT
ATOM      1  N   UNL     1       0.499  10.252  19.309  0.00  0.00    +0.000 N 
ATOM      2  C   UNL     1       1.313   9.335  18.665  0.00  0.00    +0.000 A 
ATOM      3  O   UNL     1       1.638   9.386  17.486  0.00  0.00    +0.000 OA
ATOM      4  C   UNL     1       1.808   8.172  19.524  0.00  0.00    +0.000 A 
ATOM      5  C   UNL     1       2.524   7.050  18.825  0.00  0.00    +0.000 C 
ATOM      6  N   UNL     1       1.625   8.108  20.811  0.00  0.00    +0.000 NA
ATOM      7  C   UNL     1       0.891   9.145  21.407  0.00  0.00    +0.000 A 
ATOM      8  C   UNL     1       0.651   9.170  22.764  0.00  0.00    +0.000 A 
ATOM      9  N   UNL     1      -0.092  10.110  23.392  0.00  0.00    +0.000 NA
ATOM     10  C   UNL     1      -0.648  11.050  22.619  0.00  0.00    +0.000 A 
ATOM     11  N   UNL     1      -1.428  12.020  23.249  0.00  0.00    +0.000 N 
ATOM     12  N   UNL     1      -0.470  11.115  21.292  0.00  0.00    +0.000 NA
ATOM     13  C   UNL     1       0.301  10.183  20.707  0.00  0.00    +0.000 A 
ATOM     14  H   UNL     1      -1.456  11.837  24.243  0.00  0.00    +0.000 HD
ENDROOT
BRANCH  11  15
ATOM     15  C   UNL     1      -2.575  12.658  22.742  0.00  0.00    +0.000 A 
ATOM     16  C   UNL     1      -2.530  13.519  21.637  0.00  0.00    +0.000 A 
ATOM     17  C   UNL     1      -3.685  14.140  21.164  0.00  0.00    +0.000 A 
ATOM     18  C   UNL     1      -4.901  13.911  21.802  0.00  0.00    +0.000 A 
ATOM     19  C   UNL     1      -4.973  13.060  22.907  0.00  0.00    +0.000 A 
ATOM     20  C   UNL     1      -3.813  12.426  23.362  0.00  0.00    +0.000 A 
BRANCH  19  21
ATOM     21  O   UNL     1      -6.223  12.941  23.449  0.00  0.00    +0.000 OA
ATOM     22  C   UNL     1      -7.324  13.123  22.569  0.00  0.00    +0.000 C 
ENDBRANCH  19  21
ENDBRANCH  11  15
BRANCH   1  23
ATOM     23  C   UNL     1      -0.205  11.266  18.533  0.00  0.00    +0.000 C 
BRANCH  23  28
ATOM     24  C   UNL     1       2.451  14.049  18.556  0.00  0.00    +0.000 A 
ATOM     25  C   UNL     1       1.645  15.170  18.742  0.00  0.00    +0.000 A 
ATOM     26  C   UNL     1       0.260  15.040  18.822  0.00  0.00    +0.000 A 
ATOM     27  C   UNL     1      -0.329  13.778  18.744  0.00  0.00    +0.000 A 
ATOM     28  C   UNL     1       0.463  12.631  18.584  0.00  0.00    +0.000 A 
ATOM     29  C   UNL     1       1.854  12.791  18.448  0.00  0.00    +0.000 A 
BRANCH  24  31
ATOM     30  C   UNL     1       4.215  15.424  17.739  0.00  0.00    +0.000 C 
ATOM     31  O   UNL     1       3.795  14.302  18.506  0.00  0.00    +0.000 OA
ENDBRANCH  24  31
ENDBRANCH  23  28
ENDBRANCH   1  23
TORSDOF 5
ENDMDL
MODEL 8
REMARK VINA RESULT:      -6.7      2.083      3.028
REMARK  Name = 
REMARK  8 active torsions:
REMARK  status: ('A' for Active; 'I' for Inactive)
REMARK    1  A    between atoms: C_1  and  O_2
REMARK    2  A    between atoms: O_2  and  C_3
REMARK    3  A    between atoms: C_7  and  C_8
REMARK    4  A    between atoms: C_8  and  N_9
REMARK    5  A    between atoms: C_12  and  C_13
REMARK    6  A    between atoms: N_19  and  C_20
REMARK    7  A    between atoms: C_24  and  O_25
REMARK    8  A    between atoms: O_25  and  C_26
REMARK                            x       y       z     vdW  Elec       q    Type
REMARK                         _______ _______ _______ _____ _____    ______ ____
ROOT
ATOM      1  N   UNL     1       0.465  10.237  19.287  0.00  0.00    +0.000 N 
ATOM      2  C   UNL     1       1.318   9.389  18.601  0.00  0.00    +0.000 A 
ATOM      3  O   UNL     1       1.616   9.492  17.419  0.00  0.00    +0.000 OA
ATOM      4  C   UNL     1       1.899   8.235  19.416  0.00  0.00    +0.000 A 
ATOM      5  C   UNL     1       2.665   7.177  18.672  0.00  0.00    +0.000 C 
ATOM      6  N   UNL     1       1.746   8.123  20.704  0.00  0.00    +0.000 NA
ATOM      7  C   UNL     1       0.965   9.098  21.345  0.00  0.00    +0.000 A 
ATOM      8  C   UNL     1       0.752   9.071  22.705  0.00  0.00    +0.000 A 
ATOM      9  N   UNL     1      -0.033   9.946  23.374  0.00  0.00    +0.000 NA
ATOM     10  C   UNL     1      -0.659  10.873  22.640  0.00  0.00    +0.000 A 
ATOM     11  N   UNL     1      -1.482  11.776  23.312  0.00  0.00    +0.000 N 
ATOM     12  N   UNL     1      -0.513  10.985  21.312  0.00  0.00    +0.000 NA
ATOM     13  C   UNL     1       0.300  10.118  20.686  0.00  0.00    +0.000 A 
ATOM     14  H   UNL     1      -1.479  11.564  24.301  0.00  0.00    +0.000 HD
ENDROOT
BRANCH  11  15
ATOM     15  C   UNL     1      -2.676  12.358  22.846  0.00  0.00    +0.000 A 
ATOM     16  C   UNL     1      -2.815  12.841  21.538  0.00  0.00    +0.000 A 
ATOM     17  C   UNL     1      -4.009  13.417  21.110  0.00  0.00    +0.000 A 
ATOM     18  C   UNL     1      -5.078  13.525  21.994  0.00  0.00    +0.000 A 
ATOM     19  C   UNL     1      -4.965  13.055  23.304  0.00  0.00    +0.000 A 
ATOM     20  C   UNL     1      -3.770  12.461  23.720  0.00  0.00    +0.000 A 
BRANCH  19  21
ATOM     21  O   UNL     1      -6.081  13.243  24.072  0.00  0.00    +0.000 OA
ATOM     22  C   UNL     1      -7.275  12.607  23.635  0.00  0.00    +0.000 C 
ENDBRANCH  19  21
ENDBRANCH  11  15
BRANCH   1  23
ATOM     23  C   UNL     1      -0.314  11.228  18.554  0.00  0.00    +0.000 C 
BRANCH  23  28
ATOM     24  C   UNL     1       0.018  15.047  18.875  0.00  0.00    +0.000 A 
ATOM     25  C   UNL     1       1.394  15.199  18.718  0.00  0.00    +0.000 A 
ATOM     26  C   UNL     1       2.214  14.084  18.548  0.00  0.00    +0.000 A 
ATOM     27  C   UNL     1       1.656  12.807  18.506  0.00  0.00    +0.000 A 
ATOM     28  C   UNL     1       0.270  12.630  18.634  0.00  0.00    +0.000 A 
ATOM     29  C   UNL     1      -0.532  13.764  18.862  0.00  0.00    +0.000 A 
BRANCH  24  31
ATOM     30  C   UNL     1      -0.463  17.226  18.043  0.00  0.00    +0.000 C 
ATOM     31  O   UNL     1      -0.681  16.215  19.020  0.00  0.00    +0.000 OA
ENDBRANCH  24  31
ENDBRANCH  23  28
ENDBRANCH   1  23
TORSDOF 5
ENDMDL
MODEL 9
REMARK VINA RESULT:      -6.6      2.525      4.457
REMARK  Name = 
REMARK  8 active torsions:
REMARK  status: ('A' for Active; 'I' for Inactive)
REMARK    1  A    between atoms: C_1  and  O_2
REMARK    2  A    between atoms: O_2  and  C_3
REMARK    3  A    between atoms: C_7  and  C_8
REMARK    4  A    between atoms: C_8  and  N_9
REMARK    5  A    between atoms: C_12  and  C_13
REMARK    6  A    between atoms: N_19  and  C_20
REMARK    7  A    between atoms: C_24  and  O_25
REMARK    8  A    between atoms: O_25  and  C_26
REMARK                            x       y       z     vdW  Elec       q    Type
REMARK                         _______ _______ _______ _____ _____    ______ ____
ROOT
ATOM      1  N   UNL     1      -3.618  11.888  18.244  0.00  0.00    +0.000 N 
ATOM      2  C   UNL     1      -3.778  11.320  16.992  0.00  0.00    +0.000 A 
ATOM      3  O   UNL     1      -4.706  11.545  16.227  0.00  0.00    +0.000 OA
ATOM      4  C   UNL     1      -2.696  10.324  16.575  0.00  0.00    +0.000 A 
ATOM      5  C   UNL     1      -2.929   9.533  15.318  0.00  0.00    +0.000 C 
ATOM      6  N   UNL     1      -1.608  10.125  17.261  0.00  0.00    +0.000 NA
ATOM      7  C   UNL     1      -1.468  10.836  18.463  0.00  0.00    +0.000 A 
ATOM      8  C   UNL     1      -0.349  10.698  19.255  0.00  0.00    +0.000 A 
ATOM      9  N   UNL     1      -0.176  11.312  20.448  0.00  0.00    +0.000 NA
ATOM     10  C   UNL     1      -1.187  12.073  20.884  0.00  0.00    +0.000 A 
ATOM     11  N   UNL     1      -1.031  12.703  22.118  0.00  0.00    +0.000 N 
ATOM     12  N   UNL     1      -2.314  12.273  20.185  0.00  0.00    +0.000 NA
ATOM     13  C   UNL     1      -2.436  11.673  18.989  0.00  0.00    +0.000 A 
ATOM     14  H   UNL     1      -0.131  12.459  22.510  0.00  0.00    +0.000 HD
ENDROOT
BRANCH  11  15
ATOM     15  C   UNL     1      -2.029  12.973  23.074  0.00  0.00    +0.000 A 
ATOM     16  C   UNL     1      -3.014  12.037  23.415  0.00  0.00    +0.000 A 
ATOM     17  C   UNL     1      -3.992  12.339  24.362  0.00  0.00    +0.000 A 
ATOM     18  C   UNL     1      -3.999  13.590  24.971  0.00  0.00    +0.000 A 
ATOM     19  C   UNL     1      -3.030  14.542  24.645  0.00  0.00    +0.000 A 
ATOM     20  C   UNL     1      -2.042  14.224  23.709  0.00  0.00    +0.000 A 
BRANCH  19  21
ATOM     21  O   UNL     1      -3.166  15.735  25.301  0.00  0.00    +0.000 OA
ATOM     22  C   UNL     1      -4.258  16.559  24.915  0.00  0.00    +0.000 C 
ENDBRANCH  19  21
ENDBRANCH  11  15
BRANCH   1  23
ATOM     23  C   UNL     1      -4.702  12.671  18.826  0.00  0.00    +0.000 C 
BRANCH  23  28
ATOM     24  C   UNL     1      -7.201  11.320  21.420  0.00  0.00    +0.000 A 
ATOM     25  C   UNL     1      -7.657  10.178  20.766  0.00  0.00    +0.000 A 
ATOM     26  C   UNL     1      -7.196   9.863  19.488  0.00  0.00    +0.000 A 
ATOM     27  C   UNL     1      -6.251  10.678  18.866  0.00  0.00    +0.000 A 
ATOM     28  C   UNL     1      -5.756  11.819  19.516  0.00  0.00    +0.000 A 
ATOM     29  C   UNL     1      -6.276  12.149  20.781  0.00  0.00    +0.000 A 
BRANCH  24  31
ATOM     30  C   UNL     1      -7.530  12.799  23.257  0.00  0.00    +0.000 C 
ATOM     31  O   UNL     1      -7.716  11.515  22.674  0.00  0.00    +0.000 OA
ENDBRANCH  24  31
ENDBRANCH  23  28
ENDBRANCH   1  23
TORSDOF 5
ENDMDL
