MODEL 1
REMARK VINA RESULT:      -8.9      0.000      0.000
REMARK  Name = 
REMARK  3 active torsions:
REMARK  status: ('A' for Active; 'I' for Inactive)
REMARK    1  A    between atoms: C_2  and  C_3
REMARK    2  A    between atoms: N_5  and  C_6
REMARK    3  A    between atoms: C_13  and  C_14
REMARK                            x       y       z     vdW  Elec       q    Type
REMARK                         _______ _______ _______ _____ _____    ______ ____
ROOT
ATOM      1  C   UNL     1       4.951   4.348  17.744  0.00  0.00    +0.000 A 
ATOM      2  C   UNL     1       5.786   3.897  16.739  0.00  0.00    +0.000 A 
ATOM      3  N   UNL     1       5.631   4.725  15.659  0.00  0.00    +0.000 N 
ATOM      4  N   UNL     1       4.888   5.803  15.979  0.00  0.00    +0.000 NA
ATOM      5  C   UNL     1       4.450   5.591  17.232  0.00  0.00    +0.000 A 
ENDROOT
BRANCH   1   7
ATOM      6  O   UNL     1       5.622   3.890  19.924  0.00  0.00    +0.000 OA
ATOM      7  C   UNL     1       4.753   3.755  19.064  0.00  0.00    +0.000 C 
ATOM      8  N   UNL     1       3.564   3.064  19.346  0.00  0.00    +0.000 N 
ATOM      9  C   UNL     1       2.437   2.810  18.448  0.00  0.00    +0.000 C 
ATOM     10  C   UNL     1       1.137   3.377  19.005  0.00  0.00    +0.000 C 
ATOM     11  C   UNL     1       0.876   2.912  20.432  0.00  0.00    +0.000 C 
ATOM     12  C   UNL     1       2.099   3.119  21.325  0.00  0.00    +0.000 C 
ATOM     13  C   UNL     1       3.369   2.544  20.700  0.00  0.00    +0.000 C 
ENDBRANCH   1   7
BRANCH   3  14
ATOM     14  C   UNL     1       6.167   4.552  14.354  0.00  0.00    +0.000 A 
ATOM     15  C   UNL     1       5.583   3.654  13.449  0.00  0.00    +0.000 A 
ATOM     16  C   UNL     1       6.144   3.471  12.183  0.00  0.00    +0.000 A 
ATOM     17  C   UNL     1       7.286   4.180  11.815  0.00  0.00    +0.000 A 
ATOM     18  C   UNL     1       7.856   5.093  12.702  0.00  0.00    +0.000 A 
ATOM     19  C   UNL     1       7.294   5.290  13.964  0.00  0.00    +0.000 A 
ENDBRANCH   3  14
BRANCH   5  20
ATOM     20  C   UNL     1       3.577   6.590  17.854  0.00  0.00    +0.000 A 
ATOM     21  C   UNL     1       3.026   6.438  19.128  0.00  0.00    +0.000 A 
ATOM     22  C   UNL     1       2.186   7.424  19.648  0.00  0.00    +0.000 A 
ATOM     23  C   UNL     1       1.912   8.537  18.873  0.00  0.00    +0.000 A 
ATOM     24  N   UNL     1       2.412   8.727  17.636  0.00  0.00    +0.000 NA
ATOM     25  C   UNL     1       3.228   7.749  17.159  0.00  0.00    +0.000 A 
ENDBRANCH   5  20
TORSDOF 3
ENDMDL
MODEL 2
REMARK VINA RESULT:      -8.8      0.588      1.367
REMARK  Name = 
REMARK  3 active torsions:
REMARK  status: ('A' for Active; 'I' for Inactive)
REMARK    1  A    between atoms: C_2  and  C_3
REMARK    2  A    between atoms: N_5  and  C_6
REMARK    3  A    between atoms: C_13  and  C_14
REMARK                            x       y       z     vdW  Elec       q    Type
REMARK                         _______ _______ _______ _____ _____    ______ ____
ROOT
ATOM      1  C   UNL     1       4.983   4.389  17.830  0.00  0.00    +0.000 A 
ATOM      2  C   UNL     1       5.838   3.945  16.839  0.00  0.00    +0.000 A 
ATOM      3  N   UNL     1       5.671   4.755  15.747  0.00  0.00    +0.000 N 
ATOM      4  N   UNL     1       4.899   5.819  16.046  0.00  0.00    +0.000 NA
ATOM      5  C   UNL     1       4.456   5.612  17.298  0.00  0.00    +0.000 A 
ENDROOT
BRANCH   1   7
ATOM      6  O   UNL     1       5.639   3.992  20.027  0.00  0.00    +0.000 OA
ATOM      7  C   UNL     1       4.789   3.808  19.156  0.00  0.00    +0.000 C 
ATOM      8  N   UNL     1       3.625   3.074  19.432  0.00  0.00    +0.000 N 
ATOM      9  C   UNL     1       2.523   2.761  18.521  0.00  0.00    +0.000 C 
ATOM     10  C   UNL     1       1.193   3.283  19.050  0.00  0.00    +0.000 C 
ATOM     11  C   UNL     1       0.929   2.830  20.481  0.00  0.00    +0.000 C 
ATOM     12  C   UNL     1       2.129   3.099  21.389  0.00  0.00    +0.000 C 
ATOM     13  C   UNL     1       3.431   2.567  20.791  0.00  0.00    +0.000 C 
ENDBRANCH   1   7
BRANCH   3  14
ATOM     14  C   UNL     1       6.222   4.578  14.448  0.00  0.00    +0.000 A 
ATOM     15  C   UNL     1       7.352   5.303  14.040  0.00  0.00    +0.000 A 
ATOM     16  C   UNL     1       7.858   5.141  12.749  0.00  0.00    +0.000 A 
ATOM     17  C   UNL     1       7.243   4.260  11.861  0.00  0.00    +0.000 A 
ATOM     18  C   UNL     1       6.134   3.519  12.269  0.00  0.00    +0.000 A 
ATOM     19  C   UNL     1       5.630   3.666  13.563  0.00  0.00    +0.000 A 
ENDBRANCH   3  14
BRANCH   5  20
ATOM     20  C   UNL     1       3.553   6.597  17.900  0.00  0.00    +0.000 A 
ATOM     21  C   UNL     1       3.186   7.786  17.266  0.00  0.00    +0.000 A 
ATOM     22  C   UNL     1       2.336   8.687  17.910  0.00  0.00    +0.000 A 
ATOM     23  C   UNL     1       1.882   8.377  19.179  0.00  0.00    +0.000 A 
ATOM     24  N   UNL     1       2.214   7.248  19.837  0.00  0.00    +0.000 NA
ATOM     25  C   UNL     1       3.040   6.390  19.182  0.00  0.00    +0.000 A 
ENDBRANCH   5  20
TORSDOF 3
ENDMDL
MODEL 3
REMARK VINA RESULT:      -7.7      1.664      5.863
REMARK  Name = 
REMARK  3 active torsions:
REMARK  status: ('A' for Active; 'I' for Inactive)
REMARK    1  A    between atoms: C_2  and  C_3
REMARK    2  A    between atoms: N_5  and  C_6
REMARK    3  A    between atoms: C_13  and  C_14
REMARK                            x       y       z     vdW  Elec       q    Type
REMARK                         _______ _______ _______ _____ _____    ______ ____
ROOT
ATOM      1  C   UNL     1       3.648   6.223  18.704  0.00  0.00    +0.000 A 
ATOM      2  C   UNL     1       2.632   7.096  19.044  0.00  0.00    +0.000 A 
ATOM      3  N   UNL     1       2.628   8.114  18.127  0.00  0.00    +0.000 N 
ATOM      4  N   UNL     1       3.459   7.844  17.101  0.00  0.00    +0.000 NA
ATOM      5  C   UNL     1       4.102   6.711  17.434  0.00  0.00    +0.000 A 
ENDROOT
BRANCH   1   7
ATOM      6  O   UNL     1       5.198   4.921  19.854  0.00  0.00    +0.000 OA
ATOM      7  C   UNL     1       4.050   5.013  19.417  0.00  0.00    +0.000 C 
ATOM      8  N   UNL     1       3.119   3.983  19.622  0.00  0.00    +0.000 N 
ATOM      9  C   UNL     1       1.727   3.927  19.174  0.00  0.00    +0.000 C 
ATOM     10  C   UNL     1       0.767   3.756  20.345  0.00  0.00    +0.000 C 
ATOM     11  C   UNL     1       1.153   2.580  21.234  0.00  0.00    +0.000 C 
ATOM     12  C   UNL     1       2.632   2.625  21.619  0.00  0.00    +0.000 C 
ATOM     13  C   UNL     1       3.536   2.817  20.402  0.00  0.00    +0.000 C 
ENDBRANCH   1   7
BRANCH   3  14
ATOM     14  C   UNL     1       1.865   9.312  18.170  0.00  0.00    +0.000 A 
ATOM     15  C   UNL     1       2.492  10.567  18.147  0.00  0.00    +0.000 A 
ATOM     16  C   UNL     1       1.727  11.733  18.225  0.00  0.00    +0.000 A 
ATOM     17  C   UNL     1       0.339  11.655  18.327  0.00  0.00    +0.000 A 
ATOM     18  C   UNL     1      -0.291  10.410  18.325  0.00  0.00    +0.000 A 
ATOM     19  C   UNL     1       0.466   9.240  18.235  0.00  0.00    +0.000 A 
ENDBRANCH   3  14
BRANCH   5  20
ATOM     20  C   UNL     1       5.111   6.174  16.517  0.00  0.00    +0.000 A 
ATOM     21  C   UNL     1       4.811   5.275  15.492  0.00  0.00    +0.000 A 
ATOM     22  C   UNL     1       5.829   4.790  14.669  0.00  0.00    +0.000 A 
ATOM     23  C   UNL     1       7.125   5.215  14.899  0.00  0.00    +0.000 A 
ATOM     24  N   UNL     1       7.467   6.074  15.879  0.00  0.00    +0.000 NA
ATOM     25  C   UNL     1       6.454   6.529  16.662  0.00  0.00    +0.000 A 
ENDBRANCH   5  20
TORSDOF 3
ENDMDL
MODEL 4
REMARK VINA RESULT:      -7.6      2.490      6.131
REMARK  Name = 
REMARK  3 active torsions:
REMARK  status: ('A' for Active; 'I' for Inactive)
REMARK    1  A    between atoms: C_2  and  C_3
REMARK    2  A    between atoms: N_5  and  C_6
REMARK    3  A    between atoms: C_13  and  C_14
REMARK                            x       y       z     vdW  Elec       q    Type
REMARK                         _______ _______ _______ _____ _____    ______ ____
ROOT
ATOM      1  C   UNL     1       2.275   6.054  17.974  0.00  0.00    +0.000 A 
ATOM      2  C   UNL     1       1.426   7.144  17.995  0.00  0.00    +0.000 A 
ATOM      3  N   UNL     1       2.197   8.276  18.022  0.00  0.00    +0.000 N 
ATOM      4  N   UNL     1       3.497   7.982  17.822  0.00  0.00    +0.000 NA
ATOM      5  C   UNL     1       3.573   6.640  17.806  0.00  0.00    +0.000 A 
ENDROOT
BRANCH   1   7
ATOM      6  O   UNL     1       1.999   3.986  16.942  0.00  0.00    +0.000 OA
ATOM      7  C   UNL     1       1.902   4.641  17.980  0.00  0.00    +0.000 C 
ATOM      8  N   UNL     1       1.467   4.040  19.171  0.00  0.00    +0.000 N 
ATOM      9  C   UNL     1       1.294   4.666  20.483  0.00  0.00    +0.000 C 
ATOM     10  C   UNL     1       2.143   3.981  21.547  0.00  0.00    +0.000 C 
ATOM     11  C   UNL     1       1.920   2.474  21.573  0.00  0.00    +0.000 C 
ATOM     12  C   UNL     1       2.030   1.863  20.177  0.00  0.00    +0.000 C 
ATOM     13  C   UNL     1       1.170   2.607  19.156  0.00  0.00    +0.000 C 
ENDBRANCH   1   7
BRANCH   3  14
ATOM     14  C   UNL     1       1.758   9.615  18.209  0.00  0.00    +0.000 A 
ATOM     15  C   UNL     1       2.602  10.697  17.922  0.00  0.00    +0.000 A 
ATOM     16  C   UNL     1       2.166  12.005  18.145  0.00  0.00    +0.000 A 
ATOM     17  C   UNL     1       0.890  12.240  18.654  0.00  0.00    +0.000 A 
ATOM     18  C   UNL     1       0.036  11.168  18.918  0.00  0.00    +0.000 A 
ATOM     19  C   UNL     1       0.461   9.859  18.686  0.00  0.00    +0.000 A 
ENDBRANCH   3  14
BRANCH   5  20
ATOM     20  C   UNL     1       4.885   6.009  17.635  0.00  0.00    +0.000 A 
ATOM     21  C   UNL     1       5.587   6.018  16.428  0.00  0.00    +0.000 A 
ATOM     22  C   UNL     1       6.824   5.378  16.335  0.00  0.00    +0.000 A 
ATOM     23  C   UNL     1       7.323   4.736  17.454  0.00  0.00    +0.000 A 
ATOM     24  N   UNL     1       6.681   4.692  18.639  0.00  0.00    +0.000 NA
ATOM     25  C   UNL     1       5.480   5.326  18.697  0.00  0.00    +0.000 A 
ENDBRANCH   5  20
TORSDOF 3
ENDMDL
MODEL 5
REMARK VINA RESULT:      -7.4      2.234      6.226
REMARK  Name = 
REMARK  3 active torsions:
REMARK  status: ('A' for Active; 'I' for Inactive)
REMARK    1  A    between atoms: C_2  and  C_3
REMARK    2  A    between atoms: N_5  and  C_6
REMARK    3  A    between atoms: C_13  and  C_14
REMARK                            x       y       z     vdW  Elec       q    Type
REMARK                         _______ _______ _______ _____ _____    ______ ____
ROOT
ATOM      1  C   UNL     1       2.285   5.923  17.950  0.00  0.00    +0.000 A 
ATOM      2  C   UNL     1       1.466   6.986  18.280  0.00  0.00    +0.000 A 
ATOM      3  N   UNL     1       2.213   8.132  18.202  0.00  0.00    +0.000 N 
ATOM      4  N   UNL     1       3.418   7.888  17.650  0.00  0.00    +0.000 NA
ATOM      5  C   UNL     1       3.493   6.554  17.503  0.00  0.00    +0.000 A 
ENDROOT
BRANCH   1   7
ATOM      6  O   UNL     1       1.140   4.089  17.089  0.00  0.00    +0.000 OA
ATOM      7  C   UNL     1       1.932   4.506  17.934  0.00  0.00    +0.000 C 
ATOM      8  N   UNL     1       2.521   3.630  18.859  0.00  0.00    +0.000 N 
ATOM      9  C   UNL     1       3.473   3.953  19.923  0.00  0.00    +0.000 C 
ATOM     10  C   UNL     1       4.770   3.168  19.771  0.00  0.00    +0.000 C 
ATOM     11  C   UNL     1       4.521   1.672  19.631  0.00  0.00    +0.000 C 
ATOM     12  C   UNL     1       3.464   1.373  18.568  0.00  0.00    +0.000 C 
ATOM     13  C   UNL     1       2.198   2.205  18.768  0.00  0.00    +0.000 C 
ENDBRANCH   1   7
BRANCH   3  14
ATOM     14  C   UNL     1       1.832   9.440  18.608  0.00  0.00    +0.000 A 
ATOM     15  C   UNL     1       2.319  10.572  17.938  0.00  0.00    +0.000 A 
ATOM     16  C   UNL     1       1.961  11.850  18.372  0.00  0.00    +0.000 A 
ATOM     17  C   UNL     1       1.119  12.006  19.472  0.00  0.00    +0.000 A 
ATOM     18  C   UNL     1       0.612  10.883  20.126  0.00  0.00    +0.000 A 
ATOM     19  C   UNL     1       0.955   9.602  19.690  0.00  0.00    +0.000 A 
ENDBRANCH   3  14
BRANCH   5  20
ATOM     20  C   UNL     1       4.718   5.972  16.948  0.00  0.00    +0.000 A 
ATOM     21  C   UNL     1       4.774   4.692  16.393  0.00  0.00    +0.000 A 
ATOM     22  C   UNL     1       5.982   4.196  15.900  0.00  0.00    +0.000 A 
ATOM     23  C   UNL     1       7.109   4.995  15.985  0.00  0.00    +0.000 A 
ATOM     24  N   UNL     1       7.110   6.232  16.520  0.00  0.00    +0.000 NA
ATOM     25  C   UNL     1       5.917   6.687  16.988  0.00  0.00    +0.000 A 
ENDBRANCH   5  20
TORSDOF 3
ENDMDL
MODEL 6
REMARK VINA RESULT:      -7.4      2.562      6.874
REMARK  Name = 
REMARK  3 active torsions:
REMARK  status: ('A' for Active; 'I' for Inactive)
REMARK    1  A    between atoms: C_2  and  C_3
REMARK    2  A    between atoms: N_5  and  C_6
REMARK    3  A    between atoms: C_13  and  C_14
REMARK                            x       y       z     vdW  Elec       q    Type
REMARK                         _______ _______ _______ _____ _____    ______ ____
ROOT
ATOM      1  C   UNL     1       3.120   6.181  18.293  0.00  0.00    +0.000 A 
ATOM      2  C   UNL     1       3.052   7.555  18.156  0.00  0.00    +0.000 A 
ATOM      3  N   UNL     1       2.114   8.019  19.040  0.00  0.00    +0.000 N 
ATOM      4  N   UNL     1       1.714   7.043  19.879  0.00  0.00    +0.000 NA
ATOM      5  C   UNL     1       2.297   5.915  19.437  0.00  0.00    +0.000 A 
ENDROOT
BRANCH   1   7
ATOM      6  O   UNL     1       3.587   4.889  16.415  0.00  0.00    +0.000 OA
ATOM      7  C   UNL     1       3.955   5.257  17.530  0.00  0.00    +0.000 C 
ATOM      8  N   UNL     1       5.179   4.822  18.062  0.00  0.00    +0.000 N 
ATOM      9  C   UNL     1       5.764   5.156  19.361  0.00  0.00    +0.000 C 
ATOM     10  C   UNL     1       7.133   5.808  19.209  0.00  0.00    +0.000 C 
ATOM     11  C   UNL     1       8.065   4.981  18.332  0.00  0.00    +0.000 C 
ATOM     12  C   UNL     1       7.397   4.581  17.017  0.00  0.00    +0.000 C 
ATOM     13  C   UNL     1       6.022   3.952  17.241  0.00  0.00    +0.000 C 
ENDBRANCH   1   7
BRANCH   3  14
ATOM     14  C   UNL     1       1.598   9.340  19.136  0.00  0.00    +0.000 A 
ATOM     15  C   UNL     1       1.959  10.325  18.205  0.00  0.00    +0.000 A 
ATOM     16  C   UNL     1       1.469  11.626  18.336  0.00  0.00    +0.000 A 
ATOM     17  C   UNL     1       0.620  11.951  19.392  0.00  0.00    +0.000 A 
ATOM     18  C   UNL     1       0.238  10.970  20.307  0.00  0.00    +0.000 A 
ATOM     19  C   UNL     1       0.713   9.664  20.176  0.00  0.00    +0.000 A 
ENDBRANCH   3  14
BRANCH   5  20
ATOM     20  C   UNL     1       2.023   4.657  20.137  0.00  0.00    +0.000 A 
ATOM     21  C   UNL     1       1.239   3.636  19.597  0.00  0.00    +0.000 A 
ATOM     22  C   UNL     1       1.005   2.472  20.331  0.00  0.00    +0.000 A 
ATOM     23  C   UNL     1       1.557   2.365  21.595  0.00  0.00    +0.000 A 
ATOM     24  N   UNL     1       2.314   3.324  22.164  0.00  0.00    +0.000 NA
ATOM     25  C   UNL     1       2.525   4.444  21.422  0.00  0.00    +0.000 A 
ENDBRANCH   5  20
TORSDOF 3
ENDMDL
MODEL 7
REMARK VINA RESULT:      -7.3      2.427      6.037
REMARK  Name = 
REMARK  3 active torsions:
REMARK  status: ('A' for Active; 'I' for Inactive)
REMARK    1  A    between atoms: C_2  and  C_3
REMARK    2  A    between atoms: N_5  and  C_6
REMARK    3  A    between atoms: C_13  and  C_14
REMARK                            x       y       z     vdW  Elec       q    Type
REMARK                         _______ _______ _______ _____ _____    ______ ____
ROOT
ATOM      1  C   UNL     1       2.287   6.039  17.991  0.00  0.00    +0.000 A 
ATOM      2  C   UNL     1       1.439   7.122  18.128  0.00  0.00    +0.000 A 
ATOM      3  N   UNL     1       2.204   8.259  18.117  0.00  0.00    +0.000 N 
ATOM      4  N   UNL     1       3.479   7.981  17.781  0.00  0.00    +0.000 NA
ATOM      5  C   UNL     1       3.559   6.640  17.715  0.00  0.00    +0.000 A 
ENDROOT
BRANCH   1   7
ATOM      6  O   UNL     1       2.030   3.974  16.948  0.00  0.00    +0.000 OA
ATOM      7  C   UNL     1       1.922   4.625  17.988  0.00  0.00    +0.000 C 
ATOM      8  N   UNL     1       1.483   4.015  19.174  0.00  0.00    +0.000 N 
ATOM      9  C   UNL     1       1.296   4.635  20.487  0.00  0.00    +0.000 C 
ATOM     10  C   UNL     1       2.142   3.951  21.554  0.00  0.00    +0.000 C 
ATOM     11  C   UNL     1       1.928   2.442  21.572  0.00  0.00    +0.000 C 
ATOM     12  C   UNL     1       2.051   1.837  20.174  0.00  0.00    +0.000 C 
ATOM     13  C   UNL     1       1.194   2.581  19.151  0.00  0.00    +0.000 C 
ENDBRANCH   1   7
BRANCH   3  14
ATOM     14  C   UNL     1       1.779   9.588  18.388  0.00  0.00    +0.000 A 
ATOM     15  C   UNL     1       0.616   9.835  19.132  0.00  0.00    +0.000 A 
ATOM     16  C   UNL     1       0.196  11.147  19.360  0.00  0.00    +0.000 A 
ATOM     17  C   UNL     1       0.930  12.215  18.849  0.00  0.00    +0.000 A 
ATOM     18  C   UNL     1       2.101  11.976  18.129  0.00  0.00    +0.000 A 
ATOM     19  C   UNL     1       2.534  10.668  17.908  0.00  0.00    +0.000 A 
ENDBRANCH   3  14
BRANCH   5  20
ATOM     20  C   UNL     1       4.851   6.024  17.398  0.00  0.00    +0.000 A 
ATOM     21  C   UNL     1       5.625   5.342  18.338  0.00  0.00    +0.000 A 
ATOM     22  C   UNL     1       6.856   4.797  17.966  0.00  0.00    +0.000 A 
ATOM     23  C   UNL     1       7.284   4.959  16.661  0.00  0.00    +0.000 A 
ATOM     24  N   UNL     1       6.578   5.616  15.719  0.00  0.00    +0.000 NA
ATOM     25  C   UNL     1       5.384   6.132  16.111  0.00  0.00    +0.000 A 
ENDBRANCH   5  20
TORSDOF 3
ENDMDL
MODEL 8
REMARK VINA RESULT:      -7.1      1.930      6.811
REMARK  Name = 
REMARK  3 active torsions:
REMARK  status: ('A' for Active; 'I' for Inactive)
REMARK    1  A    between atoms: C_2  and  C_3
REMARK    2  A    between atoms: N_5  and  C_6
REMARK    3  A    between atoms: C_13  and  C_14
REMARK                            x       y       z     vdW  Elec       q    Type
REMARK                         _______ _______ _______ _____ _____    ______ ____
ROOT
ATOM      1  C   UNL     1       2.999   5.633  18.066  0.00  0.00    +0.000 A 
ATOM      2  C   UNL     1       2.920   6.997  17.853  0.00  0.00    +0.000 A 
ATOM      3  N   UNL     1       2.259   7.550  18.918  0.00  0.00    +0.000 N 
ATOM      4  N   UNL     1       2.079   6.646  19.900  0.00  0.00    +0.000 NA
ATOM      5  C   UNL     1       2.504   5.471  19.402  0.00  0.00    +0.000 A 
ENDROOT
BRANCH   1   7
ATOM      6  O   UNL     1       2.848   3.840  16.590  0.00  0.00    +0.000 OA
ATOM      7  C   UNL     1       3.584   4.632  17.178  0.00  0.00    +0.000 C 
ATOM      8  N   UNL     1       4.974   4.601  16.982  0.00  0.00    +0.000 N 
ATOM      9  C   UNL     1       5.987   5.460  17.597  0.00  0.00    +0.000 C 
ATOM     10  C   UNL     1       6.799   6.209  16.547  0.00  0.00    +0.000 C 
ATOM     11  C   UNL     1       7.374   5.272  15.493  0.00  0.00    +0.000 C 
ATOM     12  C   UNL     1       6.307   4.335  14.927  0.00  0.00    +0.000 C 
ATOM     13  C   UNL     1       5.519   3.631  16.032  0.00  0.00    +0.000 C 
ENDBRANCH   1   7
BRANCH   3  14
ATOM     14  C   UNL     1       1.810   8.892  19.052  0.00  0.00    +0.000 A 
ATOM     15  C   UNL     1       1.076   9.298  20.176  0.00  0.00    +0.000 A 
ATOM     16  C   UNL     1       0.614  10.612  20.274  0.00  0.00    +0.000 A 
ATOM     17  C   UNL     1       0.879  11.525  19.255  0.00  0.00    +0.000 A 
ATOM     18  C   UNL     1       1.630  11.134  18.147  0.00  0.00    +0.000 A 
ATOM     19  C   UNL     1       2.106   9.825  18.047  0.00  0.00    +0.000 A 
ENDBRANCH   3  14
BRANCH   5  20
ATOM     20  C   UNL     1       2.405   4.272  20.238  0.00  0.00    +0.000 A 
ATOM     21  C   UNL     1       1.214   3.851  20.834  0.00  0.00    +0.000 A 
ATOM     22  C   UNL     1       1.200   2.708  21.635  0.00  0.00    +0.000 A 
ATOM     23  C   UNL     1       2.384   2.018  21.825  0.00  0.00    +0.000 A 
ATOM     24  N   UNL     1       3.560   2.387  21.280  0.00  0.00    +0.000 NA
ATOM     25  C   UNL     1       3.540   3.503  20.504  0.00  0.00    +0.000 A 
ENDBRANCH   5  20
TORSDOF 3
ENDMDL
MODEL 9
REMARK VINA RESULT:      -7.0      2.739      7.722
REMARK  Name = 
REMARK  3 active torsions:
REMARK  status: ('A' for Active; 'I' for Inactive)
REMARK    1  A    between atoms: C_2  and  C_3
REMARK    2  A    between atoms: N_5  and  C_6
REMARK    3  A    between atoms: C_13  and  C_14
REMARK                            x       y       z     vdW  Elec       q    Type
REMARK                         _______ _______ _______ _____ _____    ______ ____
ROOT
ATOM      1  C   UNL     1       2.793   7.119  18.695  0.00  0.00    +0.000 A 
ATOM      2  C   UNL     1       2.492   8.309  19.331  0.00  0.00    +0.000 A 
ATOM      3  N   UNL     1       1.540   8.049  20.280  0.00  0.00    +0.000 N 
ATOM      4  N   UNL     1       1.352   6.723  20.427  0.00  0.00    +0.000 NA
ATOM      5  C   UNL     1       2.088   6.137  19.467  0.00  0.00    +0.000 A 
ENDROOT
BRANCH   1   7
ATOM      6  O   UNL     1       3.547   7.518  16.530  0.00  0.00    +0.000 OA
ATOM      7  C   UNL     1       3.726   6.918  17.590  0.00  0.00    +0.000 C 
ATOM      8  N   UNL     1       4.832   6.069  17.756  0.00  0.00    +0.000 N 
ATOM      9  C   UNL     1       5.193   5.284  18.938  0.00  0.00    +0.000 C 
ATOM     10  C   UNL     1       6.581   5.647  19.449  0.00  0.00    +0.000 C 
ATOM     11  C   UNL     1       7.632   5.581  18.348  0.00  0.00    +0.000 C 
ATOM     12  C   UNL     1       7.190   6.344  17.100  0.00  0.00    +0.000 C 
ATOM     13  C   UNL     1       5.784   5.946  16.652  0.00  0.00    +0.000 C 
ENDBRANCH   1   7
BRANCH   3  14
ATOM     14  C   UNL     1       0.819   8.993  21.061  0.00  0.00    +0.000 A 
ATOM     15  C   UNL     1       0.613   8.786  22.433  0.00  0.00    +0.000 A 
ATOM     16  C   UNL     1      -0.127   9.707  23.177  0.00  0.00    +0.000 A 
ATOM     17  C   UNL     1      -0.664  10.835  22.560  0.00  0.00    +0.000 A 
ATOM     18  C   UNL     1      -0.442  11.059  21.201  0.00  0.00    +0.000 A 
ATOM     19  C   UNL     1       0.308  10.149  20.453  0.00  0.00    +0.000 A 
ENDBRANCH   3  14
BRANCH   5  20
ATOM     20  C   UNL     1       2.064   4.676  19.349  0.00  0.00    +0.000 A 
ATOM     21  C   UNL     1       1.823   4.010  18.146  0.00  0.00    +0.000 A 
ATOM     22  C   UNL     1       1.795   2.615  18.114  0.00  0.00    +0.000 A 
ATOM     23  C   UNL     1       2.001   1.921  19.294  0.00  0.00    +0.000 A 
ATOM     24  N   UNL     1       2.229   2.518  20.481  0.00  0.00    +0.000 NA
ATOM     25  C   UNL     1       2.252   3.877  20.478  0.00  0.00    +0.000 A 
ENDBRANCH   5  20
TORSDOF 3
ENDMDL
