MODEL 1
REMARK VINA RESULT:      -7.8      0.000      0.000
REMARK  Name = 
REMARK  14 active torsions:
REMARK  status: ('A' for Active; 'I' for Inactive)
REMARK    1  A    between atoms: C_1  and  C_2
REMARK    2  A    between atoms: C_2  and  C_3
REMARK    3  A    between atoms: C_3  and  N_4
REMARK    4  A    between atoms: N_4  and  C_5
REMARK    5  A    between atoms: N_4  and  C_25
REMARK    6  A    between atoms: C_5  and  C_6
REMARK    7  A    between atoms: N_8  and  C_9
REMARK    8  A    between atoms: C_11  and  C_12
REMARK    9  A    between atoms: C_19  and  C_20
REMARK   10  A    between atoms: C_20  and  O_22
REMARK   11  A    between atoms: O_22  and  C_23
REMARK   12  A    between atoms: C_23  and  C_24
REMARK   13  A    between atoms: C_25  and  C_26
REMARK   14  A    between atoms: C_29  and  C_30
REMARK                            x       y       z     vdW  Elec       q    Type
REMARK                         _______ _______ _______ _____ _____    ______ ____
ROOT
ATOM      1  C   UNL     1       2.289   7.903  18.390  0.00  0.00    +0.000 C 
ATOM      2  O   UNL     1       1.663   7.684  17.355  0.00  0.00    +0.000 OA
ATOM      3  N   UNL     1       1.938   8.863  19.328  0.00  0.00    +0.000 N 
ATOM      4  H   UNL     1       2.696   9.315  19.830  0.00  0.00    +0.000 HD
ENDROOT
BRANCH   3   5
ATOM      5  C   UNL     1       0.786   9.622  19.137  0.00  0.00    +0.000 A 
ATOM      6  C   UNL     1      -0.114   9.469  18.041  0.00  0.00    +0.000 A 
ATOM      7  C   UNL     1      -1.162  10.369  18.069  0.00  0.00    +0.000 A 
ATOM      8  S   UNL     1      -1.019  11.405  19.422  0.00  0.00    +0.000 S 
ATOM      9  C   UNL     1       0.383  10.618  20.001  0.00  0.00    +0.000 A 
BRANCH   7  10
ATOM     10  C   UNL     1      -2.264  10.526  17.108  0.00  0.00    +0.000 A 
ATOM     11  C   UNL     1      -3.385  11.319  17.396  0.00  0.00    +0.000 A 
ATOM     12  C   UNL     1      -4.421  11.462  16.470  0.00  0.00    +0.000 A 
ATOM     13  C   UNL     1      -4.352  10.803  15.246  0.00  0.00    +0.000 A 
ATOM     14  C   UNL     1      -3.251  10.004  14.946  0.00  0.00    +0.000 A 
ATOM     15  C   UNL     1      -2.213   9.868  15.872  0.00  0.00    +0.000 A 
ENDBRANCH   7  10
BRANCH   9  16
ATOM     16  C   UNL     1       1.028  11.026  21.232  0.00  0.00    +0.000 C 
ATOM     17  O   UNL     1       1.470  12.150  21.441  0.00  0.00    +0.000 OA
BRANCH  16  18
ATOM     18  O   UNL     1       1.157   9.971  22.084  0.00  0.00    +0.000 OA
BRANCH  18  19
ATOM     19  C   UNL     1      -0.067   9.388  22.543  0.00  0.00    +0.000 C 
ATOM     20  C   UNL     1      -0.883  10.485  23.200  0.00  0.00    +0.000 C 
ENDBRANCH  18  19
ENDBRANCH  16  18
ENDBRANCH   9  16
ENDBRANCH   3   5
BRANCH   1  21
ATOM     21  C   UNL     1       3.587   7.165  18.718  0.00  0.00    +0.000 C 
BRANCH  21  22
ATOM     22  N   UNL     1       3.408   5.717  18.970  0.00  0.00    +0.000 NA
BRANCH  22  23
ATOM     23  C   UNL     1       2.294   5.399  19.879  0.00  0.00    +0.000 C 
BRANCH  23  25
ATOM     24  C   UNL     1       1.174   3.105  19.618  0.00  0.00    +0.000 C 
ATOM     25  C   UNL     1       2.208   3.940  20.357  0.00  0.00    +0.000 C 
ENDBRANCH  23  25
ENDBRANCH  22  23
BRANCH  22  26
ATOM     26  C   UNL     1       4.656   5.057  19.455  0.00  0.00    +0.000 C 
BRANCH  26  27
ATOM     27  C   UNL     1       5.751   4.926  18.441  0.00  0.00    +0.000 A 
ATOM     28  N   UNL     1       7.054   4.827  18.609  0.00  0.00    +0.000 NA
ATOM     29  N   UNL     1       7.597   4.701  17.352  0.00  0.00    +0.000 NA
ATOM     30  C   UNL     1       6.592   4.732  16.488  0.00  0.00    +0.000 A 
ATOM     31  O   UNL     1       5.388   4.887  17.125  0.00  0.00    +0.000 OA
BRANCH  30  32
ATOM     32  C   UNL     1       6.754   4.616  15.067  0.00  0.00    +0.000 A 
ATOM     33  C   UNL     1       6.067   3.797  14.186  0.00  0.00    +0.000 A 
ATOM     34  C   UNL     1       6.584   4.036  12.890  0.00  0.00    +0.000 A 
ATOM     35  C   UNL     1       7.558   4.991  13.046  0.00  0.00    +0.000 A 
ATOM     36  O   UNL     1       7.673   5.347  14.350  0.00  0.00    +0.000 OA
ENDBRANCH  30  32
ENDBRANCH  26  27
ENDBRANCH  22  26
ENDBRANCH  21  22
ENDBRANCH   1  21
TORSDOF 12
ENDMDL
MODEL 2
REMARK VINA RESULT:      -7.7      3.149      5.500
REMARK  Name = 
REMARK  14 active torsions:
REMARK  status: ('A' for Active; 'I' for Inactive)
REMARK    1  A    between atoms: C_1  and  C_2
REMARK    2  A    between atoms: C_2  and  C_3
REMARK    3  A    between atoms: C_3  and  N_4
REMARK    4  A    between atoms: N_4  and  C_5
REMARK    5  A    between atoms: N_4  and  C_25
REMARK    6  A    between atoms: C_5  and  C_6
REMARK    7  A    between atoms: N_8  and  C_9
REMARK    8  A    between atoms: C_11  and  C_12
REMARK    9  A    between atoms: C_19  and  C_20
REMARK   10  A    between atoms: C_20  and  O_22
REMARK   11  A    between atoms: O_22  and  C_23
REMARK   12  A    between atoms: C_23  and  C_24
REMARK   13  A    between atoms: C_25  and  C_26
REMARK   14  A    between atoms: C_29  and  C_30
REMARK                            x       y       z     vdW  Elec       q    Type
REMARK                         _______ _______ _______ _____ _____    ______ ____
ROOT
ATOM      1  C   UNL     1       4.226   6.945  17.600  0.00  0.00    +0.000 C 
ATOM      2  O   UNL     1       3.423   7.750  17.131  0.00  0.00    +0.000 OA
ATOM      3  N   UNL     1       4.086   6.334  18.837  0.00  0.00    +0.000 N 
ATOM      4  H   UNL     1       4.941   6.122  19.344  0.00  0.00    +0.000 HD
ENDROOT
BRANCH   3   5
ATOM      5  C   UNL     1       2.958   6.594  19.611  0.00  0.00    +0.000 A 
ATOM      6  C   UNL     1       2.396   7.889  19.815  0.00  0.00    +0.000 A 
ATOM      7  C   UNL     1       1.297   7.879  20.653  0.00  0.00    +0.000 A 
ATOM      8  S   UNL     1       0.981   6.289  21.198  0.00  0.00    +0.000 S 
ATOM      9  C   UNL     1       2.251   5.613  20.273  0.00  0.00    +0.000 A 
BRANCH   7  10
ATOM     10  C   UNL     1       0.477   9.012  21.105  0.00  0.00    +0.000 A 
ATOM     11  C   UNL     1       0.009   9.986  20.210  0.00  0.00    +0.000 A 
ATOM     12  C   UNL     1      -0.774  11.053  20.654  0.00  0.00    +0.000 A 
ATOM     13  C   UNL     1      -1.090  11.165  22.005  0.00  0.00    +0.000 A 
ATOM     14  C   UNL     1      -0.629  10.212  22.910  0.00  0.00    +0.000 A 
ATOM     15  C   UNL     1       0.150   9.142  22.461  0.00  0.00    +0.000 A 
ENDBRANCH   7  10
BRANCH   9  16
ATOM     16  C   UNL     1       2.508   4.189  20.265  0.00  0.00    +0.000 C 
ATOM     17  O   UNL     1       2.228   3.431  21.187  0.00  0.00    +0.000 OA
BRANCH  16  18
ATOM     18  O   UNL     1       3.182   3.824  19.140  0.00  0.00    +0.000 OA
BRANCH  18  19
ATOM     19  C   UNL     1       2.396   3.206  18.115  0.00  0.00    +0.000 C 
ATOM     20  C   UNL     1       3.095   3.445  16.790  0.00  0.00    +0.000 C 
ENDBRANCH  18  19
ENDBRANCH  16  18
ENDBRANCH   9  16
ENDBRANCH   3   5
BRANCH   1  21
ATOM     21  C   UNL     1       5.522   6.584  16.875  0.00  0.00    +0.000 C 
BRANCH  21  22
ATOM     22  N   UNL     1       6.526   5.917  17.734  0.00  0.00    +0.000 NA
BRANCH  22  23
ATOM     23  C   UNL     1       7.574   6.817  18.244  0.00  0.00    +0.000 C 
BRANCH  23  25
ATOM     24  C   UNL     1       8.504   9.207  18.314  0.00  0.00    +0.000 C 
ATOM     25  C   UNL     1       7.697   8.178  17.539  0.00  0.00    +0.000 C 
ENDBRANCH  23  25
ENDBRANCH  22  23
BRANCH  22  26
ATOM     26  C   UNL     1       7.157   4.736  17.074  0.00  0.00    +0.000 C 
BRANCH  26  27
ATOM     27  C   UNL     1       7.098   4.726  15.577  0.00  0.00    +0.000 A 
ATOM     28  N   UNL     1       7.760   5.450  14.699  0.00  0.00    +0.000 NA
ATOM     29  N   UNL     1       7.349   5.021  13.458  0.00  0.00    +0.000 NA
ATOM     30  C   UNL     1       6.457   4.060  13.652  0.00  0.00    +0.000 A 
ATOM     31  O   UNL     1       6.246   3.836  14.988  0.00  0.00    +0.000 OA
BRANCH  30  32
ATOM     32  C   UNL     1       5.802   3.349  12.593  0.00  0.00    +0.000 A 
ATOM     33  C   UNL     1       4.582   3.624  11.997  0.00  0.00    +0.000 A 
ATOM     34  C   UNL     1       4.360   2.639  11.005  0.00  0.00    +0.000 A 
ATOM     35  C   UNL     1       5.458   1.815  11.043  0.00  0.00    +0.000 A 
ATOM     36  O   UNL     1       6.332   2.229  11.995  0.00  0.00    +0.000 OA
ENDBRANCH  30  32
ENDBRANCH  26  27
ENDBRANCH  22  26
ENDBRANCH  21  22
ENDBRANCH   1  21
TORSDOF 12
ENDMDL
MODEL 3
REMARK VINA RESULT:      -7.7      2.820      8.994
REMARK  Name = 
REMARK  14 active torsions:
REMARK  status: ('A' for Active; 'I' for Inactive)
REMARK    1  A    between atoms: C_1  and  C_2
REMARK    2  A    between atoms: C_2  and  C_3
REMARK    3  A    between atoms: C_3  and  N_4
REMARK    4  A    between atoms: N_4  and  C_5
REMARK    5  A    between atoms: N_4  and  C_25
REMARK    6  A    between atoms: C_5  and  C_6
REMARK    7  A    between atoms: N_8  and  C_9
REMARK    8  A    between atoms: C_11  and  C_12
REMARK    9  A    between atoms: C_19  and  C_20
REMARK   10  A    between atoms: C_20  and  O_22
REMARK   11  A    between atoms: O_22  and  C_23
REMARK   12  A    between atoms: C_23  and  C_24
REMARK   13  A    between atoms: C_25  and  C_26
REMARK   14  A    between atoms: C_29  and  C_30
REMARK                            x       y       z     vdW  Elec       q    Type
REMARK                         _______ _______ _______ _____ _____    ______ ____
ROOT
ATOM      1  C   UNL     1       3.064   6.713  18.172  0.00  0.00    +0.000 C 
ATOM      2  O   UNL     1       2.556   5.659  17.792  0.00  0.00    +0.000 OA
ATOM      3  N   UNL     1       4.396   7.050  17.982  0.00  0.00    +0.000 N 
ATOM      4  H   UNL     1       4.832   7.619  18.702  0.00  0.00    +0.000 HD
ENDROOT
BRANCH   3   5
ATOM      5  C   UNL     1       5.234   6.181  17.288  0.00  0.00    +0.000 A 
ATOM      6  C   UNL     1       5.282   6.062  15.868  0.00  0.00    +0.000 A 
ATOM      7  C   UNL     1       6.176   5.102  15.433  0.00  0.00    +0.000 A 
ATOM      8  S   UNL     1       6.927   4.342  16.768  0.00  0.00    +0.000 S 
ATOM      9  C   UNL     1       6.123   5.329  17.909  0.00  0.00    +0.000 A 
BRANCH   7  10
ATOM     10  C   UNL     1       6.481   4.689  14.055  0.00  0.00    +0.000 A 
ATOM     11  C   UNL     1       5.755   3.675  13.413  0.00  0.00    +0.000 A 
ATOM     12  C   UNL     1       6.053   3.298  12.102  0.00  0.00    +0.000 A 
ATOM     13  C   UNL     1       7.092   3.925  11.420  0.00  0.00    +0.000 A 
ATOM     14  C   UNL     1       7.830   4.927  12.044  0.00  0.00    +0.000 A 
ATOM     15  C   UNL     1       7.524   5.307  13.354  0.00  0.00    +0.000 A 
ENDBRANCH   7  10
BRANCH   9  16
ATOM     16  C   UNL     1       6.371   5.202  19.330  0.00  0.00    +0.000 C 
ATOM     17  O   UNL     1       7.391   5.586  19.890  0.00  0.00    +0.000 OA
BRANCH  16  18
ATOM     18  O   UNL     1       5.361   4.520  19.939  0.00  0.00    +0.000 OA
BRANCH  18  19
ATOM     19  C   UNL     1       4.792   3.445  19.185  0.00  0.00    +0.000 C 
ATOM     20  C   UNL     1       4.526   2.300  20.143  0.00  0.00    +0.000 C 
ENDBRANCH  18  19
ENDBRANCH  16  18
ENDBRANCH   9  16
ENDBRANCH   3   5
BRANCH   1  21
ATOM     21  C   UNL     1       2.271   7.748  18.968  0.00  0.00    +0.000 C 
BRANCH  21  22
ATOM     22  N   UNL     1       2.038   7.371  20.381  0.00  0.00    +0.000 NA
BRANCH  22  23
ATOM     23  C   UNL     1       1.265   6.129  20.551  0.00  0.00    +0.000 C 
BRANCH  23  25
ATOM     24  C   UNL     1       1.264   3.612  21.049  0.00  0.00    +0.000 C 
ATOM     25  C   UNL     1       2.041   4.918  21.093  0.00  0.00    +0.000 C 
ENDBRANCH  23  25
ENDBRANCH  22  23
BRANCH  22  26
ATOM     26  C   UNL     1       1.408   8.466  21.175  0.00  0.00    +0.000 C 
BRANCH  26  27
ATOM     27  C   UNL     1       0.744   9.543  20.374  0.00  0.00    +0.000 A 
ATOM     28  N   UNL     1       1.079  10.807  20.211  0.00  0.00    +0.000 NA
ATOM     29  N   UNL     1       0.146  11.346  19.356  0.00  0.00    +0.000 NA
ATOM     30  C   UNL     1      -0.706  10.379  19.046  0.00  0.00    +0.000 A 
ATOM     31  O   UNL     1      -0.382   9.206  19.678  0.00  0.00    +0.000 OA
BRANCH  30  32
ATOM     32  C   UNL     1      -1.821  10.547  18.162  0.00  0.00    +0.000 A 
ATOM     33  C   UNL     1      -2.893   9.694  17.954  0.00  0.00    +0.000 A 
ATOM     34  C   UNL     1      -3.733  10.291  16.984  0.00  0.00    +0.000 A 
ATOM     35  C   UNL     1      -3.133  11.480  16.650  0.00  0.00    +0.000 A 
ATOM     36  O   UNL     1      -1.981  11.646  17.349  0.00  0.00    +0.000 OA
ENDBRANCH  30  32
ENDBRANCH  26  27
ENDBRANCH  22  26
ENDBRANCH  21  22
ENDBRANCH   1  21
TORSDOF 12
ENDMDL
MODEL 4
REMARK VINA RESULT:      -7.6      3.245      5.619
REMARK  Name = 
REMARK  14 active torsions:
REMARK  status: ('A' for Active; 'I' for Inactive)
REMARK    1  A    between atoms: C_1  and  C_2
REMARK    2  A    between atoms: C_2  and  C_3
REMARK    3  A    between atoms: C_3  and  N_4
REMARK    4  A    between atoms: N_4  and  C_5
REMARK    5  A    between atoms: N_4  and  C_25
REMARK    6  A    between atoms: C_5  and  C_6
REMARK    7  A    between atoms: N_8  and  C_9
REMARK    8  A    between atoms: C_11  and  C_12
REMARK    9  A    between atoms: C_19  and  C_20
REMARK   10  A    between atoms: C_20  and  O_22
REMARK   11  A    between atoms: O_22  and  C_23
REMARK   12  A    between atoms: C_23  and  C_24
REMARK   13  A    between atoms: C_25  and  C_26
REMARK   14  A    between atoms: C_29  and  C_30
REMARK                            x       y       z     vdW  Elec       q    Type
REMARK                         _______ _______ _______ _____ _____    ______ ____
ROOT
ATOM      1  C   UNL     1       4.196   5.923  16.931  0.00  0.00    +0.000 C 
ATOM      2  O   UNL     1       4.723   7.033  16.914  0.00  0.00    +0.000 OA
ATOM      3  N   UNL     1       3.088   5.596  17.699  0.00  0.00    +0.000 N 
ATOM      4  H   UNL     1       3.033   4.642  18.044  0.00  0.00    +0.000 HD
ENDROOT
BRANCH   3   5
ATOM      5  C   UNL     1       2.483   6.573  18.486  0.00  0.00    +0.000 A 
ATOM      6  C   UNL     1       2.295   7.930  18.092  0.00  0.00    +0.000 A 
ATOM      7  C   UNL     1       1.700   8.703  19.070  0.00  0.00    +0.000 A 
ATOM      8  S   UNL     1       1.400   7.764  20.467  0.00  0.00    +0.000 S 
ATOM      9  C   UNL     1       1.992   6.329  19.751  0.00  0.00    +0.000 A 
BRANCH   7  10
ATOM     10  C   UNL     1       1.368  10.135  19.034  0.00  0.00    +0.000 A 
ATOM     11  C   UNL     1       0.250  10.649  19.709  0.00  0.00    +0.000 A 
ATOM     12  C   UNL     1      -0.048  12.013  19.669  0.00  0.00    +0.000 A 
ATOM     13  C   UNL     1       0.763  12.878  18.943  0.00  0.00    +0.000 A 
ATOM     14  C   UNL     1       1.872  12.386  18.259  0.00  0.00    +0.000 A 
ATOM     15  C   UNL     1       2.172  11.022  18.306  0.00  0.00    +0.000 A 
ENDBRANCH   7  10
BRANCH   9  16
ATOM     16  C   UNL     1       1.979   5.067  20.460  0.00  0.00    +0.000 C 
ATOM     17  O   UNL     1       2.845   4.708  21.250  0.00  0.00    +0.000 OA
BRANCH  16  18
ATOM     18  O   UNL     1       0.927   4.299  20.061  0.00  0.00    +0.000 OA
BRANCH  18  19
ATOM     19  C   UNL     1       1.149   2.885  20.069  0.00  0.00    +0.000 C 
ATOM     20  C   UNL     1       1.382   2.447  18.636  0.00  0.00    +0.000 C 
ENDBRANCH  18  19
ENDBRANCH  16  18
ENDBRANCH   9  16
ENDBRANCH   3   5
BRANCH   1  21
ATOM     21  C   UNL     1       4.767   4.748  16.138  0.00  0.00    +0.000 C 
BRANCH  21  22
ATOM     22  N   UNL     1       6.179   4.926  15.732  0.00  0.00    +0.000 NA
BRANCH  22  23
ATOM     23  C   UNL     1       6.510   4.326  14.428  0.00  0.00    +0.000 C 
BRANCH  23  25
ATOM     24  C   UNL     1       5.695   3.336  12.206  0.00  0.00    +0.000 C 
ATOM     25  C   UNL     1       5.322   3.806  13.603  0.00  0.00    +0.000 C 
ENDBRANCH  23  25
ENDBRANCH  22  23
BRANCH  22  26
ATOM     26  C   UNL     1       7.143   4.443  16.765  0.00  0.00    +0.000 C 
BRANCH  26  27
ATOM     27  C   UNL     1       7.586   5.469  17.762  0.00  0.00    +0.000 A 
ATOM     28  N   UNL     1       7.854   5.342  19.046  0.00  0.00    +0.000 NA
ATOM     29  N   UNL     1       8.245   6.586  19.483  0.00  0.00    +0.000 NA
ATOM     30  C   UNL     1       8.191   7.402  18.439  0.00  0.00    +0.000 A 
ATOM     31  O   UNL     1       7.764   6.746  17.313  0.00  0.00    +0.000 OA
BRANCH  30  32
ATOM     32  C   UNL     1       8.539   8.792  18.490  0.00  0.00    +0.000 A 
ATOM     33  C   UNL     1       8.249   9.787  17.571  0.00  0.00    +0.000 A 
ATOM     34  C   UNL     1       8.805  10.994  18.058  0.00  0.00    +0.000 A 
ATOM     35  C   UNL     1       9.404  10.675  19.252  0.00  0.00    +0.000 A 
ATOM     36  O   UNL     1       9.253   9.354  19.523  0.00  0.00    +0.000 OA
ENDBRANCH  30  32
ENDBRANCH  26  27
ENDBRANCH  22  26
ENDBRANCH  21  22
ENDBRANCH   1  21
TORSDOF 12
ENDMDL
MODEL 5
REMARK VINA RESULT:      -7.6      5.386     10.023
REMARK  Name = 
REMARK  14 active torsions:
REMARK  status: ('A' for Active; 'I' for Inactive)
REMARK    1  A    between atoms: C_1  and  C_2
REMARK    2  A    between atoms: C_2  and  C_3
REMARK    3  A    between atoms: C_3  and  N_4
REMARK    4  A    between atoms: N_4  and  C_5
REMARK    5  A    between atoms: N_4  and  C_25
REMARK    6  A    between atoms: C_5  and  C_6
REMARK    7  A    between atoms: N_8  and  C_9
REMARK    8  A    between atoms: C_11  and  C_12
REMARK    9  A    between atoms: C_19  and  C_20
REMARK   10  A    between atoms: C_20  and  O_22
REMARK   11  A    between atoms: O_22  and  C_23
REMARK   12  A    between atoms: C_23  and  C_24
REMARK   13  A    between atoms: C_25  and  C_26
REMARK   14  A    between atoms: C_29  and  C_30
REMARK                            x       y       z     vdW  Elec       q    Type
REMARK                         _______ _______ _______ _____ _____    ______ ____
ROOT
ATOM      1  C   UNL     1       7.754   7.779  17.742  0.00  0.00    +0.000 C 
ATOM      2  O   UNL     1       8.111   7.077  18.686  0.00  0.00    +0.000 OA
ATOM      3  N   UNL     1       6.675   7.493  16.920  0.00  0.00    +0.000 N 
ATOM      4  H   UNL     1       6.747   7.782  15.949  0.00  0.00    +0.000 HD
ENDROOT
BRANCH   3   5
ATOM      5  C   UNL     1       5.898   6.365  17.171  0.00  0.00    +0.000 A 
ATOM      6  C   UNL     1       4.973   6.241  18.250  0.00  0.00    +0.000 A 
ATOM      7  C   UNL     1       4.354   5.006  18.296  0.00  0.00    +0.000 A 
ATOM      8  S   UNL     1       4.929   4.007  17.034  0.00  0.00    +0.000 S 
ATOM      9  C   UNL     1       5.939   5.228  16.392  0.00  0.00    +0.000 A 
BRANCH   7  10
ATOM     10  C   UNL     1       3.366   4.510  19.266  0.00  0.00    +0.000 A 
ATOM     11  C   UNL     1       2.245   5.272  19.630  0.00  0.00    +0.000 A 
ATOM     12  C   UNL     1       1.313   4.784  20.548  0.00  0.00    +0.000 A 
ATOM     13  C   UNL     1       1.498   3.530  21.122  0.00  0.00    +0.000 A 
ATOM     14  C   UNL     1       2.609   2.763  20.780  0.00  0.00    +0.000 A 
ATOM     15  C   UNL     1       3.536   3.252  19.856  0.00  0.00    +0.000 A 
ENDBRANCH   7  10
BRANCH   9  16
ATOM     16  C   UNL     1       6.731   5.008  15.200  0.00  0.00    +0.000 C 
ATOM     17  O   UNL     1       7.784   5.586  14.954  0.00  0.00    +0.000 OA
BRANCH  16  18
ATOM     18  O   UNL     1       6.104   4.145  14.354  0.00  0.00    +0.000 OA
BRANCH  18  19
ATOM     19  C   UNL     1       6.638   4.075  13.028  0.00  0.00    +0.000 C 
ATOM     20  C   UNL     1       5.708   3.206  12.202  0.00  0.00    +0.000 C 
ENDBRANCH  18  19
ENDBRANCH  16  18
ENDBRANCH   9  16
ENDBRANCH   3   5
BRANCH   1  21
ATOM     21  C   UNL     1       8.528   9.032  17.333  0.00  0.00    +0.000 C 
BRANCH  21  22
ATOM     22  N   UNL     1       8.416  10.149  18.298  0.00  0.00    +0.000 NA
BRANCH  22  23
ATOM     23  C   UNL     1       8.805  11.459  17.748  0.00  0.00    +0.000 C 
BRANCH  23  25
ATOM     24  C   UNL     1       7.754  13.799  17.772  0.00  0.00    +0.000 C 
ATOM     25  C   UNL     1       7.654  12.364  17.280  0.00  0.00    +0.000 C 
ENDBRANCH  23  25
ENDBRANCH  22  23
BRANCH  22  26
ATOM     26  C   UNL     1       9.164   9.895  19.565  0.00  0.00    +0.000 C 
BRANCH  26  27
ATOM     27  C   UNL     1       9.455  11.108  20.395  0.00  0.00    +0.000 A 
ATOM     28  N   UNL     1      10.559  11.819  20.498  0.00  0.00    +0.000 NA
ATOM     29  N   UNL     1      10.280  12.840  21.376  0.00  0.00    +0.000 NA
ATOM     30  C   UNL     1       9.020  12.692  21.760  0.00  0.00    +0.000 A 
ATOM     31  O   UNL     1       8.445  11.593  21.176  0.00  0.00    +0.000 OA
BRANCH  30  32
ATOM     32  C   UNL     1       8.351  13.574  22.671  0.00  0.00    +0.000 A 
ATOM     33  C   UNL     1       8.908  14.443  23.595  0.00  0.00    +0.000 A 
ATOM     34  C   UNL     1       7.845  15.096  24.263  0.00  0.00    +0.000 A 
ATOM     35  C   UNL     1       6.691  14.594  23.711  0.00  0.00    +0.000 A 
ATOM     36  O   UNL     1       6.981  13.676  22.754  0.00  0.00    +0.000 OA
ENDBRANCH  30  32
ENDBRANCH  26  27
ENDBRANCH  22  26
ENDBRANCH  21  22
ENDBRANCH   1  21
TORSDOF 12
ENDMDL
MODEL 6
REMARK VINA RESULT:      -7.6      3.107     10.167
REMARK  Name = 
REMARK  14 active torsions:
REMARK  status: ('A' for Active; 'I' for Inactive)
REMARK    1  A    between atoms: C_1  and  C_2
REMARK    2  A    between atoms: C_2  and  C_3
REMARK    3  A    between atoms: C_3  and  N_4
REMARK    4  A    between atoms: N_4  and  C_5
REMARK    5  A    between atoms: N_4  and  C_25
REMARK    6  A    between atoms: C_5  and  C_6
REMARK    7  A    between atoms: N_8  and  C_9
REMARK    8  A    between atoms: C_11  and  C_12
REMARK    9  A    between atoms: C_19  and  C_20
REMARK   10  A    between atoms: C_20  and  O_22
REMARK   11  A    between atoms: O_22  and  C_23
REMARK   12  A    between atoms: C_23  and  C_24
REMARK   13  A    between atoms: C_25  and  C_26
REMARK   14  A    between atoms: C_29  and  C_30
REMARK                            x       y       z     vdW  Elec       q    Type
REMARK                         _______ _______ _______ _____ _____    ______ ____
ROOT
ATOM      1  C   UNL     1       1.804   8.916  18.461  0.00  0.00    +0.000 C 
ATOM      2  O   UNL     1       1.651   8.829  17.244  0.00  0.00    +0.000 OA
ATOM      3  N   UNL     1       2.417   7.947  19.242  0.00  0.00    +0.000 N 
ATOM      4  H   UNL     1       2.074   7.838  20.192  0.00  0.00    +0.000 HD
ENDROOT
BRANCH   3   5
ATOM      5  C   UNL     1       2.938   6.805  18.639  0.00  0.00    +0.000 A 
ATOM      6  C   UNL     1       3.926   6.809  17.611  0.00  0.00    +0.000 A 
ATOM      7  C   UNL     1       4.247   5.543  17.160  0.00  0.00    +0.000 A 
ATOM      8  S   UNL     1       3.318   4.367  17.983  0.00  0.00    +0.000 S 
ATOM      9  C   UNL     1       2.549   5.526  18.977  0.00  0.00    +0.000 A 
BRANCH   7  10
ATOM     10  C   UNL     1       5.198   5.157  16.108  0.00  0.00    +0.000 A 
ATOM     11  C   UNL     1       6.568   5.443  16.213  0.00  0.00    +0.000 A 
ATOM     12  C   UNL     1       7.460   5.065  15.207  0.00  0.00    +0.000 A 
ATOM     13  C   UNL     1       6.989   4.404  14.076  0.00  0.00    +0.000 A 
ATOM     14  C   UNL     1       5.631   4.119  13.950  0.00  0.00    +0.000 A 
ATOM     15  C   UNL     1       4.743   4.493  14.962  0.00  0.00    +0.000 A 
ENDBRANCH   7  10
BRANCH   9  16
ATOM     16  C   UNL     1       1.598   5.138  19.997  0.00  0.00    +0.000 C 
ATOM     17  O   UNL     1       1.234   5.865  20.916  0.00  0.00    +0.000 OA
BRANCH  16  18
ATOM     18  O   UNL     1       1.234   3.834  19.850  0.00  0.00    +0.000 OA
BRANCH  18  19
ATOM     19  C   UNL     1       1.112   3.081  21.061  0.00  0.00    +0.000 C 
ATOM     20  C   UNL     1       2.510   2.698  21.509  0.00  0.00    +0.000 C 
ENDBRANCH  18  19
ENDBRANCH  16  18
ENDBRANCH   9  16
ENDBRANCH   3   5
BRANCH   1  21
ATOM     21  C   UNL     1       1.260  10.100  19.259  0.00  0.00    +0.000 C 
BRANCH  21  22
ATOM     22  N   UNL     1      -0.157   9.954  19.662  0.00  0.00    +0.000 NA
BRANCH  22  23
ATOM     23  C   UNL     1      -1.071  10.900  18.999  0.00  0.00    +0.000 C 
BRANCH  23  25
ATOM     24  C   UNL     1      -2.042   9.830  16.879  0.00  0.00    +0.000 C 
ATOM     25  C   UNL     1      -2.297  10.283  18.308  0.00  0.00    +0.000 C 
ENDBRANCH  23  25
ENDBRANCH  22  23
BRANCH  22  26
ATOM     26  C   UNL     1      -0.347  10.025  21.141  0.00  0.00    +0.000 C 
BRANCH  26  27
ATOM     27  C   UNL     1      -0.309  11.402  21.729  0.00  0.00    +0.000 A 
ATOM     28  N   UNL     1       0.652  12.303  21.716  0.00  0.00    +0.000 NA
ATOM     29  N   UNL     1       0.158  13.404  22.376  0.00  0.00    +0.000 NA
ATOM     30  C   UNL     1      -1.077  13.110  22.757  0.00  0.00    +0.000 A 
ATOM     31  O   UNL     1      -1.427  11.838  22.383  0.00  0.00    +0.000 OA
BRANCH  30  32
ATOM     32  C   UNL     1      -1.933  14.014  23.469  0.00  0.00    +0.000 A 
ATOM     33  C   UNL     1      -3.168  14.512  23.089  0.00  0.00    +0.000 A 
ATOM     34  C   UNL     1      -3.619  15.370  24.120  0.00  0.00    +0.000 A 
ATOM     35  C   UNL     1      -2.637  15.350  25.080  0.00  0.00    +0.000 A 
ATOM     36  O   UNL     1      -1.616  14.540  24.701  0.00  0.00    +0.000 OA
ENDBRANCH  30  32
ENDBRANCH  26  27
ENDBRANCH  22  26
ENDBRANCH  21  22
ENDBRANCH   1  21
TORSDOF 12
ENDMDL
MODEL 7
REMARK VINA RESULT:      -7.6      2.021      2.681
REMARK  Name = 
REMARK  14 active torsions:
REMARK  status: ('A' for Active; 'I' for Inactive)
REMARK    1  A    between atoms: C_1  and  C_2
REMARK    2  A    between atoms: C_2  and  C_3
REMARK    3  A    between atoms: C_3  and  N_4
REMARK    4  A    between atoms: N_4  and  C_5
REMARK    5  A    between atoms: N_4  and  C_25
REMARK    6  A    between atoms: C_5  and  C_6
REMARK    7  A    between atoms: N_8  and  C_9
REMARK    8  A    between atoms: C_11  and  C_12
REMARK    9  A    between atoms: C_19  and  C_20
REMARK   10  A    between atoms: C_20  and  O_22
REMARK   11  A    between atoms: O_22  and  C_23
REMARK   12  A    between atoms: C_23  and  C_24
REMARK   13  A    between atoms: C_25  and  C_26
REMARK   14  A    between atoms: C_29  and  C_30
REMARK                            x       y       z     vdW  Elec       q    Type
REMARK                         _______ _______ _______ _____ _____    ______ ____
ROOT
ATOM      1  C   UNL     1       1.436   8.677  18.650  0.00  0.00    +0.000 C 
ATOM      2  O   UNL     1       1.197   8.761  17.447  0.00  0.00    +0.000 OA
ATOM      3  N   UNL     1       0.930   9.542  19.608  0.00  0.00    +0.000 N 
ATOM      4  H   UNL     1       1.519   9.731  20.414  0.00  0.00    +0.000 HD
ENDROOT
BRANCH   3   5
ATOM      5  C   UNL     1       0.063  10.562  19.226  0.00  0.00    +0.000 A 
ATOM      6  C   UNL     1      -1.358  10.448  19.191  0.00  0.00    +0.000 A 
ATOM      7  C   UNL     1      -1.986  11.595  18.742  0.00  0.00    +0.000 A 
ATOM      8  S   UNL     1      -0.827  12.788  18.347  0.00  0.00    +0.000 S 
ATOM      9  C   UNL     1       0.490  11.813  18.835  0.00  0.00    +0.000 A 
BRANCH   7  10
ATOM     10  C   UNL     1      -3.422  11.843  18.555  0.00  0.00    +0.000 A 
ATOM     11  C   UNL     1      -4.213  12.396  19.574  0.00  0.00    +0.000 A 
ATOM     12  C   UNL     1      -5.576  12.630  19.379  0.00  0.00    +0.000 A 
ATOM     13  C   UNL     1      -6.167  12.303  18.163  0.00  0.00    +0.000 A 
ATOM     14  C   UNL     1      -5.401  11.746  17.142  0.00  0.00    +0.000 A 
ATOM     15  C   UNL     1      -4.036  11.518  17.339  0.00  0.00    +0.000 A 
ENDBRANCH   7  10
BRANCH   9  16
ATOM     16  C   UNL     1       1.853  12.298  18.781  0.00  0.00    +0.000 C 
ATOM     17  O   UNL     1       2.704  11.883  18.001  0.00  0.00    +0.000 OA
BRANCH  16  18
ATOM     18  O   UNL     1       2.084  13.206  19.769  0.00  0.00    +0.000 OA
BRANCH  18  19
ATOM     19  C   UNL     1       3.092  14.184  19.493  0.00  0.00    +0.000 C 
ATOM     20  C   UNL     1       2.397  15.428  18.973  0.00  0.00    +0.000 C 
ENDBRANCH  18  19
ENDBRANCH  16  18
ENDBRANCH   9  16
ENDBRANCH   3   5
BRANCH   1  21
ATOM     21  C   UNL     1       2.391   7.624  19.210  0.00  0.00    +0.000 C 
BRANCH  21  22
ATOM     22  N   UNL     1       3.021   6.772  18.176  0.00  0.00    +0.000 NA
BRANCH  22  23
ATOM     23  C   UNL     1       2.979   5.331  18.476  0.00  0.00    +0.000 C 
BRANCH  23  25
ATOM     24  C   UNL     1       2.344   3.014  17.577  0.00  0.00    +0.000 C 
ATOM     25  C   UNL     1       2.002   4.494  17.635  0.00  0.00    +0.000 C 
ENDBRANCH  23  25
ENDBRANCH  22  23
BRANCH  22  26
ATOM     26  C   UNL     1       4.424   7.179  17.869  0.00  0.00    +0.000 C 
BRANCH  26  27
ATOM     27  C   UNL     1       5.261   6.142  17.185  0.00  0.00    +0.000 A 
ATOM     28  N   UNL     1       5.988   5.170  17.694  0.00  0.00    +0.000 NA
ATOM     29  N   UNL     1       6.530   4.492  16.626  0.00  0.00    +0.000 NA
ATOM     30  C   UNL     1       6.101   5.093  15.525  0.00  0.00    +0.000 A 
ATOM     31  O   UNL     1       5.296   6.164  15.820  0.00  0.00    +0.000 OA
BRANCH  30  32
ATOM     32  C   UNL     1       6.441   4.670  14.198  0.00  0.00    +0.000 A 
ATOM     33  C   UNL     1       5.882   3.647  13.450  0.00  0.00    +0.000 A 
ATOM     34  C   UNL     1       6.554   3.612  12.205  0.00  0.00    +0.000 A 
ATOM     35  C   UNL     1       7.487   4.619  12.254  0.00  0.00    +0.000 A 
ATOM     36  O   UNL     1       7.432   5.261  13.448  0.00  0.00    +0.000 OA
ENDBRANCH  30  32
ENDBRANCH  26  27
ENDBRANCH  22  26
ENDBRANCH  21  22
ENDBRANCH   1  21
TORSDOF 12
ENDMDL
MODEL 8
REMARK VINA RESULT:      -7.5      2.823     10.002
REMARK  Name = 
REMARK  14 active torsions:
REMARK  status: ('A' for Active; 'I' for Inactive)
REMARK    1  A    between atoms: C_1  and  C_2
REMARK    2  A    between atoms: C_2  and  C_3
REMARK    3  A    between atoms: C_3  and  N_4
REMARK    4  A    between atoms: N_4  and  C_5
REMARK    5  A    between atoms: N_4  and  C_25
REMARK    6  A    between atoms: C_5  and  C_6
REMARK    7  A    between atoms: N_8  and  C_9
REMARK    8  A    between atoms: C_11  and  C_12
REMARK    9  A    between atoms: C_19  and  C_20
REMARK   10  A    between atoms: C_20  and  O_22
REMARK   11  A    between atoms: O_22  and  C_23
REMARK   12  A    between atoms: C_23  and  C_24
REMARK   13  A    between atoms: C_25  and  C_26
REMARK   14  A    between atoms: C_29  and  C_30
REMARK                            x       y       z     vdW  Elec       q    Type
REMARK                         _______ _______ _______ _____ _____    ______ ____
ROOT
ATOM      1  C   UNL     1       2.682   8.076  17.771  0.00  0.00    +0.000 C 
ATOM      2  O   UNL     1       1.849   7.342  17.244  0.00  0.00    +0.000 OA
ATOM      3  N   UNL     1       4.037   7.791  17.847  0.00  0.00    +0.000 N 
ATOM      4  H   UNL     1       4.533   8.130  18.666  0.00  0.00    +0.000 HD
ENDROOT
BRANCH   3   5
ATOM      5  C   UNL     1       4.529   6.624  17.266  0.00  0.00    +0.000 A 
ATOM      6  C   UNL     1       5.024   6.529  15.933  0.00  0.00    +0.000 A 
ATOM      7  C   UNL     1       5.421   5.250  15.590  0.00  0.00    +0.000 A 
ATOM      8  S   UNL     1       5.160   4.178  16.897  0.00  0.00    +0.000 S 
ATOM      9  C   UNL     1       4.591   5.417  17.929  0.00  0.00    +0.000 A 
BRANCH   7  10
ATOM     10  C   UNL     1       5.960   4.767  14.311  0.00  0.00    +0.000 A 
ATOM     11  C   UNL     1       5.279   3.816  13.536  0.00  0.00    +0.000 A 
ATOM     12  C   UNL     1       5.801   3.372  12.320  0.00  0.00    +0.000 A 
ATOM     13  C   UNL     1       7.021   3.868  11.868  0.00  0.00    +0.000 A 
ATOM     14  C   UNL     1       7.716   4.806  12.627  0.00  0.00    +0.000 A 
ATOM     15  C   UNL     1       7.187   5.253  13.840  0.00  0.00    +0.000 A 
ENDBRANCH   7  10
BRANCH   9  16
ATOM     16  C   UNL     1       4.211   5.147  19.299  0.00  0.00    +0.000 C 
ATOM     17  O   UNL     1       4.982   4.751  20.166  0.00  0.00    +0.000 OA
BRANCH  16  18
ATOM     18  O   UNL     1       2.869   5.305  19.470  0.00  0.00    +0.000 OA
BRANCH  18  19
ATOM     19  C   UNL     1       2.067   4.148  19.209  0.00  0.00    +0.000 C 
ATOM     20  C   UNL     1       1.048   4.031  20.327  0.00  0.00    +0.000 C 
ENDBRANCH  18  19
ENDBRANCH  16  18
ENDBRANCH   9  16
ENDBRANCH   3   5
BRANCH   1  21
ATOM     21  C   UNL     1       2.284   9.375  18.471  0.00  0.00    +0.000 C 
BRANCH  21  22
ATOM     22  N   UNL     1       0.882   9.396  18.947  0.00  0.00    +0.000 NA
BRANCH  22  23
ATOM     23  C   UNL     1       0.099  10.543  18.457  0.00  0.00    +0.000 C 
BRANCH  23  25
ATOM     24  C   UNL     1      -2.407  10.041  18.236  0.00  0.00    +0.000 C 
ATOM     25  C   UNL     1      -1.075  10.209  17.523  0.00  0.00    +0.000 C 
ENDBRANCH  23  25
ENDBRANCH  22  23
BRANCH  22  26
ATOM     26  C   UNL     1       0.776   9.315  20.434  0.00  0.00    +0.000 C 
BRANCH  26  27
ATOM     27  C   UNL     1       0.409  10.593  21.124  0.00  0.00    +0.000 A 
ATOM     28  N   UNL     1       1.056  11.738  21.188  0.00  0.00    +0.000 NA
ATOM     29  N   UNL     1       0.264  12.589  21.924  0.00  0.00    +0.000 NA
ATOM     30  C   UNL     1      -0.822  11.911  22.268  0.00  0.00    +0.000 A 
ATOM     31  O   UNL     1      -0.780  10.625  21.797  0.00  0.00    +0.000 OA
BRANCH  30  32
ATOM     32  C   UNL     1      -1.900  12.463  23.037  0.00  0.00    +0.000 A 
ATOM     33  C   UNL     1      -2.069  13.767  23.473  0.00  0.00    +0.000 A 
ATOM     34  C   UNL     1      -3.283  13.821  24.198  0.00  0.00    +0.000 A 
ATOM     35  C   UNL     1      -3.796  12.547  24.165  0.00  0.00    +0.000 A 
ATOM     36  O   UNL     1      -2.973  11.720  23.473  0.00  0.00    +0.000 OA
ENDBRANCH  30  32
ENDBRANCH  26  27
ENDBRANCH  22  26
ENDBRANCH  21  22
ENDBRANCH   1  21
TORSDOF 12
ENDMDL
MODEL 9
REMARK VINA RESULT:      -7.5      3.325      9.000
REMARK  Name = 
REMARK  14 active torsions:
REMARK  status: ('A' for Active; 'I' for Inactive)
REMARK    1  A    between atoms: C_1  and  C_2
REMARK    2  A    between atoms: C_2  and  C_3
REMARK    3  A    between atoms: C_3  and  N_4
REMARK    4  A    between atoms: N_4  and  C_5
REMARK    5  A    between atoms: N_4  and  C_25
REMARK    6  A    between atoms: C_5  and  C_6
REMARK    7  A    between atoms: N_8  and  C_9
REMARK    8  A    between atoms: C_11  and  C_12
REMARK    9  A    between atoms: C_19  and  C_20
REMARK   10  A    between atoms: C_20  and  O_22
REMARK   11  A    between atoms: O_22  and  C_23
REMARK   12  A    between atoms: C_23  and  C_24
REMARK   13  A    between atoms: C_25  and  C_26
REMARK   14  A    between atoms: C_29  and  C_30
REMARK                            x       y       z     vdW  Elec       q    Type
REMARK                         _______ _______ _______ _____ _____    ______ ____
ROOT
ATOM      1  C   UNL     1       3.233   6.200  18.381  0.00  0.00    +0.000 C 
ATOM      2  O   UNL     1       2.933   5.027  18.165  0.00  0.00    +0.000 OA
ATOM      3  N   UNL     1       4.383   6.811  17.904  0.00  0.00    +0.000 N 
ATOM      4  H   UNL     1       4.797   7.531  18.490  0.00  0.00    +0.000 HD
ENDROOT
BRANCH   3   5
ATOM      5  C   UNL     1       5.260   6.094  17.095  0.00  0.00    +0.000 A 
ATOM      6  C   UNL     1       4.973   5.670  15.764  0.00  0.00    +0.000 A 
ATOM      7  C   UNL     1       6.000   4.944  15.191  0.00  0.00    +0.000 A 
ATOM      8  S   UNL     1       7.292   4.769  16.297  0.00  0.00    +0.000 S 
ATOM      9  C   UNL     1       6.521   5.709  17.499  0.00  0.00    +0.000 A 
BRANCH   7  10
ATOM     10  C   UNL     1       6.058   4.333  13.855  0.00  0.00    +0.000 A 
ATOM     11  C   UNL     1       7.226   4.370  13.079  0.00  0.00    +0.000 A 
ATOM     12  C   UNL     1       7.268   3.780  11.814  0.00  0.00    +0.000 A 
ATOM     13  C   UNL     1       6.134   3.154  11.305  0.00  0.00    +0.000 A 
ATOM     14  C   UNL     1       4.962   3.114  12.057  0.00  0.00    +0.000 A 
ATOM     15  C   UNL     1       4.927   3.700  13.325  0.00  0.00    +0.000 A 
ENDBRANCH   7  10
BRANCH   9  16
ATOM     16  C   UNL     1       7.161   5.993  18.767  0.00  0.00    +0.000 C 
ATOM     17  O   UNL     1       6.807   5.519  19.841  0.00  0.00    +0.000 OA
BRANCH  16  18
ATOM     18  O   UNL     1       8.145   6.922  18.616  0.00  0.00    +0.000 OA
BRANCH  18  19
ATOM     19  C   UNL     1       7.821   8.044  17.789  0.00  0.00    +0.000 C 
ATOM     20  C   UNL     1       8.523   9.259  18.365  0.00  0.00    +0.000 C 
ENDBRANCH  18  19
ENDBRANCH  16  18
ENDBRANCH   9  16
ENDBRANCH   3   5
BRANCH   1  21
ATOM     21  C   UNL     1       2.379   7.099  19.273  0.00  0.00    +0.000 C 
BRANCH  21  22
ATOM     22  N   UNL     1       1.933   6.452  20.528  0.00  0.00    +0.000 NA
BRANCH  22  23
ATOM     23  C   UNL     1       1.638   5.016  20.392  0.00  0.00    +0.000 C 
BRANCH  23  25
ATOM     24  C   UNL     1       1.582   2.736  21.566  0.00  0.00    +0.000 C 
ATOM     25  C   UNL     1       2.254   4.095  21.457  0.00  0.00    +0.000 C 
ENDBRANCH  23  25
ENDBRANCH  22  23
BRANCH  22  26
ATOM     26  C   UNL     1       0.769   7.146  21.154  0.00  0.00    +0.000 C 
BRANCH  26  27
ATOM     27  C   UNL     1       0.889   8.636  21.262  0.00  0.00    +0.000 A 
ATOM     28  N   UNL     1       1.449   9.375  22.197  0.00  0.00    +0.000 NA
ATOM     29  N   UNL     1       1.304  10.682  21.794  0.00  0.00    +0.000 NA
ATOM     30  C   UNL     1       0.661  10.665  20.635  0.00  0.00    +0.000 A 
ATOM     31  O   UNL     1       0.357   9.384  20.251  0.00  0.00    +0.000 OA
BRANCH  30  32
ATOM     32  C   UNL     1       0.329  11.841  19.885  0.00  0.00    +0.000 A 
ATOM     33  C   UNL     1       0.484  13.168  20.250  0.00  0.00    +0.000 A 
ATOM     34  C   UNL     1       0.009  13.964  19.181  0.00  0.00    +0.000 A 
ATOM     35  C   UNL     1      -0.410  13.082  18.215  0.00  0.00    +0.000 A 
ATOM     36  O   UNL     1      -0.225  11.802  18.626  0.00  0.00    +0.000 OA
ENDBRANCH  30  32
ENDBRANCH  26  27
ENDBRANCH  22  26
ENDBRANCH  21  22
ENDBRANCH   1  21
TORSDOF 12
ENDMDL
