MODEL 1
REMARK VINA RESULT:      -7.2      0.000      0.000
REMARK  Name = 
REMARK  8 active torsions:
REMARK  status: ('A' for Active; 'I' for Inactive)
REMARK    1  A    between atoms: C_1  and  C_2
REMARK    2  A    between atoms: C_2  and  N_3
REMARK    3  A    between atoms: N_3  and  C_4
REMARK    4  A    between atoms: C_4  and  C_5
REMARK    5  A    between atoms: C_6  and  C_8
REMARK    6  A    between atoms: C_12  and  C_13
REMARK    7  A    between atoms: N_15  and  C_16
REMARK    8  A    between atoms: C_16  and  C_17
REMARK                            x       y       z     vdW  Elec       q    Type
REMARK                         _______ _______ _______ _____ _____    ______ ____
ROOT
ATOM      1  C   UNL     1       4.760   3.719  18.840  0.00  0.00    +0.000 A 
ATOM      2  N   UNL     1       4.903   2.415  19.256  0.00  0.00    +0.000 N 
ATOM      3  C   UNL     1       3.697   1.790  19.174  0.00  0.00    +0.000 A 
ATOM      4  N   UNL     1       2.755   2.617  18.797  0.00  0.00    +0.000 NA
ATOM      5  C   UNL     1       3.398   3.838  18.581  0.00  0.00    +0.000 A 
ATOM      6  H   UNL     1       5.757   1.990  19.584  0.00  0.00    +0.000 HD
ENDROOT
BRANCH   5   7
ATOM      7  C   UNL     1       2.656   5.022  18.129  0.00  0.00    +0.000 C 
ATOM      8  O   UNL     1       1.583   4.977  17.540  0.00  0.00    +0.000 OA
ATOM      9  N   UNL     1       3.285   6.204  18.460  0.00  0.00    +0.000 N 
ATOM     10  H   UNL     1       4.200   6.125  18.893  0.00  0.00    +0.000 HD
BRANCH   9  11
ATOM     11  C   UNL     1       2.821   7.466  17.951  0.00  0.00    +0.000 C 
BRANCH  11  12
ATOM     12  C   UNL     1       1.986   8.211  18.961  0.00  0.00    +0.000 A 
ATOM     13  C   UNL     1       1.328   9.402  18.613  0.00  0.00    +0.000 A 
ATOM     14  C   UNL     1       0.530  10.065  19.549  0.00  0.00    +0.000 A 
ATOM     15  C   UNL     1       0.385   9.551  20.836  0.00  0.00    +0.000 A 
ATOM     16  C   UNL     1       1.051   8.379  21.196  0.00  0.00    +0.000 A 
ATOM     17  C   UNL     1       1.856   7.717  20.267  0.00  0.00    +0.000 A 
ENDBRANCH  11  12
ENDBRANCH   9  11
ENDBRANCH   5   7
BRANCH   1  19
ATOM     18  N   UNL     1       6.507   4.957  17.619  0.00  0.00    +0.000 N 
ATOM     19  C   UNL     1       5.796   4.731  18.822  0.00  0.00    +0.000 C 
ATOM     20  O   UNL     1       6.088   5.349  19.844  0.00  0.00    +0.000 OA
BRANCH  18  22
ATOM     21  C   UNL     1       7.058   7.367  17.318  0.00  0.00    +0.000 C 
ATOM     22  C   UNL     1       7.565   5.974  17.671  0.00  0.00    +0.000 C 
ENDBRANCH  18  22
BRANCH  18  23
ATOM     23  C   UNL     1       6.263   4.207  16.381  0.00  0.00    +0.000 C 
ATOM     24  C   UNL     1       5.390   4.820  15.299  0.00  0.00    +0.000 C 
ENDBRANCH  18  23
ENDBRANCH   1  19
TORSDOF 6
ENDMDL
MODEL 2
REMARK VINA RESULT:      -7.2      0.159      1.042
REMARK  Name = 
REMARK  8 active torsions:
REMARK  status: ('A' for Active; 'I' for Inactive)
REMARK    1  A    between atoms: C_1  and  C_2
REMARK    2  A    between atoms: C_2  and  N_3
REMARK    3  A    between atoms: N_3  and  C_4
REMARK    4  A    between atoms: C_4  and  C_5
REMARK    5  A    between atoms: C_6  and  C_8
REMARK    6  A    between atoms: C_12  and  C_13
REMARK    7  A    between atoms: N_15  and  C_16
REMARK    8  A    between atoms: C_16  and  C_17
REMARK                            x       y       z     vdW  Elec       q    Type
REMARK                         _______ _______ _______ _____ _____    ______ ____
ROOT
ATOM      1  C   UNL     1       4.804   3.679  18.915  0.00  0.00    +0.000 A 
ATOM      2  N   UNL     1       4.929   2.396  19.397  0.00  0.00    +0.000 N 
ATOM      3  C   UNL     1       3.701   1.809  19.414  0.00  0.00    +0.000 A 
ATOM      4  N   UNL     1       2.766   2.647  19.041  0.00  0.00    +0.000 NA
ATOM      5  C   UNL     1       3.435   3.830  18.721  0.00  0.00    +0.000 A 
ATOM      6  H   UNL     1       5.785   1.961  19.703  0.00  0.00    +0.000 HD
ENDROOT
BRANCH   5   7
ATOM      7  C   UNL     1       2.707   5.013  18.241  0.00  0.00    +0.000 C 
ATOM      8  O   UNL     1       1.643   4.966  17.635  0.00  0.00    +0.000 OA
ATOM      9  N   UNL     1       3.337   6.196  18.567  0.00  0.00    +0.000 N 
ATOM     10  H   UNL     1       4.244   6.118  19.016  0.00  0.00    +0.000 HD
BRANCH   9  11
ATOM     11  C   UNL     1       2.888   7.453  18.034  0.00  0.00    +0.000 C 
BRANCH  11  12
ATOM     12  C   UNL     1       1.999   8.193  19.002  0.00  0.00    +0.000 A 
ATOM     13  C   UNL     1       1.830   7.735  20.318  0.00  0.00    +0.000 A 
ATOM     14  C   UNL     1       1.031   8.449  21.215  0.00  0.00    +0.000 A 
ATOM     15  C   UNL     1       0.394   9.618  20.807  0.00  0.00    +0.000 A 
ATOM     16  C   UNL     1       0.541  10.071  19.495  0.00  0.00    +0.000 A 
ATOM     17  C   UNL     1       1.332   9.356  18.593  0.00  0.00    +0.000 A 
ENDBRANCH  11  12
ENDBRANCH   9  11
ENDBRANCH   5   7
BRANCH   1  19
ATOM     18  N   UNL     1       6.438   4.873  17.507  0.00  0.00    +0.000 N 
ATOM     19  C   UNL     1       5.869   4.652  18.784  0.00  0.00    +0.000 C 
ATOM     20  O   UNL     1       6.306   5.241  19.771  0.00  0.00    +0.000 OA
BRANCH  18  22
ATOM     21  C   UNL     1       7.035   7.283  17.316  0.00  0.00    +0.000 C 
ATOM     22  C   UNL     1       7.533   5.849  17.443  0.00  0.00    +0.000 C 
ENDBRANCH  18  22
BRANCH  18  23
ATOM     23  C   UNL     1       6.018   4.154  16.298  0.00  0.00    +0.000 C 
ATOM     24  C   UNL     1       5.494   4.941  15.108  0.00  0.00    +0.000 C 
ENDBRANCH  18  23
ENDBRANCH   1  19
TORSDOF 6
ENDMDL
MODEL 3
REMARK VINA RESULT:      -7.2      1.526      2.573
REMARK  Name = 
REMARK  8 active torsions:
REMARK  status: ('A' for Active; 'I' for Inactive)
REMARK    1  A    between atoms: C_1  and  C_2
REMARK    2  A    between atoms: C_2  and  N_3
REMARK    3  A    between atoms: N_3  and  C_4
REMARK    4  A    between atoms: C_4  and  C_5
REMARK    5  A    between atoms: C_6  and  C_8
REMARK    6  A    between atoms: C_12  and  C_13
REMARK    7  A    between atoms: N_15  and  C_16
REMARK    8  A    between atoms: C_16  and  C_17
REMARK                            x       y       z     vdW  Elec       q    Type
REMARK                         _______ _______ _______ _____ _____    ______ ____
ROOT
ATOM      1  C   UNL     1       3.983   3.517  19.096  0.00  0.00    +0.000 A 
ATOM      2  N   UNL     1       4.879   2.510  19.375  0.00  0.00    +0.000 N 
ATOM      3  C   UNL     1       4.554   1.949  20.572  0.00  0.00    +0.000 A 
ATOM      4  N   UNL     1       3.546   2.569  21.132  0.00  0.00    +0.000 NA
ATOM      5  C   UNL     1       3.168   3.560  20.223  0.00  0.00    +0.000 A 
ATOM      6  H   UNL     1       5.658   2.237  18.797  0.00  0.00    +0.000 HD
ENDROOT
BRANCH   5   7
ATOM      7  C   UNL     1       2.044   4.463  20.502  0.00  0.00    +0.000 C 
ATOM      8  O   UNL     1       0.866   4.134  20.439  0.00  0.00    +0.000 OA
ATOM      9  N   UNL     1       2.454   5.728  20.869  0.00  0.00    +0.000 N 
ATOM     10  H   UNL     1       3.452   5.910  20.829  0.00  0.00    +0.000 HD
BRANCH   9  11
ATOM     11  C   UNL     1       1.516   6.808  21.005  0.00  0.00    +0.000 C 
BRANCH  11  12
ATOM     12  C   UNL     1       1.673   7.835  19.912  0.00  0.00    +0.000 A 
ATOM     13  C   UNL     1       2.430   7.552  18.763  0.00  0.00    +0.000 A 
ATOM     14  C   UNL     1       2.540   8.501  17.743  0.00  0.00    +0.000 A 
ATOM     15  C   UNL     1       1.902   9.733  17.860  0.00  0.00    +0.000 A 
ATOM     16  C   UNL     1       1.164  10.030  19.006  0.00  0.00    +0.000 A 
ATOM     17  C   UNL     1       1.058   9.089  20.032  0.00  0.00    +0.000 A 
ENDBRANCH  11  12
ENDBRANCH   9  11
ENDBRANCH   5   7
BRANCH   1  19
ATOM     18  N   UNL     1       5.143   5.213  17.734  0.00  0.00    +0.000 N 
ATOM     19  C   UNL     1       4.009   4.391  17.941  0.00  0.00    +0.000 C 
ATOM     20  O   UNL     1       3.045   4.456  17.181  0.00  0.00    +0.000 OA
BRANCH  18  22
ATOM     21  C   UNL     1       5.655   5.442  15.308  0.00  0.00    +0.000 C 
ATOM     22  C   UNL     1       5.098   6.100  16.564  0.00  0.00    +0.000 C 
ENDBRANCH  18  22
BRANCH  18  23
ATOM     23  C   UNL     1       6.298   5.243  18.639  0.00  0.00    +0.000 C 
ATOM     24  C   UNL     1       7.387   6.280  18.422  0.00  0.00    +0.000 C 
ENDBRANCH  18  23
ENDBRANCH   1  19
TORSDOF 6
ENDMDL
MODEL 4
REMARK VINA RESULT:      -7.0      2.997      7.322
REMARK  Name = 
REMARK  8 active torsions:
REMARK  status: ('A' for Active; 'I' for Inactive)
REMARK    1  A    between atoms: C_1  and  C_2
REMARK    2  A    between atoms: C_2  and  N_3
REMARK    3  A    between atoms: N_3  and  C_4
REMARK    4  A    between atoms: C_4  and  C_5
REMARK    5  A    between atoms: C_6  and  C_8
REMARK    6  A    between atoms: C_12  and  C_13
REMARK    7  A    between atoms: N_15  and  C_16
REMARK    8  A    between atoms: C_16  and  C_17
REMARK                            x       y       z     vdW  Elec       q    Type
REMARK                         _______ _______ _______ _____ _____    ______ ____
ROOT
ATOM      1  C   UNL     1       5.723   4.423  17.537  0.00  0.00    +0.000 A 
ATOM      2  N   UNL     1       6.490   4.225  18.662  0.00  0.00    +0.000 N 
ATOM      3  C   UNL     1       7.743   4.703  18.432  0.00  0.00    +0.000 A 
ATOM      4  N   UNL     1       7.870   5.140  17.205  0.00  0.00    +0.000 NA
ATOM      5  C   UNL     1       6.613   4.974  16.620  0.00  0.00    +0.000 A 
ATOM      6  H   UNL     1       6.183   3.784  19.515  0.00  0.00    +0.000 HD
ENDROOT
BRANCH   5   7
ATOM      7  C   UNL     1       6.359   5.371  15.229  0.00  0.00    +0.000 C 
ATOM      8  O   UNL     1       5.369   5.991  14.860  0.00  0.00    +0.000 OA
ATOM      9  N   UNL     1       7.372   4.991  14.372  0.00  0.00    +0.000 N 
ATOM     10  H   UNL     1       8.115   4.427  14.772  0.00  0.00    +0.000 HD
BRANCH   9  11
ATOM     11  C   UNL     1       7.233   5.119  12.947  0.00  0.00    +0.000 C 
BRANCH  11  12
ATOM     12  C   UNL     1       6.725   3.850  12.311  0.00  0.00    +0.000 A 
ATOM     13  C   UNL     1       5.347   3.588  12.229  0.00  0.00    +0.000 A 
ATOM     14  C   UNL     1       4.889   2.424  11.607  0.00  0.00    +0.000 A 
ATOM     15  C   UNL     1       5.795   1.514  11.068  0.00  0.00    +0.000 A 
ATOM     16  C   UNL     1       7.166   1.757  11.163  0.00  0.00    +0.000 A 
ATOM     17  C   UNL     1       7.629   2.915  11.790  0.00  0.00    +0.000 A 
ENDBRANCH  11  12
ENDBRANCH   9  11
ENDBRANCH   5   7
BRANCH   1  19
ATOM     18  N   UNL     1       3.314   4.857  17.828  0.00  0.00    +0.000 N 
ATOM     19  C   UNL     1       4.345   4.012  17.355  0.00  0.00    +0.000 C 
ATOM     20  O   UNL     1       4.076   2.927  16.844  0.00  0.00    +0.000 OA
BRANCH  18  22
ATOM     21  C   UNL     1       1.354   3.768  18.912  0.00  0.00    +0.000 C 
ATOM     22  C   UNL     1       1.940   4.373  17.642  0.00  0.00    +0.000 C 
ENDBRANCH  18  22
BRANCH  18  23
ATOM     23  C   UNL     1       3.561   6.132  18.513  0.00  0.00    +0.000 C 
ATOM     24  C   UNL     1       3.455   7.430  17.730  0.00  0.00    +0.000 C 
ENDBRANCH  18  23
ENDBRANCH   1  19
TORSDOF 6
ENDMDL
MODEL 5
REMARK VINA RESULT:      -7.0      1.348      1.813
REMARK  Name = 
REMARK  8 active torsions:
REMARK  status: ('A' for Active; 'I' for Inactive)
REMARK    1  A    between atoms: C_1  and  C_2
REMARK    2  A    between atoms: C_2  and  N_3
REMARK    3  A    between atoms: N_3  and  C_4
REMARK    4  A    between atoms: C_4  and  C_5
REMARK    5  A    between atoms: C_6  and  C_8
REMARK    6  A    between atoms: C_12  and  C_13
REMARK    7  A    between atoms: N_15  and  C_16
REMARK    8  A    between atoms: C_16  and  C_17
REMARK                            x       y       z     vdW  Elec       q    Type
REMARK                         _______ _______ _______ _____ _____    ______ ____
ROOT
ATOM      1  C   UNL     1       4.325   3.386  18.782  0.00  0.00    +0.000 A 
ATOM      2  N   UNL     1       4.316   2.209  18.070  0.00  0.00    +0.000 N 
ATOM      3  C   UNL     1       3.162   1.538  18.339  0.00  0.00    +0.000 A 
ATOM      4  N   UNL     1       2.444   2.165  19.237  0.00  0.00    +0.000 NA
ATOM      5  C   UNL     1       3.154   3.331  19.532  0.00  0.00    +0.000 A 
ATOM      6  H   UNL     1       5.048   1.883  17.458  0.00  0.00    +0.000 HD
ENDROOT
BRANCH   5   7
ATOM      7  C   UNL     1       2.645   4.309  20.502  0.00  0.00    +0.000 C 
ATOM      8  O   UNL     1       2.284   4.026  21.638  0.00  0.00    +0.000 OA
ATOM      9  N   UNL     1       2.638   5.597  20.009  0.00  0.00    +0.000 N 
ATOM     10  H   UNL     1       2.899   5.710  19.034  0.00  0.00    +0.000 HD
BRANCH   9  11
ATOM     11  C   UNL     1       2.009   6.670  20.729  0.00  0.00    +0.000 C 
BRANCH  11  12
ATOM     12  C   UNL     1       1.801   7.887  19.864  0.00  0.00    +0.000 A 
ATOM     13  C   UNL     1       2.304   7.932  18.553  0.00  0.00    +0.000 A 
ATOM     14  C   UNL     1       2.076   9.053  17.750  0.00  0.00    +0.000 A 
ATOM     15  C   UNL     1       1.352  10.135  18.246  0.00  0.00    +0.000 A 
ATOM     16  C   UNL     1       0.865  10.106  19.554  0.00  0.00    +0.000 A 
ATOM     17  C   UNL     1       1.097   8.992  20.363  0.00  0.00    +0.000 A 
ENDBRANCH  11  12
ENDBRANCH   9  11
ENDBRANCH   5   7
BRANCH   1  19
ATOM     18  N   UNL     1       5.828   4.935  17.591  0.00  0.00    +0.000 N 
ATOM     19  C   UNL     1       5.395   4.362  18.811  0.00  0.00    +0.000 C 
ATOM     20  O   UNL     1       5.952   4.653  19.868  0.00  0.00    +0.000 OA
BRANCH  18  22
ATOM     21  C   UNL     1       6.534   7.297  17.242  0.00  0.00    +0.000 C 
ATOM     22  C   UNL     1       6.936   5.895  17.681  0.00  0.00    +0.000 C 
ENDBRANCH  18  22
BRANCH  18  23
ATOM     23  C   UNL     1       5.260   4.583  16.284  0.00  0.00    +0.000 C 
ATOM     24  C   UNL     1       6.183   4.103  15.177  0.00  0.00    +0.000 C 
ENDBRANCH  18  23
ENDBRANCH   1  19
TORSDOF 6
ENDMDL
MODEL 6
REMARK VINA RESULT:      -6.9      1.269      1.839
REMARK  Name = 
REMARK  8 active torsions:
REMARK  status: ('A' for Active; 'I' for Inactive)
REMARK    1  A    between atoms: C_1  and  C_2
REMARK    2  A    between atoms: C_2  and  N_3
REMARK    3  A    between atoms: N_3  and  C_4
REMARK    4  A    between atoms: C_4  and  C_5
REMARK    5  A    between atoms: C_6  and  C_8
REMARK    6  A    between atoms: C_12  and  C_13
REMARK    7  A    between atoms: N_15  and  C_16
REMARK    8  A    between atoms: C_16  and  C_17
REMARK                            x       y       z     vdW  Elec       q    Type
REMARK                         _______ _______ _______ _____ _____    ______ ____
ROOT
ATOM      1  C   UNL     1       4.079   3.688  18.760  0.00  0.00    +0.000 A 
ATOM      2  N   UNL     1       4.502   2.448  18.339  0.00  0.00    +0.000 N 
ATOM      3  C   UNL     1       3.534   1.533  18.619  0.00  0.00    +0.000 A 
ATOM      4  N   UNL     1       2.531   2.079  19.261  0.00  0.00    +0.000 NA
ATOM      5  C   UNL     1       2.850   3.435  19.362  0.00  0.00    +0.000 A 
ATOM      6  H   UNL     1       5.388   2.242  17.907  0.00  0.00    +0.000 HD
ENDROOT
BRANCH   5   7
ATOM      7  C   UNL     1       1.942   4.385  20.018  0.00  0.00    +0.000 C 
ATOM      8  O   UNL     1       0.754   4.169  20.227  0.00  0.00    +0.000 OA
ATOM      9  N   UNL     1       2.574   5.550  20.401  0.00  0.00    +0.000 N 
ATOM     10  H   UNL     1       3.546   5.651  20.123  0.00  0.00    +0.000 HD
BRANCH   9  11
ATOM     11  C   UNL     1       1.830   6.678  20.890  0.00  0.00    +0.000 C 
BRANCH  11  12
ATOM     12  C   UNL     1       1.764   7.794  19.878  0.00  0.00    +0.000 A 
ATOM     13  C   UNL     1       1.076   8.985  20.164  0.00  0.00    +0.000 A 
ATOM     14  C   UNL     1       1.050  10.024  19.230  0.00  0.00    +0.000 A 
ATOM     15  C   UNL     1       1.704   9.884  18.008  0.00  0.00    +0.000 A 
ATOM     16  C   UNL     1       2.374   8.698  17.708  0.00  0.00    +0.000 A 
ATOM     17  C   UNL     1       2.396   7.653  18.634  0.00  0.00    +0.000 A 
ENDBRANCH  11  12
ENDBRANCH   9  11
ENDBRANCH   5   7
BRANCH   1  19
ATOM     18  N   UNL     1       5.086   5.495  17.419  0.00  0.00    +0.000 N 
ATOM     19  C   UNL     1       4.836   4.922  18.689  0.00  0.00    +0.000 C 
ATOM     20  O   UNL     1       5.295   5.436  19.706  0.00  0.00    +0.000 OA
BRANCH  18  22
ATOM     21  C   UNL     1       7.382   6.458  17.459  0.00  0.00    +0.000 C 
ATOM     22  C   UNL     1       5.883   6.728  17.409  0.00  0.00    +0.000 C 
ENDBRANCH  18  22
BRANCH  18  23
ATOM     23  C   UNL     1       4.631   4.899  16.157  0.00  0.00    +0.000 C 
ATOM     24  C   UNL     1       5.643   4.227  15.245  0.00  0.00    +0.000 C 
ENDBRANCH  18  23
ENDBRANCH   1  19
TORSDOF 6
ENDMDL
MODEL 7
REMARK VINA RESULT:      -6.9      1.883      2.775
REMARK  Name = 
REMARK  8 active torsions:
REMARK  status: ('A' for Active; 'I' for Inactive)
REMARK    1  A    between atoms: C_1  and  C_2
REMARK    2  A    between atoms: C_2  and  N_3
REMARK    3  A    between atoms: N_3  and  C_4
REMARK    4  A    between atoms: C_4  and  C_5
REMARK    5  A    between atoms: C_6  and  C_8
REMARK    6  A    between atoms: C_12  and  C_13
REMARK    7  A    between atoms: N_15  and  C_16
REMARK    8  A    between atoms: C_16  and  C_17
REMARK                            x       y       z     vdW  Elec       q    Type
REMARK                         _______ _______ _______ _____ _____    ______ ____
ROOT
ATOM      1  C   UNL     1       3.937   2.686  19.189  0.00  0.00    +0.000 A 
ATOM      2  N   UNL     1       4.878   1.761  19.580  0.00  0.00    +0.000 N 
ATOM      3  C   UNL     1       4.692   1.471  20.897  0.00  0.00    +0.000 A 
ATOM      4  N   UNL     1       3.734   2.198  21.415  0.00  0.00    +0.000 NA
ATOM      5  C   UNL     1       3.243   2.971  20.361  0.00  0.00    +0.000 A 
ATOM      6  H   UNL     1       5.599   1.369  18.995  0.00  0.00    +0.000 HD
ENDROOT
BRANCH   5   7
ATOM      7  C   UNL     1       2.135   3.914  20.558  0.00  0.00    +0.000 C 
ATOM      8  O   UNL     1       0.950   3.609  20.481  0.00  0.00    +0.000 OA
ATOM      9  N   UNL     1       2.566   5.188  20.864  0.00  0.00    +0.000 N 
ATOM     10  H   UNL     1       3.569   5.345  20.840  0.00  0.00    +0.000 HD
BRANCH   9  11
ATOM     11  C   UNL     1       1.651   6.296  20.913  0.00  0.00    +0.000 C 
BRANCH  11  12
ATOM     12  C   UNL     1       1.880   7.269  19.784  0.00  0.00    +0.000 A 
ATOM     13  C   UNL     1       1.331   8.561  19.825  0.00  0.00    +0.000 A 
ATOM     14  C   UNL     1       1.579   9.464  18.788  0.00  0.00    +0.000 A 
ATOM     15  C   UNL     1       2.370   9.088  17.705  0.00  0.00    +0.000 A 
ATOM     16  C   UNL     1       2.904   7.800  17.647  0.00  0.00    +0.000 A 
ATOM     17  C   UNL     1       2.652   6.891  18.676  0.00  0.00    +0.000 A 
ENDBRANCH  11  12
ENDBRANCH   9  11
ENDBRANCH   5   7
BRANCH   1  19
ATOM     18  N   UNL     1       4.866   4.134  17.423  0.00  0.00    +0.000 N 
ATOM     19  C   UNL     1       3.823   3.291  17.877  0.00  0.00    +0.000 C 
ATOM     20  O   UNL     1       2.819   3.117  17.190  0.00  0.00    +0.000 OA
BRANCH  18  22
ATOM     21  C   UNL     1       5.964   5.347  15.547  0.00  0.00    +0.000 C 
ATOM     22  C   UNL     1       4.680   4.742  16.100  0.00  0.00    +0.000 C 
ENDBRANCH  18  22
BRANCH  18  23
ATOM     23  C   UNL     1       6.060   4.445  18.218  0.00  0.00    +0.000 C 
ATOM     24  C   UNL     1       5.983   5.523  19.287  0.00  0.00    +0.000 C 
ENDBRANCH  18  23
ENDBRANCH   1  19
TORSDOF 6
ENDMDL
MODEL 8
REMARK VINA RESULT:      -6.8      3.001      7.367
REMARK  Name = 
REMARK  8 active torsions:
REMARK  status: ('A' for Active; 'I' for Inactive)
REMARK    1  A    between atoms: C_1  and  C_2
REMARK    2  A    between atoms: C_2  and  N_3
REMARK    3  A    between atoms: N_3  and  C_4
REMARK    4  A    between atoms: C_4  and  C_5
REMARK    5  A    between atoms: C_6  and  C_8
REMARK    6  A    between atoms: C_12  and  C_13
REMARK    7  A    between atoms: N_15  and  C_16
REMARK    8  A    between atoms: C_16  and  C_17
REMARK                            x       y       z     vdW  Elec       q    Type
REMARK                         _______ _______ _______ _____ _____    ______ ____
ROOT
ATOM      1  C   UNL     1       5.622   4.621  17.985  0.00  0.00    +0.000 A 
ATOM      2  N   UNL     1       6.584   4.638  18.969  0.00  0.00    +0.000 N 
ATOM      3  C   UNL     1       7.670   5.321  18.514  0.00  0.00    +0.000 A 
ATOM      4  N   UNL     1       7.513   5.693  17.269  0.00  0.00    +0.000 NA
ATOM      5  C   UNL     1       6.232   5.265  16.912  0.00  0.00    +0.000 A 
ATOM      6  H   UNL     1       6.508   4.205  19.876  0.00  0.00    +0.000 HD
ENDROOT
BRANCH   5   7
ATOM      7  C   UNL     1       5.687   5.519  15.572  0.00  0.00    +0.000 C 
ATOM      8  O   UNL     1       5.194   6.584  15.221  0.00  0.00    +0.000 OA
ATOM      9  N   UNL     1       5.809   4.432  14.731  0.00  0.00    +0.000 N 
ATOM     10  H   UNL     1       6.176   3.580  15.143  0.00  0.00    +0.000 HD
BRANCH   9  11
ATOM     11  C   UNL     1       5.176   4.411  13.441  0.00  0.00    +0.000 C 
BRANCH  11  12
ATOM     12  C   UNL     1       5.843   3.439  12.500  0.00  0.00    +0.000 A 
ATOM     13  C   UNL     1       7.201   3.573  12.171  0.00  0.00    +0.000 A 
ATOM     14  C   UNL     1       7.815   2.646  11.324  0.00  0.00    +0.000 A 
ATOM     15  C   UNL     1       7.082   1.585  10.798  0.00  0.00    +0.000 A 
ATOM     16  C   UNL     1       5.726   1.456  11.104  0.00  0.00    +0.000 A 
ATOM     17  C   UNL     1       5.107   2.384  11.943  0.00  0.00    +0.000 A 
ENDBRANCH  11  12
ENDBRANCH   9  11
ENDBRANCH   5   7
BRANCH   1  19
ATOM     18  N   UNL     1       3.240   4.650  18.616  0.00  0.00    +0.000 N 
ATOM     19  C   UNL     1       4.337   3.955  18.054  0.00  0.00    +0.000 C 
ATOM     20  O   UNL     1       4.212   2.792  17.677  0.00  0.00    +0.000 OA
BRANCH  18  22
ATOM     21  C   UNL     1       1.204   4.186  19.974  0.00  0.00    +0.000 C 
ATOM     22  C   UNL     1       1.971   3.913  18.686  0.00  0.00    +0.000 C 
ENDBRANCH  18  22
BRANCH  18  23
ATOM     23  C   UNL     1       3.332   6.013  19.152  0.00  0.00    +0.000 C 
ATOM     24  C   UNL     1       2.868   7.182  18.299  0.00  0.00    +0.000 C 
ENDBRANCH  18  23
ENDBRANCH   1  19
TORSDOF 6
ENDMDL
MODEL 9
REMARK VINA RESULT:      -6.7      1.300      1.928
REMARK  Name = 
REMARK  8 active torsions:
REMARK  status: ('A' for Active; 'I' for Inactive)
REMARK    1  A    between atoms: C_1  and  C_2
REMARK    2  A    between atoms: C_2  and  N_3
REMARK    3  A    between atoms: N_3  and  C_4
REMARK    4  A    between atoms: C_4  and  C_5
REMARK    5  A    between atoms: C_6  and  C_8
REMARK    6  A    between atoms: C_12  and  C_13
REMARK    7  A    between atoms: N_15  and  C_16
REMARK    8  A    between atoms: C_16  and  C_17
REMARK                            x       y       z     vdW  Elec       q    Type
REMARK                         _______ _______ _______ _____ _____    ______ ____
ROOT
ATOM      1  C   UNL     1       4.482   3.836  19.305  0.00  0.00    +0.000 A 
ATOM      2  N   UNL     1       5.147   2.632  19.363  0.00  0.00    +0.000 N 
ATOM      3  C   UNL     1       4.314   1.692  19.887  0.00  0.00    +0.000 A 
ATOM      4  N   UNL     1       3.168   2.214  20.243  0.00  0.00    +0.000 NA
ATOM      5  C   UNL     1       3.248   3.562  19.887  0.00  0.00    +0.000 A 
ATOM      6  H   UNL     1       6.100   2.471  19.079  0.00  0.00    +0.000 HD
ENDROOT
BRANCH   5   7
ATOM      7  C   UNL     1       2.127   4.482  20.123  0.00  0.00    +0.000 C 
ATOM      8  O   UNL     1       0.974   4.265  19.770  0.00  0.00    +0.000 OA
ATOM      9  N   UNL     1       2.503   5.618  20.809  0.00  0.00    +0.000 N 
ATOM     10  H   UNL     1       3.495   5.726  20.998  0.00  0.00    +0.000 HD
BRANCH   9  11
ATOM     11  C   UNL     1       1.600   6.723  20.978  0.00  0.00    +0.000 C 
BRANCH  11  12
ATOM     12  C   UNL     1       1.741   7.742  19.876  0.00  0.00    +0.000 A 
ATOM     13  C   UNL     1       2.471   7.448  18.713  0.00  0.00    +0.000 A 
ATOM     14  C   UNL     1       2.566   8.390  17.684  0.00  0.00    +0.000 A 
ATOM     15  C   UNL     1       1.939   9.628  17.808  0.00  0.00    +0.000 A 
ATOM     16  C   UNL     1       1.228   9.936  18.968  0.00  0.00    +0.000 A 
ATOM     17  C   UNL     1       1.137   9.001  20.002  0.00  0.00    +0.000 A 
ENDBRANCH  11  12
ENDBRANCH   9  11
ENDBRANCH   5   7
BRANCH   1  19
ATOM     18  N   UNL     1       5.188   5.316  17.465  0.00  0.00    +0.000 N 
ATOM     19  C   UNL     1       5.032   5.098  18.855  0.00  0.00    +0.000 C 
ATOM     20  O   UNL     1       5.402   5.946  19.664  0.00  0.00    +0.000 OA
BRANCH  18  22
ATOM     21  C   UNL     1       7.290   6.638  17.265  0.00  0.00    +0.000 C 
ATOM     22  C   UNL     1       5.779   6.602  17.072  0.00  0.00    +0.000 C 
ENDBRANCH  18  22
BRANCH  18  23
ATOM     23  C   UNL     1       4.836   4.322  16.444  0.00  0.00    +0.000 C 
ATOM     24  C   UNL     1       5.396   4.468  15.039  0.00  0.00    +0.000 C 
ENDBRANCH  18  23
ENDBRANCH   1  19
TORSDOF 6
ENDMDL
