MODEL 1
REMARK VINA RESULT:      -6.3      0.000      0.000
REMARK  Name = 
REMARK  6 active torsions:
REMARK  status: ('A' for Active; 'I' for Inactive)
REMARK    1  A    between atoms: C_1  and  C_2
REMARK    2  A    between atoms: C_8  and  O_9
REMARK    3  A    between atoms: O_9  and  C_10
REMARK    4  A    between atoms: C_10  and  C_11
REMARK    5  A    between atoms: C_11  and  O_12
REMARK    6  A    between atoms: N_21  and  C_22
REMARK                            x       y       z     vdW  Elec       q    Type
REMARK                         _______ _______ _______ _____ _____    ______ ____
ROOT
ATOM      1  C   UNL     1      -6.322  12.057  17.399  0.00  0.00    +0.000 C 
ATOM      2  C   UNL     1      -5.041  12.123  18.217  0.00  0.00    +0.000 A 
ATOM      3  C   UNL     1      -3.876  11.389  17.600  0.00  0.00    +0.000 A 
ATOM      4  C   UNL     1      -3.802  10.726  16.356  0.00  0.00    +0.000 A 
ATOM      5  C   UNL     1      -2.599  10.021  16.255  0.00  0.00    +0.000 A 
ATOM      6  C   UNL     1      -1.854  10.180  17.393  0.00  0.00    +0.000 A 
ATOM      7  C   UNL     1      -2.534  11.037  18.206  0.00  0.00    +0.000 A 
ATOM      8  C   UNL     1      -2.022  11.596  19.362  0.00  0.00    +0.000 A 
ATOM      9  C   UNL     1      -2.578  12.751  19.709  0.00  0.00    +0.000 A 
ATOM     10  C   UNL     1      -3.761  12.552  20.284  0.00  0.00    +0.000 A 
ATOM     11  C   UNL     1      -3.889  12.560  21.621  0.00  0.00    +0.000 A 
ATOM     12  C   UNL     1      -2.895  12.374  22.584  0.00  0.00    +0.000 A 
ATOM     13  C   UNL     1      -3.248  12.488  23.917  0.00  0.00    +0.000 A 
ATOM     14  C   UNL     1      -4.562  12.865  24.252  0.00  0.00    +0.000 A 
ATOM     15  C   UNL     1      -5.542  13.080  23.238  0.00  0.00    +0.000 A 
ATOM     16  C   UNL     1      -5.166  12.864  21.875  0.00  0.00    +0.000 A 
ATOM     17  N   UNL     1      -5.880  12.990  20.678  0.00  0.00    +0.000 N 
ATOM     18  C   UNL     1      -7.265  13.497  20.682  0.00  0.00    +0.000 C 
ATOM     19  C   UNL     1      -4.984  12.561  19.665  0.00  0.00    +0.000 A 
ENDROOT
BRANCH   8  20
ATOM     20  O   UNL     1      -0.959  11.225  20.100  0.00  0.00    +0.000 OA
BRANCH  20  21
ATOM     21  C   UNL     1       0.236  11.865  20.287  0.00  0.00    +0.000 C 
BRANCH  21  22
ATOM     22  C   UNL     1       1.196  11.469  19.156  0.00  0.00    +0.000 C 
BRANCH  22  23
ATOM     23  O   UNL     1       1.090  12.359  18.080  0.00  0.00    +0.000 OA
ATOM     24  H   UNL     1       0.663  11.867  17.333  0.00  0.00    +0.000 HD
ENDBRANCH  22  23
ENDBRANCH  21  22
ENDBRANCH  20  21
ENDBRANCH   8  20
TORSDOF 4
ENDMDL
MODEL 2
REMARK VINA RESULT:      -6.3      1.520      2.298
REMARK  Name = 
REMARK  6 active torsions:
REMARK  status: ('A' for Active; 'I' for Inactive)
REMARK    1  A    between atoms: C_1  and  C_2
REMARK    2  A    between atoms: C_8  and  O_9
REMARK    3  A    between atoms: O_9  and  C_10
REMARK    4  A    between atoms: C_10  and  C_11
REMARK    5  A    between atoms: C_11  and  O_12
REMARK    6  A    between atoms: N_21  and  C_22
REMARK                            x       y       z     vdW  Elec       q    Type
REMARK                         _______ _______ _______ _____ _____    ______ ____
ROOT
ATOM      1  C   UNL     1      -4.816  11.213  17.069  0.00  0.00    +0.000 C 
ATOM      2  C   UNL     1      -4.088  11.700  18.314  0.00  0.00    +0.000 A 
ATOM      3  C   UNL     1      -2.644  11.269  18.392  0.00  0.00    +0.000 A 
ATOM      4  C   UNL     1      -1.879  10.552  17.447  0.00  0.00    +0.000 A 
ATOM      5  C   UNL     1      -0.641  10.202  17.993  0.00  0.00    +0.000 A 
ATOM      6  C   UNL     1      -0.541  10.655  19.282  0.00  0.00    +0.000 A 
ATOM      7  C   UNL     1      -1.679  11.354  19.555  0.00  0.00    +0.000 A 
ATOM      8  C   UNL     1      -1.875  12.126  20.684  0.00  0.00    +0.000 A 
ATOM      9  C   UNL     1      -2.759  13.107  20.535  0.00  0.00    +0.000 A 
ATOM     10  C   UNL     1      -4.001  12.636  20.596  0.00  0.00    +0.000 A 
ATOM     11  C   UNL     1      -4.716  12.719  21.730  0.00  0.00    +0.000 A 
ATOM     12  C   UNL     1      -4.249  12.896  23.033  0.00  0.00    +0.000 A 
ATOM     13  C   UNL     1      -5.180  13.018  24.050  0.00  0.00    +0.000 A 
ATOM     14  C   UNL     1      -6.550  13.043  23.730  0.00  0.00    +0.000 A 
ATOM     15  C   UNL     1      -6.989  12.892  22.380  0.00  0.00    +0.000 A 
ATOM     16  C   UNL     1      -6.002  12.677  21.367  0.00  0.00    +0.000 A 
ATOM     17  N   UNL     1      -6.109  12.501  19.983  0.00  0.00    +0.000 N 
ATOM     18  C   UNL     1      -7.419  12.603  19.314  0.00  0.00    +0.000 C 
ATOM     19  C   UNL     1      -4.784  12.255  19.538  0.00  0.00    +0.000 A 
ENDROOT
BRANCH   8  20
ATOM     20  O   UNL     1      -1.206  12.127  21.853  0.00  0.00    +0.000 OA
BRANCH  20  21
ATOM     21  C   UNL     1      -1.364  11.319  22.946  0.00  0.00    +0.000 C 
BRANCH  21  22
ATOM     22  C   UNL     1      -0.303  10.209  22.902  0.00  0.00    +0.000 C 
BRANCH  22  23
ATOM     23  O   UNL     1      -0.875   8.964  23.191  0.00  0.00    +0.000 OA
ATOM     24  H   UNL     1      -0.276   8.508  23.835  0.00  0.00    +0.000 HD
ENDBRANCH  22  23
ENDBRANCH  21  22
ENDBRANCH  20  21
ENDBRANCH   8  20
TORSDOF 4
ENDMDL
MODEL 3
REMARK VINA RESULT:      -6.1      2.215      5.208
REMARK  Name = 
REMARK  6 active torsions:
REMARK  status: ('A' for Active; 'I' for Inactive)
REMARK    1  A    between atoms: C_1  and  C_2
REMARK    2  A    between atoms: C_8  and  O_9
REMARK    3  A    between atoms: O_9  and  C_10
REMARK    4  A    between atoms: C_10  and  C_11
REMARK    5  A    between atoms: C_11  and  O_12
REMARK    6  A    between atoms: N_21  and  C_22
REMARK                            x       y       z     vdW  Elec       q    Type
REMARK                         _______ _______ _______ _____ _____    ______ ____
ROOT
ATOM      1  C   UNL     1       0.195   9.520  17.829  0.00  0.00    +0.000 C 
ATOM      2  C   UNL     1      -0.611  10.415  18.759  0.00  0.00    +0.000 A 
ATOM      3  C   UNL     1      -0.205  10.323  20.209  0.00  0.00    +0.000 A 
ATOM      4  C   UNL     1       0.849   9.586  20.792  0.00  0.00    +0.000 A 
ATOM      5  C   UNL     1       0.759   9.634  22.186  0.00  0.00    +0.000 A 
ATOM      6  C   UNL     1      -0.326  10.376  22.570  0.00  0.00    +0.000 A 
ATOM      7  C   UNL     1      -0.903  10.866  21.437  0.00  0.00    +0.000 A 
ATOM      8  C   UNL     1      -1.908  11.816  21.415  0.00  0.00    +0.000 A 
ATOM      9  C   UNL     1      -1.966  12.531  20.298  0.00  0.00    +0.000 A 
ATOM     10  C   UNL     1      -2.547  11.839  19.322  0.00  0.00    +0.000 A 
ATOM     11  C   UNL     1      -3.842  12.025  19.021  0.00  0.00    +0.000 A 
ATOM     12  C   UNL     1      -4.842  12.585  19.818  0.00  0.00    +0.000 A 
ATOM     13  C   UNL     1      -6.105  12.736  19.273  0.00  0.00    +0.000 A 
ATOM     14  C   UNL     1      -6.316  12.402  17.923  0.00  0.00    +0.000 A 
ATOM     15  C   UNL     1      -5.260  11.864  17.128  0.00  0.00    +0.000 A 
ATOM     16  C   UNL     1      -3.992  11.636  17.750  0.00  0.00    +0.000 A 
ATOM     17  N   UNL     1      -2.785  11.133  17.253  0.00  0.00    +0.000 N 
ATOM     18  C   UNL     1      -2.643  10.807  15.821  0.00  0.00    +0.000 C 
ATOM     19  C   UNL     1      -1.918  11.074  18.374  0.00  0.00    +0.000 A 
ENDROOT
BRANCH   8  20
ATOM     20  O   UNL     1      -2.733  12.219  22.400  0.00  0.00    +0.000 OA
BRANCH  20  21
ATOM     21  C   UNL     1      -2.849  13.448  22.989  0.00  0.00    +0.000 C 
BRANCH  21  22
ATOM     22  C   UNL     1      -3.766  13.328  24.215  0.00  0.00    +0.000 C 
BRANCH  22  23
ATOM     23  O   UNL     1      -4.220  12.012  24.369  0.00  0.00    +0.000 OA
ATOM     24  H   UNL     1      -5.208  12.032  24.293  0.00  0.00    +0.000 HD
ENDBRANCH  22  23
ENDBRANCH  21  22
ENDBRANCH  20  21
ENDBRANCH   8  20
TORSDOF 4
ENDMDL
MODEL 4
REMARK VINA RESULT:      -6.1      1.208      1.506
REMARK  Name = 
REMARK  6 active torsions:
REMARK  status: ('A' for Active; 'I' for Inactive)
REMARK    1  A    between atoms: C_1  and  C_2
REMARK    2  A    between atoms: C_8  and  O_9
REMARK    3  A    between atoms: O_9  and  C_10
REMARK    4  A    between atoms: C_10  and  C_11
REMARK    5  A    between atoms: C_11  and  O_12
REMARK    6  A    between atoms: N_21  and  C_22
REMARK                            x       y       z     vdW  Elec       q    Type
REMARK                         _______ _______ _______ _____ _____    ______ ____
ROOT
ATOM      1  C   UNL     1      -5.748  11.589  17.464  0.00  0.00    +0.000 C 
ATOM      2  C   UNL     1      -4.630  11.882  18.453  0.00  0.00    +0.000 A 
ATOM      3  C   UNL     1      -3.295  11.293  18.068  0.00  0.00    +0.000 A 
ATOM      4  C   UNL     1      -2.941  10.583  16.900  0.00  0.00    +0.000 A 
ATOM      5  C   UNL     1      -1.654  10.055  17.027  0.00  0.00    +0.000 A 
ATOM      6  C   UNL     1      -1.122  10.379  18.247  0.00  0.00    +0.000 A 
ATOM      7  C   UNL     1      -2.028  11.169  18.887  0.00  0.00    +0.000 A 
ATOM      8  C   UNL     1      -1.781  11.856  20.061  0.00  0.00    +0.000 A 
ATOM      9  C   UNL     1      -2.535  12.935  20.238  0.00  0.00    +0.000 A 
ATOM     10  C   UNL     1      -3.755  12.598  20.648  0.00  0.00    +0.000 A 
ATOM     11  C   UNL     1      -4.087  12.657  21.947  0.00  0.00    +0.000 A 
ATOM     12  C   UNL     1      -3.239  12.667  23.056  0.00  0.00    +0.000 A 
ATOM     13  C   UNL     1      -3.806  12.798  24.311  0.00  0.00    +0.000 A 
ATOM     14  C   UNL     1      -5.194  12.999  24.422  0.00  0.00    +0.000 A 
ATOM     15  C   UNL     1      -6.026  13.017  23.263  0.00  0.00    +0.000 A 
ATOM     16  C   UNL     1      -5.418  12.787  21.989  0.00  0.00    +0.000 A 
ATOM     17  N   UNL     1      -5.948  12.746  20.695  0.00  0.00    +0.000 N 
ATOM     18  C   UNL     1      -7.373  13.048  20.460  0.00  0.00    +0.000 C 
ATOM     19  C   UNL     1      -4.857  12.399  19.857  0.00  0.00    +0.000 A 
ENDROOT
BRANCH   8  20
ATOM     20  O   UNL     1      -0.805  11.681  20.971  0.00  0.00    +0.000 OA
BRANCH  20  21
ATOM     21  C   UNL     1      -0.627  10.668  21.873  0.00  0.00    +0.000 C 
BRANCH  21  22
ATOM     22  C   UNL     1       0.666   9.914  21.529  0.00  0.00    +0.000 C 
BRANCH  22  23
ATOM     23  O   UNL     1       1.398   9.627  22.688  0.00  0.00    +0.000 OA
ATOM     24  H   UNL     1       0.937   8.880  23.148  0.00  0.00    +0.000 HD
ENDBRANCH  22  23
ENDBRANCH  21  22
ENDBRANCH  20  21
ENDBRANCH   8  20
TORSDOF 4
ENDMDL
MODEL 5
REMARK VINA RESULT:      -6.1      2.254      5.091
REMARK  Name = 
REMARK  6 active torsions:
REMARK  status: ('A' for Active; 'I' for Inactive)
REMARK    1  A    between atoms: C_1  and  C_2
REMARK    2  A    between atoms: C_8  and  O_9
REMARK    3  A    between atoms: O_9  and  C_10
REMARK    4  A    between atoms: C_10  and  C_11
REMARK    5  A    between atoms: C_11  and  O_12
REMARK    6  A    between atoms: N_21  and  C_22
REMARK                            x       y       z     vdW  Elec       q    Type
REMARK                         _______ _______ _______ _____ _____    ______ ____
ROOT
ATOM      1  C   UNL     1      -4.472  13.139  22.037  0.00  0.00    +0.000 C 
ATOM      2  C   UNL     1      -3.976  12.640  20.688  0.00  0.00    +0.000 A 
ATOM      3  C   UNL     1      -5.076  12.299  19.713  0.00  0.00    +0.000 A 
ATOM      4  C   UNL     1      -6.472  12.448  19.861  0.00  0.00    +0.000 A 
ATOM      5  C   UNL     1      -7.139  11.838  18.796  0.00  0.00    +0.000 A 
ATOM      6  C   UNL     1      -6.241  11.273  17.929  0.00  0.00    +0.000 A 
ATOM      7  C   UNL     1      -4.993  11.570  18.389  0.00  0.00    +0.000 A 
ATOM      8  C   UNL     1      -3.823  11.342  17.689  0.00  0.00    +0.000 A 
ATOM      9  C   UNL     1      -2.815  12.137  18.027  0.00  0.00    +0.000 A 
ATOM     10  C   UNL     1      -2.256  11.736  19.165  0.00  0.00    +0.000 A 
ATOM     11  C   UNL     1      -1.134  10.999  19.161  0.00  0.00    +0.000 A 
ATOM     12  C   UNL     1      -0.609  10.232  18.120  0.00  0.00    +0.000 A 
ATOM     13  C   UNL     1       0.606   9.600  18.321  0.00  0.00    +0.000 A 
ATOM     14  C   UNL     1       1.304   9.818  19.524  0.00  0.00    +0.000 A 
ATOM     15  C   UNL     1       0.751  10.637  20.553  0.00  0.00    +0.000 A 
ATOM     16  C   UNL     1      -0.548  11.200  20.347  0.00  0.00    +0.000 A 
ATOM     17  N   UNL     1      -1.344  12.029  21.145  0.00  0.00    +0.000 N 
ATOM     18  C   UNL     1      -0.834  12.544  22.429  0.00  0.00    +0.000 C 
ATOM     19  C   UNL     1      -2.558  12.182  20.426  0.00  0.00    +0.000 A 
ENDROOT
BRANCH   8  20
ATOM     20  O   UNL     1      -3.596  10.544  16.629  0.00  0.00    +0.000 OA
BRANCH  20  21
ATOM     21  C   UNL     1      -2.861  10.784  15.501  0.00  0.00    +0.000 C 
BRANCH  21  22
ATOM     22  C   UNL     1      -3.496  10.031  14.322  0.00  0.00    +0.000 C 
BRANCH  22  23
ATOM     23  O   UNL     1      -2.579   9.888  13.273  0.00  0.00    +0.000 OA
ATOM     24  H   UNL     1      -1.829   9.337  13.612  0.00  0.00    +0.000 HD
ENDBRANCH  22  23
ENDBRANCH  21  22
ENDBRANCH  20  21
ENDBRANCH   8  20
TORSDOF 4
ENDMDL
MODEL 6
REMARK VINA RESULT:      -6.1      1.073      1.282
REMARK  Name = 
REMARK  6 active torsions:
REMARK  status: ('A' for Active; 'I' for Inactive)
REMARK    1  A    between atoms: C_1  and  C_2
REMARK    2  A    between atoms: C_8  and  O_9
REMARK    3  A    between atoms: O_9  and  C_10
REMARK    4  A    between atoms: C_10  and  C_11
REMARK    5  A    between atoms: C_11  and  O_12
REMARK    6  A    between atoms: N_21  and  C_22
REMARK                            x       y       z     vdW  Elec       q    Type
REMARK                         _______ _______ _______ _____ _____    ______ ____
ROOT
ATOM      1  C   UNL     1      -6.145  12.075  17.508  0.00  0.00    +0.000 C 
ATOM      2  C   UNL     1      -4.706  12.024  18.002  0.00  0.00    +0.000 A 
ATOM      3  C   UNL     1      -3.780  11.223  17.120  0.00  0.00    +0.000 A 
ATOM      4  C   UNL     1      -4.052  10.591  15.887  0.00  0.00    +0.000 A 
ATOM      5  C   UNL     1      -2.965   9.802  15.499  0.00  0.00    +0.000 A 
ATOM      6  C   UNL     1      -1.964   9.875  16.430  0.00  0.00    +0.000 A 
ATOM      7  C   UNL     1      -2.365  10.756  17.388  0.00  0.00    +0.000 A 
ATOM      8  C   UNL     1      -1.554  11.244  18.396  0.00  0.00    +0.000 A 
ATOM      9  C   UNL     1      -1.921  12.427  18.876  0.00  0.00    +0.000 A 
ATOM     10  C   UNL     1      -2.948  12.300  19.712  0.00  0.00    +0.000 A 
ATOM     11  C   UNL     1      -2.757  12.281  21.041  0.00  0.00    +0.000 A 
ATOM     12  C   UNL     1      -1.583  11.996  21.740  0.00  0.00    +0.000 A 
ATOM     13  C   UNL     1      -1.603  12.099  23.120  0.00  0.00    +0.000 A 
ATOM     14  C   UNL     1      -2.768  12.563  23.759  0.00  0.00    +0.000 A 
ATOM     15  C   UNL     1      -3.939  12.877  23.007  0.00  0.00    +0.000 A 
ATOM     16  C   UNL     1      -3.912  12.672  21.592  0.00  0.00    +0.000 A 
ATOM     17  N   UNL     1      -4.874  12.883  20.598  0.00  0.00    +0.000 N 
ATOM     18  C   UNL     1      -6.176  13.490  20.935  0.00  0.00    +0.000 C 
ATOM     19  C   UNL     1      -4.277  12.417  19.399  0.00  0.00    +0.000 A 
ENDROOT
BRANCH   8  20
ATOM     20  O   UNL     1      -0.380  10.775  18.859  0.00  0.00    +0.000 OA
BRANCH  20  21
ATOM     21  C   UNL     1       0.778  11.450  19.136  0.00  0.00    +0.000 C 
BRANCH  21  22
ATOM     22  C   UNL     1       1.916  10.856  18.293  0.00  0.00    +0.000 C 
BRANCH  22  23
ATOM     23  O   UNL     1       1.435   9.843  17.454  0.00  0.00    +0.000 OA
ATOM     24  H   UNL     1       0.476   9.714  17.670  0.00  0.00    +0.000 HD
ENDBRANCH  22  23
ENDBRANCH  21  22
ENDBRANCH  20  21
ENDBRANCH   8  20
TORSDOF 4
ENDMDL
MODEL 7
REMARK VINA RESULT:      -6.1      2.000      4.624
REMARK  Name = 
REMARK  6 active torsions:
REMARK  status: ('A' for Active; 'I' for Inactive)
REMARK    1  A    between atoms: C_1  and  C_2
REMARK    2  A    between atoms: C_8  and  O_9
REMARK    3  A    between atoms: O_9  and  C_10
REMARK    4  A    between atoms: C_10  and  C_11
REMARK    5  A    between atoms: C_11  and  O_12
REMARK    6  A    between atoms: N_21  and  C_22
REMARK                            x       y       z     vdW  Elec       q    Type
REMARK                         _______ _______ _______ _____ _____    ______ ____
ROOT
ATOM      1  C   UNL     1      -1.207  10.024  17.344  0.00  0.00    +0.000 C 
ATOM      2  C   UNL     1      -1.676  10.916  18.485  0.00  0.00    +0.000 A 
ATOM      3  C   UNL     1      -0.814  10.841  19.721  0.00  0.00    +0.000 A 
ATOM      4  C   UNL     1       0.384  10.122  19.927  0.00  0.00    +0.000 A 
ATOM      5  C   UNL     1       0.756  10.180  21.273  0.00  0.00    +0.000 A 
ATOM      6  C   UNL     1      -0.153  10.911  21.991  0.00  0.00    +0.000 A 
ATOM      7  C   UNL     1      -1.078  11.384  21.109  0.00  0.00    +0.000 A 
ATOM      8  C   UNL     1      -2.048  12.320  21.416  0.00  0.00    +0.000 A 
ATOM      9  C   UNL     1      -2.481  13.026  20.377  0.00  0.00    +0.000 A 
ATOM     10  C   UNL     1      -3.340  12.318  19.650  0.00  0.00    +0.000 A 
ATOM     11  C   UNL     1      -4.665  12.485  19.790  0.00  0.00    +0.000 A 
ATOM     12  C   UNL     1      -5.355  13.037  20.870  0.00  0.00    +0.000 A 
ATOM     13  C   UNL     1      -6.729  13.168  20.770  0.00  0.00    +0.000 A 
ATOM     14  C   UNL     1      -7.368  12.821  19.566  0.00  0.00    +0.000 A 
ATOM     15  C   UNL     1      -6.624  12.290  18.470  0.00  0.00    +0.000 A 
ATOM     16  C   UNL     1      -5.219  12.084  18.641  0.00  0.00    +0.000 A 
ATOM     17  N   UNL     1      -4.234  11.593  17.776  0.00  0.00    +0.000 N 
ATOM     18  C   UNL     1      -4.567  11.258  16.378  0.00  0.00    +0.000 C 
ATOM     19  C   UNL     1      -3.046  11.555  18.549  0.00  0.00    +0.000 A 
ENDROOT
BRANCH   8  20
ATOM     20  O   UNL     1      -2.510  12.720  22.616  0.00  0.00    +0.000 OA
BRANCH  20  21
ATOM     21  C   UNL     1      -3.039  11.978  23.636  0.00  0.00    +0.000 C 
BRANCH  21  22
ATOM     22  C   UNL     1      -4.185  12.768  24.284  0.00  0.00    +0.000 C 
BRANCH  22  23
ATOM     23  O   UNL     1      -5.098  11.902  24.900  0.00  0.00    +0.000 OA
ATOM     24  H   UNL     1      -6.007  12.231  24.681  0.00  0.00    +0.000 HD
ENDBRANCH  22  23
ENDBRANCH  21  22
ENDBRANCH  20  21
ENDBRANCH   8  20
TORSDOF 4
ENDMDL
MODEL 8
REMARK VINA RESULT:      -6.1      7.333     10.279
REMARK  Name = 
REMARK  6 active torsions:
REMARK  status: ('A' for Active; 'I' for Inactive)
REMARK    1  A    between atoms: C_1  and  C_2
REMARK    2  A    between atoms: C_8  and  O_9
REMARK    3  A    between atoms: O_9  and  C_10
REMARK    4  A    between atoms: C_10  and  C_11
REMARK    5  A    between atoms: C_11  and  O_12
REMARK    6  A    between atoms: N_21  and  C_22
REMARK                            x       y       z     vdW  Elec       q    Type
REMARK                         _______ _______ _______ _____ _____    ______ ____
ROOT
ATOM      1  C   UNL     1       0.743   7.091  21.353  0.00  0.00    +0.000 C 
ATOM      2  C   UNL     1       1.820   6.797  20.319  0.00  0.00    +0.000 A 
ATOM      3  C   UNL     1       2.044   7.912  19.328  0.00  0.00    +0.000 A 
ATOM      4  C   UNL     1       1.449   9.192  19.280  0.00  0.00    +0.000 A 
ATOM      5  C   UNL     1       1.798   9.843  18.094  0.00  0.00    +0.000 A 
ATOM      6  C   UNL     1       2.609   9.046  17.331  0.00  0.00    +0.000 A 
ATOM      7  C   UNL     1       2.842   7.907  18.042  0.00  0.00    +0.000 A 
ATOM      8  C   UNL     1       3.766   6.939  17.694  0.00  0.00    +0.000 A 
ATOM      9  C   UNL     1       4.222   6.221  18.714  0.00  0.00    +0.000 A 
ATOM     10  C   UNL     1       3.336   5.297  19.075  0.00  0.00    +0.000 A 
ATOM     11  C   UNL     1       3.454   4.026  18.660  0.00  0.00    +0.000 A 
ATOM     12  C   UNL     1       4.176   3.538  17.569  0.00  0.00    +0.000 A 
ATOM     13  C   UNL     1       4.208   2.170  17.366  0.00  0.00    +0.000 A 
ATOM     14  C   UNL     1       3.589   1.320  18.302  0.00  0.00    +0.000 A 
ATOM     15  C   UNL     1       2.889   1.854  19.425  0.00  0.00    +0.000 A 
ATOM     16  C   UNL     1       2.799   3.276  19.553  0.00  0.00    +0.000 A 
ATOM     17  N   UNL     1       2.198   4.091  20.520  0.00  0.00    +0.000 N 
ATOM     18  C   UNL     1       1.569   3.495  21.713  0.00  0.00    +0.000 C 
ATOM     19  C   UNL     1       2.383   5.418  20.054  0.00  0.00    +0.000 A 
ENDROOT
BRANCH   8  20
ATOM     20  O   UNL     1       4.375   6.715  16.514  0.00  0.00    +0.000 OA
BRANCH  20  21
ATOM     21  C   UNL     1       5.710   6.634  16.226  0.00  0.00    +0.000 C 
BRANCH  21  22
ATOM     22  C   UNL     1       5.935   5.491  15.224  0.00  0.00    +0.000 C 
BRANCH  22  23
ATOM     23  O   UNL     1       7.284   5.410  14.859  0.00  0.00    +0.000 OA
ATOM     24  H   UNL     1       7.804   5.264  15.690  0.00  0.00    +0.000 HD
ENDBRANCH  22  23
ENDBRANCH  21  22
ENDBRANCH  20  21
ENDBRANCH   8  20
TORSDOF 4
ENDMDL
MODEL 9
REMARK VINA RESULT:      -6.0      2.605      6.305
REMARK  Name = 
REMARK  6 active torsions:
REMARK  status: ('A' for Active; 'I' for Inactive)
REMARK    1  A    between atoms: C_1  and  C_2
REMARK    2  A    between atoms: C_8  and  O_9
REMARK    3  A    between atoms: O_9  and  C_10
REMARK    4  A    between atoms: C_10  and  C_11
REMARK    5  A    between atoms: C_11  and  O_12
REMARK    6  A    between atoms: N_21  and  C_22
REMARK                            x       y       z     vdW  Elec       q    Type
REMARK                         _______ _______ _______ _____ _____    ______ ____
ROOT
ATOM      1  C   UNL     1      -3.123  13.576  23.624  0.00  0.00    +0.000 C 
ATOM      2  C   UNL     1      -3.937  13.263  22.377  0.00  0.00    +0.000 A 
ATOM      3  C   UNL     1      -5.407  13.045  22.638  0.00  0.00    +0.000 A 
ATOM      4  C   UNL     1      -6.122  13.163  23.850  0.00  0.00    +0.000 A 
ATOM      5  C   UNL     1      -7.428  12.694  23.688  0.00  0.00    +0.000 A 
ATOM      6  C   UNL     1      -7.624  12.256  22.406  0.00  0.00    +0.000 A 
ATOM      7  C   UNL     1      -6.475  12.498  21.715  0.00  0.00    +0.000 A 
ATOM      8  C   UNL     1      -6.340  12.373  20.345  0.00  0.00    +0.000 A 
ATOM      9  C   UNL     1      -5.383  13.124  19.814  0.00  0.00    +0.000 A 
ATOM     10  C   UNL     1      -4.187  12.580  20.018  0.00  0.00    +0.000 A 
ATOM     11  C   UNL     1      -3.584  11.858  19.060  0.00  0.00    +0.000 A 
ATOM     12  C   UNL     1      -4.164  11.239  17.952  0.00  0.00    +0.000 A 
ATOM     13  C   UNL     1      -3.332  10.595  17.053  0.00  0.00    +0.000 A 
ATOM     14  C   UNL     1      -1.939  10.657  17.238  0.00  0.00    +0.000 A 
ATOM     15  C   UNL     1      -1.380  11.329  18.365  0.00  0.00    +0.000 A 
ATOM     16  C   UNL     1      -2.273  11.905  19.323  0.00  0.00    +0.000 A 
ATOM     17  N   UNL     1      -2.043  12.616  20.506  0.00  0.00    +0.000 N 
ATOM     18  C   UNL     1      -0.668  12.961  20.915  0.00  0.00    +0.000 C 
ATOM     19  C   UNL     1      -3.330  12.853  21.053  0.00  0.00    +0.000 A 
ENDROOT
BRANCH   8  20
ATOM     20  O   UNL     1      -7.120  11.723  19.459  0.00  0.00    +0.000 OA
BRANCH  20  21
ATOM     21  C   UNL     1      -7.039  10.432  19.013  0.00  0.00    +0.000 C 
BRANCH  21  22
ATOM     22  C   UNL     1      -7.377   9.482  20.171  0.00  0.00    +0.000 C 
BRANCH  22  23
ATOM     23  O   UNL     1      -7.770   8.228  19.686  0.00  0.00    +0.000 OA
ATOM     24  H   UNL     1      -7.041   7.898  19.101  0.00  0.00    +0.000 HD
ENDBRANCH  22  23
ENDBRANCH  21  22
ENDBRANCH  20  21
ENDBRANCH   8  20
TORSDOF 4
ENDMDL
