MODEL 1
REMARK VINA RESULT:      -7.8      0.000      0.000
REMARK  Name = 
REMARK  9 active torsions:
REMARK  status: ('A' for Active; 'I' for Inactive)
REMARK    1  A    between atoms: C_1  and  C_2
REMARK    2  A    between atoms: C_2  and  O_3
REMARK    3  A    between atoms: O_3  and  C_4
REMARK    4  A    between atoms: C_4  and  C_6
REMARK    5  A    between atoms: C_7  and  C_8
REMARK    6  A    between atoms: C_9  and  O_10
REMARK    7  A    between atoms: C_9  and  C_11
REMARK    8  A    between atoms: C_25  and  C_26
REMARK    9  A    between atoms: C_31  and  C_32
REMARK                            x       y       z     vdW  Elec       q    Type
REMARK                         _______ _______ _______ _____ _____    ______ ____
ROOT
ATOM      1  C   UNL     1      -0.472  10.139  19.991  0.00  0.00    +0.000 C 
ATOM      2  C   UNL     1       0.889   9.987  19.327  0.00  0.00    +0.000 C 
ATOM      3  N   UNL     1       1.610  11.003  18.927  0.00  0.00    +0.000 NA
ATOM      4  C   UNL     1       1.141  12.288  19.066  0.00  0.00    +0.000 C 
ATOM      5  C   UNL     1      -0.120  12.575  19.430  0.00  0.00    +0.000 C 
ATOM      6  C   UNL     1      -0.560  13.989  19.610  0.00  0.00    +0.000 C 
ATOM      7  O   UNL     1      -1.715  14.245  19.945  0.00  0.00    +0.000 OA
ATOM      8  C   UNL     1       0.471  15.080  19.459  0.00  0.00    +0.000 C 
ATOM      9  C   UNL     1       1.459  14.707  18.371  0.00  0.00    +0.000 C 
ATOM     10  C   UNL     1       2.129  13.370  18.683  0.00  0.00    +0.000 C 
ATOM     11  C   UNL     1      -1.132  11.505  19.716  0.00  0.00    +0.000 C 
ENDROOT
BRANCH  11  12
ATOM     12  C   UNL     1      -2.175  11.403  18.593  0.00  0.00    +0.000 A 
ATOM     13  C   UNL     1      -1.741  10.919  17.335  0.00  0.00    +0.000 A 
ATOM     14  C   UNL     1      -2.608  10.811  16.251  0.00  0.00    +0.000 A 
ATOM     15  C   UNL     1      -3.935  11.183  16.391  0.00  0.00    +0.000 A 
ATOM     16  C   UNL     1      -4.390  11.655  17.623  0.00  0.00    +0.000 A 
ATOM     17  C   UNL     1      -3.535  11.772  18.745  0.00  0.00    +0.000 A 
BRANCH  17  18
ATOM     18  C   UNL     1      -4.208  12.293  20.006  0.00  0.00    +0.000 C 
ATOM     19  F   UNL     1      -3.529  12.143  21.173  0.00  0.00    +0.000 F 
ATOM     20  F   UNL     1      -4.527  13.615  19.921  0.00  0.00    +0.000 F 
ATOM     21  F   UNL     1      -5.397  11.653  20.226  0.00  0.00    +0.000 F 
ENDBRANCH  17  18
ENDBRANCH  11  12
BRANCH   1  22
ATOM     22  C   UNL     1      -0.405   9.823  21.475  0.00  0.00    +0.000 C 
ATOM     23  O   UNL     1      -0.607   8.700  21.930  0.00  0.00    +0.000 OA
BRANCH  22  24
ATOM     24  O   UNL     1      -0.106  10.911  22.228  0.00  0.00    +0.000 OA
BRANCH  24  26
ATOM     25  C   UNL     1      -1.206  12.859  23.147  0.00  0.00    +0.000 C 
ATOM     26  C   UNL     1      -1.124  11.349  23.140  0.00  0.00    +0.000 C 
ENDBRANCH  24  26
ENDBRANCH  22  24
ENDBRANCH   1  22
BRANCH   2  27
ATOM     27  C   UNL     1       1.500   8.628  19.144  0.00  0.00    +0.000 C 
ATOM     28  C   UNL     1       2.266   8.186  18.133  0.00  0.00    +0.000 C 
BRANCH  28  29
ATOM     29  C   UNL     1       2.752   6.793  18.026  0.00  0.00    +0.000 A 
ATOM     30  C   UNL     1       1.940   5.702  18.373  0.00  0.00    +0.000 A 
ATOM     31  C   UNL     1       2.396   4.392  18.208  0.00  0.00    +0.000 A 
ATOM     32  C   UNL     1       3.664   4.151  17.684  0.00  0.00    +0.000 A 
ATOM     33  C   UNL     1       4.477   5.221  17.320  0.00  0.00    +0.000 A 
ATOM     34  C   UNL     1       4.022   6.531  17.488  0.00  0.00    +0.000 A 
ENDBRANCH  28  29
BRANCH  28  35
ATOM     35  O   UNL     1       2.694   8.995  17.106  0.00  0.00    +0.000 OA
ATOM     36  H   UNL     1       2.191   9.836  17.189  0.00  0.00    +0.000 HD
ENDBRANCH  28  35
ENDBRANCH   2  27
TORSDOF 8
ENDMDL
MODEL 2
REMARK VINA RESULT:      -7.8      1.087      1.201
REMARK  Name = 
REMARK  9 active torsions:
REMARK  status: ('A' for Active; 'I' for Inactive)
REMARK    1  A    between atoms: C_1  and  C_2
REMARK    2  A    between atoms: C_2  and  O_3
REMARK    3  A    between atoms: O_3  and  C_4
REMARK    4  A    between atoms: C_4  and  C_6
REMARK    5  A    between atoms: C_7  and  C_8
REMARK    6  A    between atoms: C_9  and  O_10
REMARK    7  A    between atoms: C_9  and  C_11
REMARK    8  A    between atoms: C_25  and  C_26
REMARK    9  A    between atoms: C_31  and  C_32
REMARK                            x       y       z     vdW  Elec       q    Type
REMARK                         _______ _______ _______ _____ _____    ______ ____
ROOT
ATOM      1  C   UNL     1      -0.575  10.299  20.658  0.00  0.00    +0.000 C 
ATOM      2  C   UNL     1       0.784   9.842  20.149  0.00  0.00    +0.000 C 
ATOM      3  N   UNL     1       1.637  10.642  19.561  0.00  0.00    +0.000 NA
ATOM      4  C   UNL     1       1.318  11.963  19.345  0.00  0.00    +0.000 C 
ATOM      5  C   UNL     1       0.086  12.462  19.538  0.00  0.00    +0.000 C 
ATOM      6  C   UNL     1      -0.190  13.914  19.332  0.00  0.00    +0.000 C 
ATOM      7  O   UNL     1      -1.319  14.366  19.511  0.00  0.00    +0.000 OA
ATOM      8  C   UNL     1       0.968  14.817  18.988  0.00  0.00    +0.000 C 
ATOM      9  C   UNL     1       1.950  14.079  18.097  0.00  0.00    +0.000 C 
ATOM     10  C   UNL     1       2.443  12.802  18.776  0.00  0.00    +0.000 C 
ATOM     11  C   UNL     1      -1.056  11.611  20.008  0.00  0.00    +0.000 C 
ENDROOT
BRANCH  11  12
ATOM     12  C   UNL     1      -2.057  11.338  18.875  0.00  0.00    +0.000 A 
ATOM     13  C   UNL     1      -1.576  10.675  17.719  0.00  0.00    +0.000 A 
ATOM     14  C   UNL     1      -2.402  10.403  16.632  0.00  0.00    +0.000 A 
ATOM     15  C   UNL     1      -3.734  10.783  16.667  0.00  0.00    +0.000 A 
ATOM     16  C   UNL     1      -4.235  11.429  17.798  0.00  0.00    +0.000 A 
ATOM     17  C   UNL     1      -3.422  11.717  18.921  0.00  0.00    +0.000 A 
BRANCH  17  18
ATOM     18  C   UNL     1      -4.142  12.414  20.065  0.00  0.00    +0.000 C 
ATOM     19  F   UNL     1      -3.576  12.321  21.296  0.00  0.00    +0.000 F 
ATOM     20  F   UNL     1      -4.328  13.744  19.834  0.00  0.00    +0.000 F 
ATOM     21  F   UNL     1      -5.400  11.903  20.235  0.00  0.00    +0.000 F 
ENDBRANCH  17  18
ENDBRANCH  11  12
BRANCH   1  22
ATOM     22  C   UNL     1      -0.607  10.364  22.175  0.00  0.00    +0.000 C 
ATOM     23  O   UNL     1      -0.902   9.403  22.880  0.00  0.00    +0.000 OA
BRANCH  22  24
ATOM     24  O   UNL     1      -0.285  11.592  22.652  0.00  0.00    +0.000 OA
BRANCH  24  26
ATOM     25  C   UNL     1      -1.171  13.792  23.129  0.00  0.00    +0.000 C 
ATOM     26  C   UNL     1      -1.329  12.302  23.333  0.00  0.00    +0.000 C 
ENDBRANCH  24  26
ENDBRANCH  22  24
ENDBRANCH   1  22
BRANCH   2  27
ATOM     27  C   UNL     1       1.236   8.425  20.351  0.00  0.00    +0.000 C 
ATOM     28  C   UNL     1       2.013   7.674  19.552  0.00  0.00    +0.000 C 
BRANCH  28  29
ATOM     29  C   UNL     1       2.332   6.256  19.823  0.00  0.00    +0.000 A 
ATOM     30  C   UNL     1       1.528   5.468  20.662  0.00  0.00    +0.000 A 
ATOM     31  C   UNL     1       1.812   4.114  20.858  0.00  0.00    +0.000 A 
ATOM     32  C   UNL     1       2.895   3.524  20.211  0.00  0.00    +0.000 A 
ATOM     33  C   UNL     1       3.694   4.286  19.363  0.00  0.00    +0.000 A 
ATOM     34  C   UNL     1       3.412   5.640  19.169  0.00  0.00    +0.000 A 
ENDBRANCH  28  29
BRANCH  28  35
ATOM     35  O   UNL     1       2.609   8.160  18.411  0.00  0.00    +0.000 OA
ATOM     36  H   UNL     1       2.434   7.497  17.706  0.00  0.00    +0.000 HD
ENDBRANCH  28  35
ENDBRANCH   2  27
TORSDOF 8
ENDMDL
MODEL 3
REMARK VINA RESULT:      -7.7      0.463      1.068
REMARK  Name = 
REMARK  9 active torsions:
REMARK  status: ('A' for Active; 'I' for Inactive)
REMARK    1  A    between atoms: C_1  and  C_2
REMARK    2  A    between atoms: C_2  and  O_3
REMARK    3  A    between atoms: O_3  and  C_4
REMARK    4  A    between atoms: C_4  and  C_6
REMARK    5  A    between atoms: C_7  and  C_8
REMARK    6  A    between atoms: C_9  and  O_10
REMARK    7  A    between atoms: C_9  and  C_11
REMARK    8  A    between atoms: C_25  and  C_26
REMARK    9  A    between atoms: C_31  and  C_32
REMARK                            x       y       z     vdW  Elec       q    Type
REMARK                         _______ _______ _______ _____ _____    ______ ____
ROOT
ATOM      1  C   UNL     1      -0.379   9.961  19.944  0.00  0.00    +0.000 C 
ATOM      2  C   UNL     1       0.971   9.709  19.290  0.00  0.00    +0.000 C 
ATOM      3  N   UNL     1       1.741  10.666  18.839  0.00  0.00    +0.000 NA
ATOM      4  C   UNL     1       1.336  11.978  18.913  0.00  0.00    +0.000 C 
ATOM      5  C   UNL     1       0.092  12.345  19.261  0.00  0.00    +0.000 C 
ATOM      6  C   UNL     1      -0.278  13.787  19.370  0.00  0.00    +0.000 C 
ATOM      7  O   UNL     1      -1.418  14.116  19.691  0.00  0.00    +0.000 OA
ATOM      8  C   UNL     1       0.805  14.816  19.165  0.00  0.00    +0.000 C 
ATOM      9  C   UNL     1       1.772  14.341  18.097  0.00  0.00    +0.000 C 
ATOM     10  C   UNL     1       2.376  12.989  18.476  0.00  0.00    +0.000 C 
ATOM     11  C   UNL     1      -0.971  11.342  19.601  0.00  0.00    +0.000 C 
ENDROOT
BRANCH  11  12
ATOM     12  C   UNL     1      -2.021  11.236  18.484  0.00  0.00    +0.000 A 
ATOM     13  C   UNL     1      -1.609  10.683  17.246  0.00  0.00    +0.000 A 
ATOM     14  C   UNL     1      -2.483  10.566  16.168  0.00  0.00    +0.000 A 
ATOM     15  C   UNL     1      -3.794  10.996  16.294  0.00  0.00    +0.000 A 
ATOM     16  C   UNL     1      -4.227  11.535  17.507  0.00  0.00    +0.000 A 
ATOM     17  C   UNL     1      -3.365  11.664  18.622  0.00  0.00    +0.000 A 
BRANCH  17  18
ATOM     18  C   UNL     1      -4.014  12.263  19.861  0.00  0.00    +0.000 C 
ATOM     19  F   UNL     1      -4.199  13.609  19.869  0.00  0.00    +0.000 F 
ATOM     20  F   UNL     1      -5.229  11.712  20.133  0.00  0.00    +0.000 F 
ATOM     21  F   UNL     1      -3.255  12.022  20.975  0.00  0.00    +0.000 F 
ENDBRANCH  17  18
ENDBRANCH  11  12
BRANCH   1  22
ATOM     22  C   UNL     1      -0.325   9.717  21.442  0.00  0.00    +0.000 C 
ATOM     23  O   UNL     1      -0.558   8.624  21.952  0.00  0.00    +0.000 OA
BRANCH  22  24
ATOM     24  O   UNL     1       0.000  10.833  22.142  0.00  0.00    +0.000 OA
BRANCH  24  26
ATOM     25  C   UNL     1      -1.090  12.796  23.040  0.00  0.00    +0.000 C 
ATOM     26  C   UNL     1      -0.972  11.290  23.093  0.00  0.00    +0.000 C 
ENDBRANCH  24  26
ENDBRANCH  22  24
ENDBRANCH   1  22
BRANCH   2  27
ATOM     27  C   UNL     1       1.513   8.314  19.175  0.00  0.00    +0.000 C 
ATOM     28  C   UNL     1       2.287   7.795  18.207  0.00  0.00    +0.000 C 
BRANCH  28  29
ATOM     29  C   UNL     1       2.700   6.375  18.166  0.00  0.00    +0.000 A 
ATOM     30  C   UNL     1       4.015   5.983  18.460  0.00  0.00    +0.000 A 
ATOM     31  C   UNL     1       4.372   4.632  18.474  0.00  0.00    +0.000 A 
ATOM     32  C   UNL     1       3.417   3.653  18.207  0.00  0.00    +0.000 A 
ATOM     33  C   UNL     1       2.105   4.022  17.929  0.00  0.00    +0.000 A 
ATOM     34  C   UNL     1       1.750   5.373  17.911  0.00  0.00    +0.000 A 
ENDBRANCH  28  29
BRANCH  28  35
ATOM     35  O   UNL     1       2.791   8.541  17.168  0.00  0.00    +0.000 OA
ATOM     36  H   UNL     1       2.227   9.345  17.107  0.00  0.00    +0.000 HD
ENDBRANCH  28  35
ENDBRANCH   2  27
TORSDOF 8
ENDMDL
MODEL 4
REMARK VINA RESULT:      -7.6      0.875      1.190
REMARK  Name = 
REMARK  9 active torsions:
REMARK  status: ('A' for Active; 'I' for Inactive)
REMARK    1  A    between atoms: C_1  and  C_2
REMARK    2  A    between atoms: C_2  and  O_3
REMARK    3  A    between atoms: O_3  and  C_4
REMARK    4  A    between atoms: C_4  and  C_6
REMARK    5  A    between atoms: C_7  and  C_8
REMARK    6  A    between atoms: C_9  and  O_10
REMARK    7  A    between atoms: C_9  and  C_11
REMARK    8  A    between atoms: C_25  and  C_26
REMARK    9  A    between atoms: C_31  and  C_32
REMARK                            x       y       z     vdW  Elec       q    Type
REMARK                         _______ _______ _______ _____ _____    ______ ____
ROOT
ATOM      1  C   UNL     1      -0.577  10.078  19.794  0.00  0.00    +0.000 C 
ATOM      2  C   UNL     1       0.771   9.937  19.105  0.00  0.00    +0.000 C 
ATOM      3  N   UNL     1       1.505  10.959  18.744  0.00  0.00    +0.000 NA
ATOM      4  C   UNL     1       1.059  12.244  18.953  0.00  0.00    +0.000 C 
ATOM      5  C   UNL     1      -0.192  12.533  19.348  0.00  0.00    +0.000 C 
ATOM      6  C   UNL     1      -0.606  13.943  19.605  0.00  0.00    +0.000 C 
ATOM      7  O   UNL     1      -1.752  14.201  19.968  0.00  0.00    +0.000 OA
ATOM      8  C   UNL     1       0.441  15.023  19.493  0.00  0.00    +0.000 C 
ATOM      9  C   UNL     1       1.409  14.689  18.373  0.00  0.00    +0.000 C 
ATOM     10  C   UNL     1       2.060  13.327  18.610  0.00  0.00    +0.000 C 
ATOM     11  C   UNL     1      -1.218  11.466  19.596  0.00  0.00    +0.000 C 
ENDROOT
BRANCH  11  12
ATOM     12  C   UNL     1      -2.277  11.437  18.485  0.00  0.00    +0.000 A 
ATOM     13  C   UNL     1      -1.867  11.013  17.196  0.00  0.00    +0.000 A 
ATOM     14  C   UNL     1      -2.751  10.974  16.121  0.00  0.00    +0.000 A 
ATOM     15  C   UNL     1      -4.070  11.356  16.299  0.00  0.00    +0.000 A 
ATOM     16  C   UNL     1      -4.502  11.768  17.561  0.00  0.00    +0.000 A 
ATOM     17  C   UNL     1      -3.630  11.816  18.675  0.00  0.00    +0.000 A 
BRANCH  17  18
ATOM     18  C   UNL     1      -4.279  12.279  19.971  0.00  0.00    +0.000 C 
ATOM     19  F   UNL     1      -3.587  12.055  21.119  0.00  0.00    +0.000 F 
ATOM     20  F   UNL     1      -4.576  13.608  19.961  0.00  0.00    +0.000 F 
ATOM     21  F   UNL     1      -5.476  11.647  20.172  0.00  0.00    +0.000 F 
ENDBRANCH  17  18
ENDBRANCH  11  12
BRANCH   1  22
ATOM     22  C   UNL     1      -0.496   9.688  21.260  0.00  0.00    +0.000 C 
ATOM     23  O   UNL     1      -0.747   8.556  21.666  0.00  0.00    +0.000 OA
BRANCH  22  24
ATOM     24  O   UNL     1      -0.126  10.722  22.056  0.00  0.00    +0.000 OA
BRANCH  24  26
ATOM     25  C   UNL     1      -1.242  12.594  23.104  0.00  0.00    +0.000 C 
ATOM     26  C   UNL     1      -1.055  11.094  23.084  0.00  0.00    +0.000 C 
ENDBRANCH  24  26
ENDBRANCH  22  24
ENDBRANCH   1  22
BRANCH   2  27
ATOM     27  C   UNL     1       1.357   8.579  18.846  0.00  0.00    +0.000 C 
ATOM     28  C   UNL     1       1.971   7.755  19.712  0.00  0.00    +0.000 C 
BRANCH  28  29
ATOM     29  C   UNL     1       2.576   6.464  19.321  0.00  0.00    +0.000 A 
ATOM     30  C   UNL     1       3.330   6.331  18.145  0.00  0.00    +0.000 A 
ATOM     31  C   UNL     1       3.944   5.118  17.822  0.00  0.00    +0.000 A 
ATOM     32  C   UNL     1       3.823   4.023  18.675  0.00  0.00    +0.000 A 
ATOM     33  C   UNL     1       3.092   4.141  19.854  0.00  0.00    +0.000 A 
ATOM     34  C   UNL     1       2.476   5.353  20.174  0.00  0.00    +0.000 A 
ENDBRANCH  28  29
BRANCH  28  35
ATOM     35  O   UNL     1       2.077   8.023  21.057  0.00  0.00    +0.000 OA
ATOM     36  H   UNL     1       1.364   8.668  21.267  0.00  0.00    +0.000 HD
ENDBRANCH  28  35
ENDBRANCH   2  27
TORSDOF 8
ENDMDL
MODEL 5
REMARK VINA RESULT:      -7.5      5.212      8.255
REMARK  Name = 
REMARK  9 active torsions:
REMARK  status: ('A' for Active; 'I' for Inactive)
REMARK    1  A    between atoms: C_1  and  C_2
REMARK    2  A    between atoms: C_2  and  O_3
REMARK    3  A    between atoms: O_3  and  C_4
REMARK    4  A    between atoms: C_4  and  C_6
REMARK    5  A    between atoms: C_7  and  C_8
REMARK    6  A    between atoms: C_9  and  O_10
REMARK    7  A    between atoms: C_9  and  C_11
REMARK    8  A    between atoms: C_25  and  C_26
REMARK    9  A    between atoms: C_31  and  C_32
REMARK                            x       y       z     vdW  Elec       q    Type
REMARK                         _______ _______ _______ _____ _____    ______ ____
ROOT
ATOM      1  C   UNL     1       4.508   5.273  18.202  0.00  0.00    +0.000 C 
ATOM      2  C   UNL     1       4.374   6.176  16.986  0.00  0.00    +0.000 C 
ATOM      3  N   UNL     1       3.642   7.260  16.973  0.00  0.00    +0.000 NA
ATOM      4  C   UNL     1       2.915   7.623  18.083  0.00  0.00    +0.000 C 
ATOM      5  C   UNL     1       2.757   6.824  19.151  0.00  0.00    +0.000 C 
ATOM      6  C   UNL     1       1.997   7.289  20.348  0.00  0.00    +0.000 C 
ATOM      7  O   UNL     1       1.857   6.554  21.323  0.00  0.00    +0.000 OA
ATOM      8  C   UNL     1       1.488   8.710  20.359  0.00  0.00    +0.000 C 
ATOM      9  C   UNL     1       1.060   9.115  18.961  0.00  0.00    +0.000 C 
ATOM     10  C   UNL     1       2.218   8.964  17.976  0.00  0.00    +0.000 C 
ATOM     11  C   UNL     1       3.366   5.454  19.221  0.00  0.00    +0.000 C 
ENDROOT
BRANCH  11  12
ATOM     12  C   UNL     1       2.301   4.358  19.065  0.00  0.00    +0.000 A 
ATOM     13  C   UNL     1       1.489   4.391  17.905  0.00  0.00    +0.000 A 
ATOM     14  C   UNL     1       0.484   3.452  17.686  0.00  0.00    +0.000 A 
ATOM     15  C   UNL     1       0.259   2.454  18.619  0.00  0.00    +0.000 A 
ATOM     16  C   UNL     1       1.052   2.394  19.766  0.00  0.00    +0.000 A 
ATOM     17  C   UNL     1       2.083   3.330  20.016  0.00  0.00    +0.000 A 
BRANCH  17  18
ATOM     18  C   UNL     1       2.849   3.101  21.311  0.00  0.00    +0.000 C 
ATOM     19  F   UNL     1       4.154   2.741  21.198  0.00  0.00    +0.000 F 
ATOM     20  F   UNL     1       2.826   4.188  22.131  0.00  0.00    +0.000 F 
ATOM     21  F   UNL     1       2.284   2.091  22.042  0.00  0.00    +0.000 F 
ENDBRANCH  17  18
ENDBRANCH  11  12
BRANCH   1  22
ATOM     22  C   UNL     1       5.877   5.406  18.846  0.00  0.00    +0.000 C 
ATOM     23  O   UNL     1       6.082   5.182  20.037  0.00  0.00    +0.000 OA
BRANCH  22  24
ATOM     24  O   UNL     1       6.832   5.803  17.968  0.00  0.00    +0.000 OA
BRANCH  24  26
ATOM     25  C   UNL     1       7.796   7.998  17.650  0.00  0.00    +0.000 C 
ATOM     26  C   UNL     1       7.809   6.727  18.468  0.00  0.00    +0.000 C 
ENDBRANCH  24  26
ENDBRANCH  22  24
ENDBRANCH   1  22
BRANCH   2  27
ATOM     27  C   UNL     1       5.139   5.879  15.729  0.00  0.00    +0.000 C 
ATOM     28  C   UNL     1       5.469   4.683  15.214  0.00  0.00    +0.000 C 
BRANCH  28  29
ATOM     29  C   UNL     1       6.296   4.517  13.999  0.00  0.00    +0.000 A 
ATOM     30  C   UNL     1       5.972   3.573  13.012  0.00  0.00    +0.000 A 
ATOM     31  C   UNL     1       6.730   3.473  11.842  0.00  0.00    +0.000 A 
ATOM     32  C   UNL     1       7.815   4.322  11.636  0.00  0.00    +0.000 A 
ATOM     33  C   UNL     1       8.142   5.275  12.597  0.00  0.00    +0.000 A 
ATOM     34  C   UNL     1       7.386   5.372  13.767  0.00  0.00    +0.000 A 
ENDBRANCH  28  29
BRANCH  28  35
ATOM     35  O   UNL     1       5.051   3.491  15.757  0.00  0.00    +0.000 OA
ATOM     36  H   UNL     1       5.709   2.815  15.479  0.00  0.00    +0.000 HD
ENDBRANCH  28  35
ENDBRANCH   2  27
TORSDOF 8
ENDMDL
MODEL 6
REMARK VINA RESULT:      -7.5      1.310      1.966
REMARK  Name = 
REMARK  9 active torsions:
REMARK  status: ('A' for Active; 'I' for Inactive)
REMARK    1  A    between atoms: C_1  and  C_2
REMARK    2  A    between atoms: C_2  and  O_3
REMARK    3  A    between atoms: O_3  and  C_4
REMARK    4  A    between atoms: C_4  and  C_6
REMARK    5  A    between atoms: C_7  and  C_8
REMARK    6  A    between atoms: C_9  and  O_10
REMARK    7  A    between atoms: C_9  and  C_11
REMARK    8  A    between atoms: C_25  and  C_26
REMARK    9  A    between atoms: C_31  and  C_32
REMARK                            x       y       z     vdW  Elec       q    Type
REMARK                         _______ _______ _______ _____ _____    ______ ____
ROOT
ATOM      1  C   UNL     1      -1.029  11.326  20.720  0.00  0.00    +0.000 C 
ATOM      2  C   UNL     1       0.266  11.302  19.923  0.00  0.00    +0.000 C 
ATOM      3  N   UNL     1       0.789  12.366  19.367  0.00  0.00    +0.000 NA
ATOM      4  C   UNL     1       0.153  13.582  19.459  0.00  0.00    +0.000 C 
ATOM      5  C   UNL     1      -1.094  13.725  19.938  0.00  0.00    +0.000 C 
ATOM      6  C   UNL     1      -1.716  15.077  20.058  0.00  0.00    +0.000 C 
ATOM      7  O   UNL     1      -2.856  15.202  20.499  0.00  0.00    +0.000 OA
ATOM      8  C   UNL     1      -0.875  16.280  19.710  0.00  0.00    +0.000 C 
ATOM      9  C   UNL     1       0.045  15.948  18.549  0.00  0.00    +0.000 C 
ATOM     10  C   UNL     1       0.930  14.749  18.887  0.00  0.00    +0.000 C 
ATOM     11  C   UNL     1      -1.905  12.558  20.416  0.00  0.00    +0.000 C 
ENDROOT
BRANCH  11  12
ATOM     12  C   UNL     1      -3.029  12.212  19.428  0.00  0.00    +0.000 A 
ATOM     13  C   UNL     1      -2.655  11.824  18.117  0.00  0.00    +0.000 A 
ATOM     14  C   UNL     1      -3.602  11.512  17.146  0.00  0.00    +0.000 A 
ATOM     15  C   UNL     1      -4.951  11.578  17.454  0.00  0.00    +0.000 A 
ATOM     16  C   UNL     1      -5.345  11.948  18.740  0.00  0.00    +0.000 A 
ATOM     17  C   UNL     1      -4.408  12.267  19.751  0.00  0.00    +0.000 A 
BRANCH  17  18
ATOM     18  C   UNL     1      -5.020  12.636  21.094  0.00  0.00    +0.000 C 
ATOM     19  F   UNL     1      -5.341  13.943  21.285  0.00  0.00    +0.000 F 
ATOM     20  F   UNL     1      -6.150  11.926  21.367  0.00  0.00    +0.000 F 
ATOM     21  F   UNL     1      -4.161  12.349  22.119  0.00  0.00    +0.000 F 
ENDBRANCH  17  18
ENDBRANCH  11  12
BRANCH   1  22
ATOM     22  C   UNL     1      -0.769  11.160  22.207  0.00  0.00    +0.000 C 
ATOM     23  O   UNL     1      -0.472  12.097  22.944  0.00  0.00    +0.000 OA
BRANCH  22  24
ATOM     24  O   UNL     1      -0.895   9.874  22.619  0.00  0.00    +0.000 OA
BRANCH  24  26
ATOM     25  C   UNL     1       1.404   9.150  22.828  0.00  0.00    +0.000 C 
ATOM     26  C   UNL     1       0.097   9.405  23.544  0.00  0.00    +0.000 C 
ENDBRANCH  24  26
ENDBRANCH  22  24
ENDBRANCH   1  22
BRANCH   2  27
ATOM     27  C   UNL     1       1.048  10.028  19.777  0.00  0.00    +0.000 C 
ATOM     28  C   UNL     1       1.617   9.519  18.672  0.00  0.00    +0.000 C 
BRANCH  28  29
ATOM     29  C   UNL     1       2.303   8.209  18.637  0.00  0.00    +0.000 A 
ATOM     30  C   UNL     1       2.113   7.252  19.645  0.00  0.00    +0.000 A 
ATOM     31  C   UNL     1       2.723   5.997  19.565  0.00  0.00    +0.000 A 
ATOM     32  C   UNL     1       3.522   5.676  18.469  0.00  0.00    +0.000 A 
ATOM     33  C   UNL     1       3.709   6.607  17.451  0.00  0.00    +0.000 A 
ATOM     34  C   UNL     1       3.101   7.862  17.534  0.00  0.00    +0.000 A 
ENDBRANCH  28  29
BRANCH  28  35
ATOM     35  O   UNL     1       1.637  10.178  17.465  0.00  0.00    +0.000 OA
ATOM     36  H   UNL     1       2.567  10.466  17.323  0.00  0.00    +0.000 HD
ENDBRANCH  28  35
ENDBRANCH   2  27
TORSDOF 8
ENDMDL
MODEL 7
REMARK VINA RESULT:      -7.5      1.310      1.950
REMARK  Name = 
REMARK  9 active torsions:
REMARK  status: ('A' for Active; 'I' for Inactive)
REMARK    1  A    between atoms: C_1  and  C_2
REMARK    2  A    between atoms: C_2  and  O_3
REMARK    3  A    between atoms: O_3  and  C_4
REMARK    4  A    between atoms: C_4  and  C_6
REMARK    5  A    between atoms: C_7  and  C_8
REMARK    6  A    between atoms: C_9  and  O_10
REMARK    7  A    between atoms: C_9  and  C_11
REMARK    8  A    between atoms: C_25  and  C_26
REMARK    9  A    between atoms: C_31  and  C_32
REMARK                            x       y       z     vdW  Elec       q    Type
REMARK                         _______ _______ _______ _____ _____    ______ ____
ROOT
ATOM      1  C   UNL     1      -1.091  11.341  20.852  0.00  0.00    +0.000 C 
ATOM      2  C   UNL     1       0.190  11.275  20.034  0.00  0.00    +0.000 C 
ATOM      3  N   UNL     1       0.724  12.317  19.449  0.00  0.00    +0.000 NA
ATOM      4  C   UNL     1       0.114  13.547  19.528  0.00  0.00    +0.000 C 
ATOM      5  C   UNL     1      -1.121  13.725  20.024  0.00  0.00    +0.000 C 
ATOM      6  C   UNL     1      -1.714  15.091  20.127  0.00  0.00    +0.000 C 
ATOM      7  O   UNL     1      -2.844  15.248  20.584  0.00  0.00    +0.000 OA
ATOM      8  C   UNL     1      -0.855  16.270  19.741  0.00  0.00    +0.000 C 
ATOM      9  C   UNL     1       0.037  15.897  18.573  0.00  0.00    +0.000 C 
ATOM     10  C   UNL     1       0.905  14.687  18.919  0.00  0.00    +0.000 C 
ATOM     11  C   UNL     1      -1.947  12.584  20.539  0.00  0.00    +0.000 C 
ENDROOT
BRANCH  11  12
ATOM     12  C   UNL     1      -3.094  12.242  19.576  0.00  0.00    +0.000 A 
ATOM     13  C   UNL     1      -2.751  11.841  18.261  0.00  0.00    +0.000 A 
ATOM     14  C   UNL     1      -3.722  11.532  17.312  0.00  0.00    +0.000 A 
ATOM     15  C   UNL     1      -5.063  11.612  17.647  0.00  0.00    +0.000 A 
ATOM     16  C   UNL     1      -5.427  11.994  18.939  0.00  0.00    +0.000 A 
ATOM     17  C   UNL     1      -4.466  12.312  19.927  0.00  0.00    +0.000 A 
BRANCH  17  18
ATOM     18  C   UNL     1      -5.047  12.696  21.280  0.00  0.00    +0.000 C 
ATOM     19  F   UNL     1      -5.175  14.023  21.540  0.00  0.00    +0.000 F 
ATOM     20  F   UNL     1      -6.275  12.149  21.496  0.00  0.00    +0.000 F 
ATOM     21  F   UNL     1      -4.263  12.229  22.300  0.00  0.00    +0.000 F 
ENDBRANCH  17  18
ENDBRANCH  11  12
BRANCH   1  22
ATOM     22  C   UNL     1      -0.810  11.198  22.338  0.00  0.00    +0.000 C 
ATOM     23  O   UNL     1      -0.889  10.127  22.934  0.00  0.00    +0.000 OA
BRANCH  22  24
ATOM     24  O   UNL     1      -0.472  12.375  22.922  0.00  0.00    +0.000 OA
BRANCH  24  26
ATOM     25  C   UNL     1      -1.183  14.531  23.756  0.00  0.00    +0.000 C 
ATOM     26  C   UNL     1      -1.526  13.066  23.608  0.00  0.00    +0.000 C 
ENDBRANCH  24  26
ENDBRANCH  22  24
ENDBRANCH   1  22
BRANCH   2  27
ATOM     27  C   UNL     1       0.943   9.983  19.901  0.00  0.00    +0.000 C 
ATOM     28  C   UNL     1       1.503   9.452  18.801  0.00  0.00    +0.000 C 
BRANCH  28  29
ATOM     29  C   UNL     1       2.160   8.127  18.779  0.00  0.00    +0.000 A 
ATOM     30  C   UNL     1       3.009   7.744  17.729  0.00  0.00    +0.000 A 
ATOM     31  C   UNL     1       3.668   6.512  17.756  0.00  0.00    +0.000 A 
ATOM     32  C   UNL     1       3.497   5.649  18.836  0.00  0.00    +0.000 A 
ATOM     33  C   UNL     1       2.671   6.019  19.894  0.00  0.00    +0.000 A 
ATOM     34  C   UNL     1       2.010   7.249  19.865  0.00  0.00    +0.000 A 
ENDBRANCH  28  29
BRANCH  28  35
ATOM     35  O   UNL     1       1.541  10.101  17.589  0.00  0.00    +0.000 OA
ATOM     36  H   UNL     1       1.735   9.413  16.914  0.00  0.00    +0.000 HD
ENDBRANCH  28  35
ENDBRANCH   2  27
TORSDOF 8
ENDMDL
MODEL 8
REMARK VINA RESULT:      -7.5      1.446      2.212
REMARK  Name = 
REMARK  9 active torsions:
REMARK  status: ('A' for Active; 'I' for Inactive)
REMARK    1  A    between atoms: C_1  and  C_2
REMARK    2  A    between atoms: C_2  and  O_3
REMARK    3  A    between atoms: O_3  and  C_4
REMARK    4  A    between atoms: C_4  and  C_6
REMARK    5  A    between atoms: C_7  and  C_8
REMARK    6  A    between atoms: C_9  and  O_10
REMARK    7  A    between atoms: C_9  and  C_11
REMARK    8  A    between atoms: C_25  and  C_26
REMARK    9  A    between atoms: C_31  and  C_32
REMARK                            x       y       z     vdW  Elec       q    Type
REMARK                         _______ _______ _______ _____ _____    ______ ____
ROOT
ATOM      1  C   UNL     1      -0.943  11.581  20.923  0.00  0.00    +0.000 C 
ATOM      2  C   UNL     1       0.271  11.509  20.009  0.00  0.00    +0.000 C 
ATOM      3  N   UNL     1       0.740  12.540  19.355  0.00  0.00    +0.000 NA
ATOM      4  C   UNL     1       0.118  13.764  19.446  0.00  0.00    +0.000 C 
ATOM      5  C   UNL     1      -1.078  13.939  20.031  0.00  0.00    +0.000 C 
ATOM      6  C   UNL     1      -1.683  15.298  20.141  0.00  0.00    +0.000 C 
ATOM      7  O   UNL     1      -2.777  15.453  20.681  0.00  0.00    +0.000 OA
ATOM      8  C   UNL     1      -0.877  16.477  19.656  0.00  0.00    +0.000 C 
ATOM      9  C   UNL     1      -0.072  16.082  18.433  0.00  0.00    +0.000 C 
ATOM     10  C   UNL     1       0.840  14.896  18.745  0.00  0.00    +0.000 C 
ATOM     11  C   UNL     1      -1.842  12.801  20.642  0.00  0.00    +0.000 C 
ENDROOT
BRANCH  11  12
ATOM     12  C   UNL     1      -3.055  12.414  19.782  0.00  0.00    +0.000 A 
ATOM     13  C   UNL     1      -2.811  12.018  18.443  0.00  0.00    +0.000 A 
ATOM     14  C   UNL     1      -3.848  11.670  17.581  0.00  0.00    +0.000 A 
ATOM     15  C   UNL     1      -5.158  11.705  18.029  0.00  0.00    +0.000 A 
ATOM     16  C   UNL     1      -5.423  12.082  19.347  0.00  0.00    +0.000 A 
ATOM     17  C   UNL     1      -4.393  12.438  20.249  0.00  0.00    +0.000 A 
BRANCH  17  18
ATOM     18  C   UNL     1      -4.869  12.810  21.645  0.00  0.00    +0.000 C 
ATOM     19  F   UNL     1      -4.103  12.396  22.687  0.00  0.00    +0.000 F 
ATOM     20  F   UNL     1      -5.030  14.153  21.803  0.00  0.00    +0.000 F 
ATOM     21  F   UNL     1      -6.101  12.271  21.901  0.00  0.00    +0.000 F 
ENDBRANCH  17  18
ENDBRANCH  11  12
BRANCH   1  22
ATOM     22  C   UNL     1      -0.545  11.487  22.385  0.00  0.00    +0.000 C 
ATOM     23  O   UNL     1      -1.050  12.183  23.263  0.00  0.00    +0.000 OA
BRANCH  22  24
ATOM     24  O   UNL     1       0.424  10.563  22.606  0.00  0.00    +0.000 OA
BRANCH  24  26
ATOM     25  C   UNL     1      -0.531   8.368  22.263  0.00  0.00    +0.000 C 
ATOM     26  C   UNL     1       0.012   9.359  23.267  0.00  0.00    +0.000 C 
ENDBRANCH  24  26
ENDBRANCH  22  24
ENDBRANCH   1  22
BRANCH   2  27
ATOM     27  C   UNL     1       1.033  10.225  19.855  0.00  0.00    +0.000 C 
ATOM     28  C   UNL     1       1.489   9.655  18.727  0.00  0.00    +0.000 C 
BRANCH  28  29
ATOM     29  C   UNL     1       2.168   8.340  18.694  0.00  0.00    +0.000 A 
ATOM     30  C   UNL     1       3.031   7.984  17.648  0.00  0.00    +0.000 A 
ATOM     31  C   UNL     1       3.710   6.763  17.664  0.00  0.00    +0.000 A 
ATOM     32  C   UNL     1       3.544   5.884  18.733  0.00  0.00    +0.000 A 
ATOM     33  C   UNL     1       2.703   6.227  19.788  0.00  0.00    +0.000 A 
ATOM     34  C   UNL     1       2.023   7.447  19.768  0.00  0.00    +0.000 A 
ENDBRANCH  28  29
BRANCH  28  35
ATOM     35  O   UNL     1       1.391  10.250  17.491  0.00  0.00    +0.000 OA
ATOM     36  H   UNL     1       2.294  10.567  17.265  0.00  0.00    +0.000 HD
ENDBRANCH  28  35
ENDBRANCH   2  27
TORSDOF 8
ENDMDL
MODEL 9
REMARK VINA RESULT:      -7.3      1.203      1.713
REMARK  Name = 
REMARK  9 active torsions:
REMARK  status: ('A' for Active; 'I' for Inactive)
REMARK    1  A    between atoms: C_1  and  C_2
REMARK    2  A    between atoms: C_2  and  O_3
REMARK    3  A    between atoms: O_3  and  C_4
REMARK    4  A    between atoms: C_4  and  C_6
REMARK    5  A    between atoms: C_7  and  C_8
REMARK    6  A    between atoms: C_9  and  O_10
REMARK    7  A    between atoms: C_9  and  C_11
REMARK    8  A    between atoms: C_25  and  C_26
REMARK    9  A    between atoms: C_31  and  C_32
REMARK                            x       y       z     vdW  Elec       q    Type
REMARK                         _______ _______ _______ _____ _____    ______ ____
ROOT
ATOM      1  C   UNL     1      -0.590  10.774  20.810  0.00  0.00    +0.000 C 
ATOM      2  C   UNL     1       0.742  10.317  20.237  0.00  0.00    +0.000 C 
ATOM      3  N   UNL     1       1.574  11.119  19.622  0.00  0.00    +0.000 NA
ATOM      4  C   UNL     1       1.254  12.444  19.437  0.00  0.00    +0.000 C 
ATOM      5  C   UNL     1       0.035  12.948  19.690  0.00  0.00    +0.000 C 
ATOM      6  C   UNL     1      -0.241  14.404  19.514  0.00  0.00    +0.000 C 
ATOM      7  O   UNL     1      -1.359  14.860  19.749  0.00  0.00    +0.000 OA
ATOM      8  C   UNL     1       0.907  15.305  19.131  0.00  0.00    +0.000 C 
ATOM      9  C   UNL     1       1.844  14.573  18.189  0.00  0.00    +0.000 C 
ATOM     10  C   UNL     1       2.358  13.285  18.830  0.00  0.00    +0.000 C 
ATOM     11  C   UNL     1      -1.091  12.098  20.199  0.00  0.00    +0.000 C 
ENDROOT
BRANCH  11  12
ATOM     12  C   UNL     1      -2.142  11.845  19.108  0.00  0.00    +0.000 A 
ATOM     13  C   UNL     1      -1.701  11.271  17.891  0.00  0.00    +0.000 A 
ATOM     14  C   UNL     1      -2.576  11.024  16.836  0.00  0.00    +0.000 A 
ATOM     15  C   UNL     1      -3.917  11.342  16.965  0.00  0.00    +0.000 A 
ATOM     16  C   UNL     1      -4.379  11.900  18.158  0.00  0.00    +0.000 A 
ATOM     17  C   UNL     1      -3.517  12.160  19.249  0.00  0.00    +0.000 A 
BRANCH  17  18
ATOM     18  C   UNL     1      -4.199  12.759  20.470  0.00  0.00    +0.000 C 
ATOM     19  F   UNL     1      -5.535  12.990  20.377  0.00  0.00    +0.000 F 
ATOM     20  F   UNL     1      -4.023  12.006  21.591  0.00  0.00    +0.000 F 
ATOM     21  F   UNL     1      -3.668  13.983  20.776  0.00  0.00    +0.000 F 
ENDBRANCH  17  18
ENDBRANCH  11  12
BRANCH   1  22
ATOM     22  C   UNL     1      -0.556  10.821  22.328  0.00  0.00    +0.000 C 
ATOM     23  O   UNL     1       0.269  10.203  22.998  0.00  0.00    +0.000 OA
BRANCH  22  24
ATOM     24  O   UNL     1      -1.531  11.606  22.850  0.00  0.00    +0.000 OA
BRANCH  24  26
ATOM     25  C   UNL     1      -2.330  13.698  23.765  0.00  0.00    +0.000 C 
ATOM     26  C   UNL     1      -1.143  12.938  23.215  0.00  0.00    +0.000 C 
ENDBRANCH  24  26
ENDBRANCH  22  24
ENDBRANCH   1  22
BRANCH   2  27
ATOM     27  C   UNL     1       1.194   8.895  20.400  0.00  0.00    +0.000 C 
ATOM     28  C   UNL     1       1.890   8.135  19.538  0.00  0.00    +0.000 C 
BRANCH  28  29
ATOM     29  C   UNL     1       2.214   6.712  19.782  0.00  0.00    +0.000 A 
ATOM     30  C   UNL     1       3.346   6.108  19.215  0.00  0.00    +0.000 A 
ATOM     31  C   UNL     1       3.670   4.780  19.506  0.00  0.00    +0.000 A 
ATOM     32  C   UNL     1       2.873   4.040  20.377  0.00  0.00    +0.000 A 
ATOM     33  C   UNL     1       1.755   4.628  20.962  0.00  0.00    +0.000 A 
ATOM     34  C   UNL     1       1.431   5.954  20.668  0.00  0.00    +0.000 A 
ENDBRANCH  28  29
BRANCH  28  35
ATOM     35  O   UNL     1       2.389   8.613  18.349  0.00  0.00    +0.000 OA
ATOM     36  H   UNL     1       3.206   8.096  18.166  0.00  0.00    +0.000 HD
ENDBRANCH  28  35
ENDBRANCH   2  27
TORSDOF 8
ENDMDL
