MODEL 1
REMARK VINA RESULT:      -6.4      0.000      0.000
REMARK  Name = 
REMARK  10 active torsions:
REMARK  status: ('A' for Active; 'I' for Inactive)
REMARK    1  A    between atoms: C_1  and  C_2
REMARK    2  A    between atoms: C_2  and  N_3
REMARK    3  A    between atoms: C_5  and  C_6
REMARK    4  A    between atoms: C_9  and  C_10
REMARK    5  A    between atoms: C_10  and  C_11
REMARK    6  A    between atoms: C_10  and  C_12
REMARK    7  A    between atoms: N_15  and  C_16
REMARK    8  A    between atoms: C_16  and  C_17
REMARK    9  A    between atoms: C_17  and  C_18
REMARK   10  A    between atoms: C_17  and  O_19
REMARK                            x       y       z     vdW  Elec       q    Type
REMARK                         _______ _______ _______ _____ _____    ______ ____
ROOT
ATOM      1  N   UNL     1       5.054   4.058  16.722  0.00  0.00    +0.000 N 
ATOM      2  N   UNL     1       4.323   2.949  16.971  0.00  0.00    +0.000 NA
ATOM      3  C   UNL     1       3.216   3.425  17.559  0.00  0.00    +0.000 A 
ATOM      4  C   UNL     1       2.160   2.496  18.021  0.00  0.00    +0.000 C 
ATOM      5  C   UNL     1       3.243   4.838  17.661  0.00  0.00    +0.000 A 
ATOM      6  N   UNL     1       2.339   5.714  18.147  0.00  0.00    +0.000 NA
ATOM      7  C   UNL     1       2.753   6.994  18.106  0.00  0.00    +0.000 A 
ATOM      8  N   UNL     1       3.966   7.428  17.688  0.00  0.00    +0.000 NA
ATOM      9  C   UNL     1       4.874   6.548  17.214  0.00  0.00    +0.000 A 
ATOM     10  N   UNL     1       6.153   6.946  16.841  0.00  0.00    +0.000 N 
ATOM     11  C   UNL     1       4.477   5.217  17.161  0.00  0.00    +0.000 A 
ATOM     12  H   UNL     1       6.236   6.936  15.824  0.00  0.00    +0.000 HD
ENDROOT
BRANCH   7  13
ATOM     13  C   UNL     1       1.761   8.044  18.567  0.00  0.00    +0.000 C 
ATOM     14  C   UNL     1       1.737   8.142  20.092  0.00  0.00    +0.000 C 
ATOM     15  C   UNL     1       2.071   9.404  17.939  0.00  0.00    +0.000 C 
ENDBRANCH   7  13
BRANCH   1  17
ATOM     16  C   UNL     1       6.020   4.145  14.468  0.00  0.00    +0.000 C 
ATOM     17  C   UNL     1       6.275   3.916  15.949  0.00  0.00    +0.000 C 
ENDBRANCH   1  17
BRANCH  10  18
ATOM     18  C   UNL     1       6.639   8.218  17.384  0.00  0.00    +0.000 C 
BRANCH  18  19
ATOM     19  C   UNL     1       8.109   8.094  17.826  0.00  0.00    +0.000 C 
ATOM     20  C   UNL     1       8.612   9.395  18.438  0.00  0.00    +0.000 C 
BRANCH  19  21
ATOM     21  O   UNL     1       8.241   7.042  18.794  0.00  0.00    +0.000 OA
ATOM     22  H   UNL     1       9.136   7.103  19.174  0.00  0.00    +0.000 HD
ENDBRANCH  19  21
ENDBRANCH  18  19
ENDBRANCH  10  18
TORSDOF 5
ENDMDL
MODEL 2
REMARK VINA RESULT:      -6.3      2.633      5.009
REMARK  Name = 
REMARK  10 active torsions:
REMARK  status: ('A' for Active; 'I' for Inactive)
REMARK    1  A    between atoms: C_1  and  C_2
REMARK    2  A    between atoms: C_2  and  N_3
REMARK    3  A    between atoms: C_5  and  C_6
REMARK    4  A    between atoms: C_9  and  C_10
REMARK    5  A    between atoms: C_10  and  C_11
REMARK    6  A    between atoms: C_10  and  C_12
REMARK    7  A    between atoms: N_15  and  C_16
REMARK    8  A    between atoms: C_16  and  C_17
REMARK    9  A    between atoms: C_17  and  C_18
REMARK   10  A    between atoms: C_17  and  O_19
REMARK                            x       y       z     vdW  Elec       q    Type
REMARK                         _______ _______ _______ _____ _____    ______ ____
ROOT
ATOM      1  N   UNL     1       3.001   4.202  19.560  0.00  0.00    +0.000 N 
ATOM      2  N   UNL     1       3.018   2.853  19.656  0.00  0.00    +0.000 NA
ATOM      3  C   UNL     1       3.705   2.467  18.571  0.00  0.00    +0.000 A 
ATOM      4  C   UNL     1       3.915   1.028  18.296  0.00  0.00    +0.000 C 
ATOM      5  C   UNL     1       4.137   3.576  17.803  0.00  0.00    +0.000 A 
ATOM      6  N   UNL     1       4.871   3.646  16.672  0.00  0.00    +0.000 NA
ATOM      7  C   UNL     1       5.042   4.900  16.217  0.00  0.00    +0.000 A 
ATOM      8  N   UNL     1       4.511   6.025  16.754  0.00  0.00    +0.000 NA
ATOM      9  C   UNL     1       3.766   5.951  17.878  0.00  0.00    +0.000 A 
ATOM     10  N   UNL     1       3.147   7.072  18.420  0.00  0.00    +0.000 N 
ATOM     11  C   UNL     1       3.615   4.688  18.440  0.00  0.00    +0.000 A 
ATOM     12  H   UNL     1       3.637   7.363  19.267  0.00  0.00    +0.000 HD
ENDROOT
BRANCH   7  13
ATOM     13  C   UNL     1       5.919   5.065  14.991  0.00  0.00    +0.000 C 
ATOM     14  C   UNL     1       7.399   4.989  15.362  0.00  0.00    +0.000 C 
ATOM     15  C   UNL     1       5.571   4.024  13.925  0.00  0.00    +0.000 C 
ENDBRANCH   7  13
BRANCH   1  17
ATOM     16  C   UNL     1       0.935   5.058  20.571  0.00  0.00    +0.000 C 
ATOM     17  C   UNL     1       2.450   4.962  20.667  0.00  0.00    +0.000 C 
ENDBRANCH   1  17
BRANCH  10  18
ATOM     18  C   UNL     1       2.942   8.216  17.527  0.00  0.00    +0.000 C 
BRANCH  18  19
ATOM     19  C   UNL     1       1.673   8.994  17.922  0.00  0.00    +0.000 C 
ATOM     20  C   UNL     1       1.474   8.996  19.431  0.00  0.00    +0.000 C 
BRANCH  19  21
ATOM     21  O   UNL     1       1.769  10.351  17.463  0.00  0.00    +0.000 OA
ATOM     22  H   UNL     1       2.134  10.330  16.559  0.00  0.00    +0.000 HD
ENDBRANCH  19  21
ENDBRANCH  18  19
ENDBRANCH  10  18
TORSDOF 5
ENDMDL
MODEL 3
REMARK VINA RESULT:      -6.3      2.778      5.101
REMARK  Name = 
REMARK  10 active torsions:
REMARK  status: ('A' for Active; 'I' for Inactive)
REMARK    1  A    between atoms: C_1  and  C_2
REMARK    2  A    between atoms: C_2  and  N_3
REMARK    3  A    between atoms: C_5  and  C_6
REMARK    4  A    between atoms: C_9  and  C_10
REMARK    5  A    between atoms: C_10  and  C_11
REMARK    6  A    between atoms: C_10  and  C_12
REMARK    7  A    between atoms: N_15  and  C_16
REMARK    8  A    between atoms: C_16  and  C_17
REMARK    9  A    between atoms: C_17  and  C_18
REMARK   10  A    between atoms: C_17  and  O_19
REMARK                            x       y       z     vdW  Elec       q    Type
REMARK                         _______ _______ _______ _____ _____    ______ ____
ROOT
ATOM      1  N   UNL     1       2.890   4.071  20.262  0.00  0.00    +0.000 N 
ATOM      2  N   UNL     1       3.190   2.793  20.586  0.00  0.00    +0.000 NA
ATOM      3  C   UNL     1       4.374   2.586  19.992  0.00  0.00    +0.000 A 
ATOM      4  C   UNL     1       5.033   1.264  20.087  0.00  0.00    +0.000 C 
ATOM      5  C   UNL     1       4.828   3.742  19.310  0.00  0.00    +0.000 A 
ATOM      6  N   UNL     1       5.962   3.981  18.618  0.00  0.00    +0.000 NA
ATOM      7  C   UNL     1       6.012   5.211  18.074  0.00  0.00    +0.000 A 
ATOM      8  N   UNL     1       5.034   6.148  18.125  0.00  0.00    +0.000 NA
ATOM      9  C   UNL     1       3.896   5.901  18.807  0.00  0.00    +0.000 A 
ATOM     10  N   UNL     1       2.842   6.809  18.825  0.00  0.00    +0.000 N 
ATOM     11  C   UNL     1       3.815   4.674  19.455  0.00  0.00    +0.000 A 
ATOM     12  H   UNL     1       2.793   7.265  19.736  0.00  0.00    +0.000 HD
ENDROOT
BRANCH   7  13
ATOM     13  C   UNL     1       7.288   5.579  17.343  0.00  0.00    +0.000 C 
ATOM     14  C   UNL     1       7.241   5.109  15.890  0.00  0.00    +0.000 C 
ATOM     15  C   UNL     1       7.549   7.085  17.420  0.00  0.00    +0.000 C 
ENDBRANCH   7  13
BRANCH   1  17
ATOM     16  C   UNL     1       0.436   4.102  20.292  0.00  0.00    +0.000 C 
ATOM     17  C   UNL     1       1.719   4.677  20.870  0.00  0.00    +0.000 C 
ENDBRANCH   1  17
BRANCH  10  18
ATOM     18  C   UNL     1       2.804   7.804  17.749  0.00  0.00    +0.000 C 
BRANCH  18  19
ATOM     19  C   UNL     1       1.654   8.804  17.974  0.00  0.00    +0.000 C 
ATOM     20  C   UNL     1       1.385   9.010  19.459  0.00  0.00    +0.000 C 
BRANCH  19  21
ATOM     21  O   UNL     1       1.984  10.068  17.381  0.00  0.00    +0.000 OA
ATOM     22  H   UNL     1       1.469  10.754  17.844  0.00  0.00    +0.000 HD
ENDBRANCH  19  21
ENDBRANCH  18  19
ENDBRANCH  10  18
TORSDOF 5
ENDMDL
MODEL 4
REMARK VINA RESULT:      -6.1      2.719      5.193
REMARK  Name = 
REMARK  10 active torsions:
REMARK  status: ('A' for Active; 'I' for Inactive)
REMARK    1  A    between atoms: C_1  and  C_2
REMARK    2  A    between atoms: C_2  and  N_3
REMARK    3  A    between atoms: C_5  and  C_6
REMARK    4  A    between atoms: C_9  and  C_10
REMARK    5  A    between atoms: C_10  and  C_11
REMARK    6  A    between atoms: C_10  and  C_12
REMARK    7  A    between atoms: N_15  and  C_16
REMARK    8  A    between atoms: C_16  and  C_17
REMARK    9  A    between atoms: C_17  and  C_18
REMARK   10  A    between atoms: C_17  and  O_19
REMARK                            x       y       z     vdW  Elec       q    Type
REMARK                         _______ _______ _______ _____ _____    ______ ____
ROOT
ATOM      1  N   UNL     1       2.471   3.662  20.071  0.00  0.00    +0.000 N 
ATOM      2  N   UNL     1       2.676   2.373  19.717  0.00  0.00    +0.000 NA
ATOM      3  C   UNL     1       3.483   2.463  18.650  0.00  0.00    +0.000 A 
ATOM      4  C   UNL     1       3.917   1.239  17.939  0.00  0.00    +0.000 C 
ATOM      5  C   UNL     1       3.802   3.810  18.345  0.00  0.00    +0.000 A 
ATOM      6  N   UNL     1       4.592   4.345  17.391  0.00  0.00    +0.000 NA
ATOM      7  C   UNL     1       4.611   5.690  17.398  0.00  0.00    +0.000 A 
ATOM      8  N   UNL     1       3.887   6.495  18.214  0.00  0.00    +0.000 NA
ATOM      9  C   UNL     1       3.087   5.957  19.159  0.00  0.00    +0.000 A 
ATOM     10  N   UNL     1       2.277   6.746  19.968  0.00  0.00    +0.000 N 
ATOM     11  C   UNL     1       3.083   4.569  19.251  0.00  0.00    +0.000 A 
ATOM     12  H   UNL     1       2.662   6.783  20.913  0.00  0.00    +0.000 HD
ENDROOT
BRANCH   7  13
ATOM     13  C   UNL     1       5.534   6.362  16.402  0.00  0.00    +0.000 C 
ATOM     14  C   UNL     1       6.838   6.796  17.071  0.00  0.00    +0.000 C 
ATOM     15  C   UNL     1       5.813   5.447  15.208  0.00  0.00    +0.000 C 
ENDBRANCH   7  13
BRANCH   1  17
ATOM     16  C   UNL     1       1.342   2.639  21.994  0.00  0.00    +0.000 C 
ATOM     17  C   UNL     1       1.743   3.930  21.298  0.00  0.00    +0.000 C 
ENDBRANCH   1  17
BRANCH  10  18
ATOM     18  C   UNL     1       1.970   8.096  19.486  0.00  0.00    +0.000 C 
BRANCH  18  19
ATOM     19  C   UNL     1       1.197   8.892  20.555  0.00  0.00    +0.000 C 
ATOM     20  C   UNL     1       0.218   9.867  19.915  0.00  0.00    +0.000 C 
BRANCH  19  21
ATOM     21  O   UNL     1       0.471   7.991  21.404  0.00  0.00    +0.000 OA
ATOM     22  H   UNL     1       1.075   7.266  21.648  0.00  0.00    +0.000 HD
ENDBRANCH  19  21
ENDBRANCH  18  19
ENDBRANCH  10  18
TORSDOF 5
ENDMDL
MODEL 5
REMARK VINA RESULT:      -6.1      2.056      2.921
REMARK  Name = 
REMARK  10 active torsions:
REMARK  status: ('A' for Active; 'I' for Inactive)
REMARK    1  A    between atoms: C_1  and  C_2
REMARK    2  A    between atoms: C_2  and  N_3
REMARK    3  A    between atoms: C_5  and  C_6
REMARK    4  A    between atoms: C_9  and  C_10
REMARK    5  A    between atoms: C_10  and  C_11
REMARK    6  A    between atoms: C_10  and  C_12
REMARK    7  A    between atoms: N_15  and  C_16
REMARK    8  A    between atoms: C_16  and  C_17
REMARK    9  A    between atoms: C_17  and  C_18
REMARK   10  A    between atoms: C_17  and  O_19
REMARK                            x       y       z     vdW  Elec       q    Type
REMARK                         _______ _______ _______ _____ _____    ______ ____
ROOT
ATOM      1  N   UNL     1       3.166   3.218  18.818  0.00  0.00    +0.000 N 
ATOM      2  N   UNL     1       2.606   2.492  19.812  0.00  0.00    +0.000 NA
ATOM      3  C   UNL     1       2.049   3.419  20.605  0.00  0.00    +0.000 A 
ATOM      4  C   UNL     1       1.353   3.014  21.847  0.00  0.00    +0.000 C 
ATOM      5  C   UNL     1       2.242   4.728  20.098  0.00  0.00    +0.000 A 
ATOM      6  N   UNL     1       1.829   5.930  20.552  0.00  0.00    +0.000 NA
ATOM      7  C   UNL     1       2.253   6.964  19.802  0.00  0.00    +0.000 A 
ATOM      8  N   UNL     1       3.065   6.886  18.720  0.00  0.00    +0.000 NA
ATOM      9  C   UNL     1       3.487   5.684  18.276  0.00  0.00    +0.000 A 
ATOM     10  N   UNL     1       4.376   5.567  17.212  0.00  0.00    +0.000 N 
ATOM     11  C   UNL     1       3.021   4.569  18.965  0.00  0.00    +0.000 A 
ATOM     12  H   UNL     1       3.883   5.230  16.385  0.00  0.00    +0.000 HD
ENDROOT
BRANCH   7  13
ATOM     13  C   UNL     1       1.767   8.341  20.208  0.00  0.00    +0.000 C 
ATOM     14  C   UNL     1       1.297   9.136  18.991  0.00  0.00    +0.000 C 
ATOM     15  C   UNL     1       0.658   8.244  21.258  0.00  0.00    +0.000 C 
ENDBRANCH   7  13
BRANCH   1  17
ATOM     16  C   UNL     1       3.991   1.047  18.027  0.00  0.00    +0.000 C 
ATOM     17  C   UNL     1       3.743   2.508  17.690  0.00  0.00    +0.000 C 
ENDBRANCH   1  17
BRANCH  10  18
ATOM     18  C   UNL     1       5.180   6.748  16.886  0.00  0.00    +0.000 C 
BRANCH  18  19
ATOM     19  C   UNL     1       6.579   6.646  17.522  0.00  0.00    +0.000 C 
ATOM     20  C   UNL     1       7.155   5.245  17.366  0.00  0.00    +0.000 C 
BRANCH  19  21
ATOM     21  O   UNL     1       7.468   7.586  16.900  0.00  0.00    +0.000 OA
ATOM     22  H   UNL     1       8.312   7.128  16.736  0.00  0.00    +0.000 HD
ENDBRANCH  19  21
ENDBRANCH  18  19
ENDBRANCH  10  18
TORSDOF 5
ENDMDL
MODEL 6
REMARK VINA RESULT:      -6.0      2.382      4.922
REMARK  Name = 
REMARK  10 active torsions:
REMARK  status: ('A' for Active; 'I' for Inactive)
REMARK    1  A    between atoms: C_1  and  C_2
REMARK    2  A    between atoms: C_2  and  N_3
REMARK    3  A    between atoms: C_5  and  C_6
REMARK    4  A    between atoms: C_9  and  C_10
REMARK    5  A    between atoms: C_10  and  C_11
REMARK    6  A    between atoms: C_10  and  C_12
REMARK    7  A    between atoms: N_15  and  C_16
REMARK    8  A    between atoms: C_16  and  C_17
REMARK    9  A    between atoms: C_17  and  C_18
REMARK   10  A    between atoms: C_17  and  O_19
REMARK                            x       y       z     vdW  Elec       q    Type
REMARK                         _______ _______ _______ _____ _____    ______ ____
ROOT
ATOM      1  N   UNL     1       2.198   4.024  19.136  0.00  0.00    +0.000 N 
ATOM      2  N   UNL     1       2.287   2.675  19.131  0.00  0.00    +0.000 NA
ATOM      3  C   UNL     1       3.471   2.438  18.550  0.00  0.00    +0.000 A 
ATOM      4  C   UNL     1       3.926   1.047  18.326  0.00  0.00    +0.000 C 
ATOM      5  C   UNL     1       4.138   3.641  18.208  0.00  0.00    +0.000 A 
ATOM      6  N   UNL     1       5.345   3.863  17.646  0.00  0.00    +0.000 NA
ATOM      7  C   UNL     1       5.613   5.165  17.441  0.00  0.00    +0.000 A 
ATOM      8  N   UNL     1       4.778   6.202  17.694  0.00  0.00    +0.000 NA
ATOM      9  C   UNL     1       3.566   5.976  18.245  0.00  0.00    +0.000 A 
ATOM     10  N   UNL     1       2.654   7.006  18.455  0.00  0.00    +0.000 N 
ATOM     11  C   UNL     1       3.260   4.655  18.550  0.00  0.00    +0.000 A 
ATOM     12  H   UNL     1       2.600   7.222  19.451  0.00  0.00    +0.000 HD
ENDROOT
BRANCH   7  13
ATOM     13  C   UNL     1       6.981   5.497  16.881  0.00  0.00    +0.000 C 
ATOM     14  C   UNL     1       7.036   5.232  15.377  0.00  0.00    +0.000 C 
ATOM     15  C   UNL     1       7.365   6.946  17.192  0.00  0.00    +0.000 C 
ENDBRANCH   7  13
BRANCH   1  17
ATOM     16  C   UNL     1       1.546   5.358  21.090  0.00  0.00    +0.000 C 
ATOM     17  C   UNL     1       1.083   4.637  19.835  0.00  0.00    +0.000 C 
ENDBRANCH   1  17
BRANCH  10  18
ATOM     18  C   UNL     1       2.843   8.231  17.673  0.00  0.00    +0.000 C 
BRANCH  18  19
ATOM     19  C   UNL     1       1.652   9.188  17.866  0.00  0.00    +0.000 C 
ATOM     20  C   UNL     1       1.222   9.246  19.325  0.00  0.00    +0.000 C 
BRANCH  19  21
ATOM     21  O   UNL     1       2.012  10.508  17.433  0.00  0.00    +0.000 OA
ATOM     22  H   UNL     1       1.435  10.739  16.683  0.00  0.00    +0.000 HD
ENDBRANCH  19  21
ENDBRANCH  18  19
ENDBRANCH  10  18
TORSDOF 5
ENDMDL
MODEL 7
REMARK VINA RESULT:      -5.9      2.404      4.970
REMARK  Name = 
REMARK  10 active torsions:
REMARK  status: ('A' for Active; 'I' for Inactive)
REMARK    1  A    between atoms: C_1  and  C_2
REMARK    2  A    between atoms: C_2  and  N_3
REMARK    3  A    between atoms: C_5  and  C_6
REMARK    4  A    between atoms: C_9  and  C_10
REMARK    5  A    between atoms: C_10  and  C_11
REMARK    6  A    between atoms: C_10  and  C_12
REMARK    7  A    between atoms: N_15  and  C_16
REMARK    8  A    between atoms: C_16  and  C_17
REMARK    9  A    between atoms: C_17  and  C_18
REMARK   10  A    between atoms: C_17  and  O_19
REMARK                            x       y       z     vdW  Elec       q    Type
REMARK                         _______ _______ _______ _____ _____    ______ ____
ROOT
ATOM      1  N   UNL     1       2.181   3.418  19.611  0.00  0.00    +0.000 N 
ATOM      2  N   UNL     1       2.415   2.168  19.153  0.00  0.00    +0.000 NA
ATOM      3  C   UNL     1       3.579   2.284  18.497  0.00  0.00    +0.000 A 
ATOM      4  C   UNL     1       4.167   1.112  17.810  0.00  0.00    +0.000 C 
ATOM      5  C   UNL     1       4.087   3.606  18.560  0.00  0.00    +0.000 A 
ATOM      6  N   UNL     1       5.223   4.149  18.075  0.00  0.00    +0.000 NA
ATOM      7  C   UNL     1       5.333   5.469  18.311  0.00  0.00    +0.000 A 
ATOM      8  N   UNL     1       4.408   6.252  18.916  0.00  0.00    +0.000 NA
ATOM      9  C   UNL     1       3.267   5.709  19.389  0.00  0.00    +0.000 A 
ATOM     10  N   UNL     1       2.263   6.490  19.954  0.00  0.00    +0.000 N 
ATOM     11  C   UNL     1       3.127   4.333  19.243  0.00  0.00    +0.000 A 
ATOM     12  H   UNL     1       2.250   6.358  20.966  0.00  0.00    +0.000 HD
ENDROOT
BRANCH   7  13
ATOM     13  C   UNL     1       6.618   6.135  17.860  0.00  0.00    +0.000 C 
ATOM     14  C   UNL     1       7.732   5.924  18.884  0.00  0.00    +0.000 C 
ATOM     15  C   UNL     1       7.044   5.627  16.480  0.00  0.00    +0.000 C 
ENDBRANCH   7  13
BRANCH   1  17
ATOM     16  C   UNL     1       1.232   2.861  21.804  0.00  0.00    +0.000 C 
ATOM     17  C   UNL     1       1.052   3.623  20.501  0.00  0.00    +0.000 C 
ENDBRANCH   1  17
BRANCH  10  18
ATOM     18  C   UNL     1       2.266   7.917  19.621  0.00  0.00    +0.000 C 
BRANCH  18  19
ATOM     19  C   UNL     1       1.772   8.141  18.180  0.00  0.00    +0.000 C 
ATOM     20  C   UNL     1       0.914   9.395  18.079  0.00  0.00    +0.000 C 
BRANCH  19  21
ATOM     21  O   UNL     1       2.894   8.271  17.294  0.00  0.00    +0.000 OA
ATOM     22  H   UNL     1       2.701   7.746  16.496  0.00  0.00    +0.000 HD
ENDBRANCH  19  21
ENDBRANCH  18  19
ENDBRANCH  10  18
TORSDOF 5
ENDMDL
MODEL 8
REMARK VINA RESULT:      -5.9      2.458      4.888
REMARK  Name = 
REMARK  10 active torsions:
REMARK  status: ('A' for Active; 'I' for Inactive)
REMARK    1  A    between atoms: C_1  and  C_2
REMARK    2  A    between atoms: C_2  and  N_3
REMARK    3  A    between atoms: C_5  and  C_6
REMARK    4  A    between atoms: C_9  and  C_10
REMARK    5  A    between atoms: C_10  and  C_11
REMARK    6  A    between atoms: C_10  and  C_12
REMARK    7  A    between atoms: N_15  and  C_16
REMARK    8  A    between atoms: C_16  and  C_17
REMARK    9  A    between atoms: C_17  and  C_18
REMARK   10  A    between atoms: C_17  and  O_19
REMARK                            x       y       z     vdW  Elec       q    Type
REMARK                         _______ _______ _______ _____ _____    ______ ____
ROOT
ATOM      1  N   UNL     1       2.248   3.814  18.679  0.00  0.00    +0.000 N 
ATOM      2  N   UNL     1       2.450   2.481  18.575  0.00  0.00    +0.000 NA
ATOM      3  C   UNL     1       3.758   2.379  18.297  0.00  0.00    +0.000 A 
ATOM      4  C   UNL     1       4.370   1.051  18.072  0.00  0.00    +0.000 C 
ATOM      5  C   UNL     1       4.383   3.650  18.248  0.00  0.00    +0.000 A 
ATOM      6  N   UNL     1       5.669   4.003  18.036  0.00  0.00    +0.000 NA
ATOM      7  C   UNL     1       5.867   5.334  18.025  0.00  0.00    +0.000 A 
ATOM      8  N   UNL     1       4.910   6.286  18.148  0.00  0.00    +0.000 NA
ATOM      9  C   UNL     1       3.623   5.930  18.348  0.00  0.00    +0.000 A 
ATOM     10  N   UNL     1       2.604   6.873  18.410  0.00  0.00    +0.000 N 
ATOM     11  C   UNL     1       3.365   4.567  18.444  0.00  0.00    +0.000 A 
ATOM     12  H   UNL     1       2.285   6.976  19.374  0.00  0.00    +0.000 HD
ENDROOT
BRANCH   7  13
ATOM     13  C   UNL     1       7.298   5.807  17.866  0.00  0.00    +0.000 C 
ATOM     14  C   UNL     1       7.347   7.224  17.298  0.00  0.00    +0.000 C 
ATOM     15  C   UNL     1       8.054   5.725  19.194  0.00  0.00    +0.000 C 
ENDBRANCH   7  13
BRANCH   1  17
ATOM     16  C   UNL     1       0.770   4.085  20.619  0.00  0.00    +0.000 C 
ATOM     17  C   UNL     1       0.946   4.279  19.121  0.00  0.00    +0.000 C 
ENDBRANCH   1  17
BRANCH  10  18
ATOM     18  C   UNL     1       2.876   8.185  17.816  0.00  0.00    +0.000 C 
BRANCH  18  19
ATOM     19  C   UNL     1       1.639   9.097  17.922  0.00  0.00    +0.000 C 
ATOM     20  C   UNL     1       1.178   9.236  19.366  0.00  0.00    +0.000 C 
BRANCH  19  21
ATOM     21  O   UNL     1       1.947  10.400  17.403  0.00  0.00    +0.000 OA
ATOM     22  H   UNL     1       1.215  10.663  16.816  0.00  0.00    +0.000 HD
ENDBRANCH  19  21
ENDBRANCH  18  19
ENDBRANCH  10  18
TORSDOF 5
ENDMDL
MODEL 9
REMARK VINA RESULT:      -5.8      1.960      2.732
REMARK  Name = 
REMARK  10 active torsions:
REMARK  status: ('A' for Active; 'I' for Inactive)
REMARK    1  A    between atoms: C_1  and  C_2
REMARK    2  A    between atoms: C_2  and  N_3
REMARK    3  A    between atoms: C_5  and  C_6
REMARK    4  A    between atoms: C_9  and  C_10
REMARK    5  A    between atoms: C_10  and  C_11
REMARK    6  A    between atoms: C_10  and  C_12
REMARK    7  A    between atoms: N_15  and  C_16
REMARK    8  A    between atoms: C_16  and  C_17
REMARK    9  A    between atoms: C_17  and  C_18
REMARK   10  A    between atoms: C_17  and  O_19
REMARK                            x       y       z     vdW  Elec       q    Type
REMARK                         _______ _______ _______ _____ _____    ______ ____
ROOT
ATOM      1  N   UNL     1       3.261   3.148  18.597  0.00  0.00    +0.000 N 
ATOM      2  N   UNL     1       2.666   2.602  19.681  0.00  0.00    +0.000 NA
ATOM      3  C   UNL     1       2.151   3.658  20.326  0.00  0.00    +0.000 A 
ATOM      4  C   UNL     1       1.435   3.472  21.608  0.00  0.00    +0.000 C 
ATOM      5  C   UNL     1       2.406   4.869  19.635  0.00  0.00    +0.000 A 
ATOM      6  N   UNL     1       2.049   6.142  19.906  0.00  0.00    +0.000 NA
ATOM      7  C   UNL     1       2.521   7.035  19.018  0.00  0.00    +0.000 A 
ATOM      8  N   UNL     1       3.331   6.764  17.966  0.00  0.00    +0.000 NA
ATOM      9  C   UNL     1       3.697   5.491  17.704  0.00  0.00    +0.000 A 
ATOM     10  N   UNL     1       4.581   5.180  16.676  0.00  0.00    +0.000 N 
ATOM     11  C   UNL     1       3.179   4.512  18.544  0.00  0.00    +0.000 A 
ATOM     12  H   UNL     1       4.074   4.749  15.903  0.00  0.00    +0.000 HD
ENDROOT
BRANCH   7  13
ATOM     13  C   UNL     1       2.100   8.478  19.215  0.00  0.00    +0.000 C 
ATOM     14  C   UNL     1       1.398   9.018  17.970  0.00  0.00    +0.000 C 
ATOM     15  C   UNL     1       1.209   8.625  20.450  0.00  0.00    +0.000 C 
ENDBRANCH   7  13
BRANCH   1  17
ATOM     16  C   UNL     1       4.139   0.895  18.180  0.00  0.00    +0.000 C 
ATOM     17  C   UNL     1       3.805   2.256  17.589  0.00  0.00    +0.000 C 
ENDBRANCH   1  17
BRANCH  10  18
ATOM     18  C   UNL     1       5.440   6.263  16.189  0.00  0.00    +0.000 C 
BRANCH  18  19
ATOM     19  C   UNL     1       6.912   5.995  16.553  0.00  0.00    +0.000 C 
ATOM     20  C   UNL     1       7.379   6.913  17.675  0.00  0.00    +0.000 C 
BRANCH  19  21
ATOM     21  O   UNL     1       7.071   4.631  16.970  0.00  0.00    +0.000 OA
ATOM     22  H   UNL     1       6.556   4.512  17.789  0.00  0.00    +0.000 HD
ENDBRANCH  19  21
ENDBRANCH  18  19
ENDBRANCH  10  18
TORSDOF 5
ENDMDL
