MODEL 1
REMARK VINA RESULT:      -8.2      0.000      0.000
REMARK  Name = 
REMARK  11 active torsions:
REMARK  status: ('A' for Active; 'I' for Inactive)
REMARK    1  A    between atoms: C_1  and  C_2
REMARK    2  A    between atoms: C_2  and  C_3
REMARK    3  A    between atoms: C_3  and  C_4
REMARK    4  A    between atoms: C_7  and  C_8
REMARK    5  A    between atoms: C_10  and  C_11
REMARK    6  A    between atoms: C_14  and  C_15
REMARK    7  A    between atoms: N_17  and  C_18
REMARK    8  A    between atoms: C_18  and  C_19
REMARK    9  A    between atoms: N_23  and  C_24
REMARK   10  A    between atoms: C_24  and  C_25
REMARK   11  A    between atoms: C_24  and  C_26
REMARK                            x       y       z     vdW  Elec       q    Type
REMARK                         _______ _______ _______ _____ _____    ______ ____
ROOT
ATOM      1  C   UNL     1       1.228   9.964  18.904  0.00  0.00    +0.000 A 
ATOM      2  C   UNL     1       1.722   9.250  17.801  0.00  0.00    +0.000 A 
ATOM      3  C   UNL     1       2.245   7.961  17.933  0.00  0.00    +0.000 A 
ATOM      4  C   UNL     1       2.204   7.311  19.168  0.00  0.00    +0.000 A 
ATOM      5  C   UNL     1       1.625   7.956  20.261  0.00  0.00    +0.000 A 
ATOM      6  C   UNL     1       1.141   9.265  20.127  0.00  0.00    +0.000 A 
ENDROOT
BRANCH   1  13
ATOM      7  C   UNL     1      -0.482  11.868  18.767  0.00  0.00    +0.000 A 
ATOM      8  C   UNL     1      -0.599  13.246  18.696  0.00  0.00    +0.000 A 
ATOM      9  N   UNL     1       0.433  14.103  18.627  0.00  0.00    +0.000 NA
ATOM     10  C   UNL     1       1.654  13.558  18.645  0.00  0.00    +0.000 A 
ATOM     11  C   UNL     1       2.831  14.475  18.539  0.00  0.00    +0.000 C 
ATOM     12  N   UNL     1       1.897  12.239  18.749  0.00  0.00    +0.000 NA
ATOM     13  C   UNL     1       0.833  11.397  18.823  0.00  0.00    +0.000 A 
BRANCH   7  14
ATOM     14  C   UNL     1      -1.709  10.988  18.823  0.00  0.00    +0.000 C 
BRANCH  14  16
ATOM     15  C   UNL     1      -2.447  10.964  16.388  0.00  0.00    +0.000 C 
ATOM     16  C   UNL     1      -2.051  10.131  17.598  0.00  0.00    +0.000 C 
ENDBRANCH  14  16
ENDBRANCH   7  14
ENDBRANCH   1  13
BRANCH   4  17
ATOM     17  C   UNL     1       2.808   5.965  19.355  0.00  0.00    +0.000 C 
ATOM     18  O   UNL     1       2.856   5.448  20.465  0.00  0.00    +0.000 OA
ATOM     19  N   UNL     1       3.293   5.357  18.223  0.00  0.00    +0.000 N 
ATOM     20  H   UNL     1       3.175   5.766  17.305  0.00  0.00    +0.000 HD
BRANCH  19  21
ATOM     21  C   UNL     1       3.989   4.099  18.295  0.00  0.00    +0.000 C 
BRANCH  21  22
ATOM     22  C   UNL     1       5.447   4.353  18.164  0.00  0.00    +0.000 A 
ATOM     23  N   UNL     1       6.323   4.403  19.153  0.00  0.00    +0.000 NA
ATOM     24  N   UNL     1       7.554   4.693  18.621  0.00  0.00    +0.000 NA
ATOM     25  C   UNL     1       7.406   4.815  17.324  0.00  0.00    +0.000 A 
ATOM     26  N   UNL     1       6.106   4.596  16.983  0.00  0.00    +0.000 N 
BRANCH  26  27
ATOM     27  C   UNL     1       5.524   4.643  15.648  0.00  0.00    +0.000 C 
ATOM     28  C   UNL     1       5.258   6.084  15.219  0.00  0.00    +0.000 C 
ATOM     29  C   UNL     1       6.363   3.910  14.598  0.00  0.00    +0.000 C 
ENDBRANCH  26  27
ENDBRANCH  21  22
ENDBRANCH  19  21
ENDBRANCH   4  17
TORSDOF 7
ENDMDL
MODEL 2
REMARK VINA RESULT:      -8.0      1.390      2.263
REMARK  Name = 
REMARK  11 active torsions:
REMARK  status: ('A' for Active; 'I' for Inactive)
REMARK    1  A    between atoms: C_1  and  C_2
REMARK    2  A    between atoms: C_2  and  C_3
REMARK    3  A    between atoms: C_3  and  C_4
REMARK    4  A    between atoms: C_7  and  C_8
REMARK    5  A    between atoms: C_10  and  C_11
REMARK    6  A    between atoms: C_14  and  C_15
REMARK    7  A    between atoms: N_17  and  C_18
REMARK    8  A    between atoms: C_18  and  C_19
REMARK    9  A    between atoms: N_23  and  C_24
REMARK   10  A    between atoms: C_24  and  C_25
REMARK   11  A    between atoms: C_24  and  C_26
REMARK                            x       y       z     vdW  Elec       q    Type
REMARK                         _______ _______ _______ _____ _____    ______ ____
ROOT
ATOM      1  C   UNL     1       1.088   9.579  19.119  0.00  0.00    +0.000 A 
ATOM      2  C   UNL     1       1.169   8.782  20.272  0.00  0.00    +0.000 A 
ATOM      3  C   UNL     1       1.843   7.558  20.276  0.00  0.00    +0.000 A 
ATOM      4  C   UNL     1       2.537   7.136  19.140  0.00  0.00    +0.000 A 
ATOM      5  C   UNL     1       2.562   7.957  18.011  0.00  0.00    +0.000 A 
ATOM      6  C   UNL     1       1.848   9.163  18.005  0.00  0.00    +0.000 A 
ENDROOT
BRANCH   1  13
ATOM      7  C   UNL     1      -0.914  10.920  18.247  0.00  0.00    +0.000 A 
ATOM      8  C   UNL     1      -1.547  12.148  18.341  0.00  0.00    +0.000 A 
ATOM      9  N   UNL     1      -1.110  13.185  19.074  0.00  0.00    +0.000 NA
ATOM     10  C   UNL     1       0.017  12.984  19.766  0.00  0.00    +0.000 A 
ATOM     11  C   UNL     1       0.555  14.123  20.572  0.00  0.00    +0.000 C 
ATOM     12  N   UNL     1       0.701  11.826  19.786  0.00  0.00    +0.000 NA
ATOM     13  C   UNL     1       0.231  10.793  19.039  0.00  0.00    +0.000 A 
BRANCH   7  14
ATOM     14  C   UNL     1      -1.479   9.821  17.378  0.00  0.00    +0.000 C 
BRANCH  14  16
ATOM     15  C   UNL     1      -2.902  10.192  15.302  0.00  0.00    +0.000 C 
ATOM     16  C   UNL     1      -2.893   9.990  16.810  0.00  0.00    +0.000 C 
ENDBRANCH  14  16
ENDBRANCH   7  14
ENDBRANCH   1  13
BRANCH   4  17
ATOM     17  C   UNL     1       3.211   5.812  19.091  0.00  0.00    +0.000 C 
ATOM     18  O   UNL     1       3.297   5.115  20.095  0.00  0.00    +0.000 OA
ATOM     19  N   UNL     1       3.715   5.435  17.871  0.00  0.00    +0.000 N 
ATOM     20  H   UNL     1       3.566   5.988  17.037  0.00  0.00    +0.000 HD
BRANCH  19  21
ATOM     21  C   UNL     1       4.475   4.221  17.723  0.00  0.00    +0.000 C 
BRANCH  21  22
ATOM     22  C   UNL     1       5.508   4.430  16.677  0.00  0.00    +0.000 A 
ATOM     23  N   UNL     1       5.586   3.800  15.517  0.00  0.00    +0.000 NA
ATOM     24  N   UNL     1       6.698   4.255  14.855  0.00  0.00    +0.000 NA
ATOM     25  C   UNL     1       7.277   5.149  15.620  0.00  0.00    +0.000 A 
ATOM     26  N   UNL     1       6.562   5.309  16.769  0.00  0.00    +0.000 N 
BRANCH  26  27
ATOM     27  C   UNL     1       6.867   6.198  17.881  0.00  0.00    +0.000 C 
ATOM     28  C   UNL     1       7.730   5.492  18.925  0.00  0.00    +0.000 C 
ATOM     29  C   UNL     1       7.515   7.514  17.442  0.00  0.00    +0.000 C 
ENDBRANCH  26  27
ENDBRANCH  21  22
ENDBRANCH  19  21
ENDBRANCH   4  17
TORSDOF 7
ENDMDL
MODEL 3
REMARK VINA RESULT:      -8.0      1.094      1.437
REMARK  Name = 
REMARK  11 active torsions:
REMARK  status: ('A' for Active; 'I' for Inactive)
REMARK    1  A    between atoms: C_1  and  C_2
REMARK    2  A    between atoms: C_2  and  C_3
REMARK    3  A    between atoms: C_3  and  C_4
REMARK    4  A    between atoms: C_7  and  C_8
REMARK    5  A    between atoms: C_10  and  C_11
REMARK    6  A    between atoms: C_14  and  C_15
REMARK    7  A    between atoms: N_17  and  C_18
REMARK    8  A    between atoms: C_18  and  C_19
REMARK    9  A    between atoms: N_23  and  C_24
REMARK   10  A    between atoms: C_24  and  C_25
REMARK   11  A    between atoms: C_24  and  C_26
REMARK                            x       y       z     vdW  Elec       q    Type
REMARK                         _______ _______ _______ _____ _____    ______ ____
ROOT
ATOM      1  C   UNL     1       1.011   9.682  19.560  0.00  0.00    +0.000 A 
ATOM      2  C   UNL     1       1.034   8.882  20.715  0.00  0.00    +0.000 A 
ATOM      3  C   UNL     1       1.595   7.602  20.712  0.00  0.00    +0.000 A 
ATOM      4  C   UNL     1       2.234   7.118  19.569  0.00  0.00    +0.000 A 
ATOM      5  C   UNL     1       2.318   7.932  18.438  0.00  0.00    +0.000 A 
ATOM      6  C   UNL     1       1.715   9.198  18.438  0.00  0.00    +0.000 A 
ENDROOT
BRANCH   1  13
ATOM      7  C   UNL     1      -0.792  11.239  18.615  0.00  0.00    +0.000 A 
ATOM      8  C   UNL     1      -1.328  12.510  18.735  0.00  0.00    +0.000 A 
ATOM      9  N   UNL     1      -0.873  13.462  19.567  0.00  0.00    +0.000 NA
ATOM     10  C   UNL     1       0.169  13.124  20.335  0.00  0.00    +0.000 A 
ATOM     11  C   UNL     1       0.726  14.165  21.253  0.00  0.00    +0.000 C 
ATOM     12  N   UNL     1       0.752  11.912  20.336  0.00  0.00    +0.000 NA
ATOM     13  C   UNL     1       0.266  10.968  19.489  0.00  0.00    +0.000 A 
BRANCH   7  14
ATOM     14  C   UNL     1      -1.366  10.245  17.634  0.00  0.00    +0.000 C 
BRANCH  14  16
ATOM     15  C   UNL     1      -3.852  10.524  17.171  0.00  0.00    +0.000 C 
ATOM     16  C   UNL     1      -2.782   9.708  17.880  0.00  0.00    +0.000 C 
ENDBRANCH  14  16
ENDBRANCH   7  14
ENDBRANCH   1  13
BRANCH   4  17
ATOM     17  C   UNL     1       2.784   5.739  19.514  0.00  0.00    +0.000 C 
ATOM     18  O   UNL     1       2.786   5.025  20.510  0.00  0.00    +0.000 OA
ATOM     19  N   UNL     1       3.276   5.331  18.299  0.00  0.00    +0.000 N 
ATOM     20  H   UNL     1       3.195   5.906  17.470  0.00  0.00    +0.000 HD
BRANCH  19  21
ATOM     21  C   UNL     1       3.925   4.055  18.149  0.00  0.00    +0.000 C 
BRANCH  21  22
ATOM     22  C   UNL     1       5.390   4.274  18.047  0.00  0.00    +0.000 A 
ATOM     23  N   UNL     1       6.251   4.282  19.051  0.00  0.00    +0.000 NA
ATOM     24  N   UNL     1       7.497   4.551  18.545  0.00  0.00    +0.000 NA
ATOM     25  C   UNL     1       7.374   4.705  17.248  0.00  0.00    +0.000 A 
ATOM     26  N   UNL     1       6.075   4.526  16.882  0.00  0.00    +0.000 N 
BRANCH  26  27
ATOM     27  C   UNL     1       5.517   4.615  15.539  0.00  0.00    +0.000 C 
ATOM     28  C   UNL     1       5.233   6.068  15.162  0.00  0.00    +0.000 C 
ATOM     29  C   UNL     1       6.387   3.939  14.477  0.00  0.00    +0.000 C 
ENDBRANCH  26  27
ENDBRANCH  21  22
ENDBRANCH  19  21
ENDBRANCH   4  17
TORSDOF 7
ENDMDL
MODEL 4
REMARK VINA RESULT:      -8.0      1.117      1.844
REMARK  Name = 
REMARK  11 active torsions:
REMARK  status: ('A' for Active; 'I' for Inactive)
REMARK    1  A    between atoms: C_1  and  C_2
REMARK    2  A    between atoms: C_2  and  C_3
REMARK    3  A    between atoms: C_3  and  C_4
REMARK    4  A    between atoms: C_7  and  C_8
REMARK    5  A    between atoms: C_10  and  C_11
REMARK    6  A    between atoms: C_14  and  C_15
REMARK    7  A    between atoms: N_17  and  C_18
REMARK    8  A    between atoms: C_18  and  C_19
REMARK    9  A    between atoms: N_23  and  C_24
REMARK   10  A    between atoms: C_24  and  C_25
REMARK   11  A    between atoms: C_24  and  C_26
REMARK                            x       y       z     vdW  Elec       q    Type
REMARK                         _______ _______ _______ _____ _____    ______ ____
ROOT
ATOM      1  C   UNL     1       1.176   9.676  18.943  0.00  0.00    +0.000 A 
ATOM      2  C   UNL     1       1.722   9.111  17.780  0.00  0.00    +0.000 A 
ATOM      3  C   UNL     1       2.408   7.894  17.804  0.00  0.00    +0.000 A 
ATOM      4  C   UNL     1       2.488   7.158  18.988  0.00  0.00    +0.000 A 
ATOM      5  C   UNL     1       1.865   7.645  20.139  0.00  0.00    +0.000 A 
ATOM      6  C   UNL     1       1.216   8.888  20.112  0.00  0.00    +0.000 A 
ENDROOT
BRANCH   1  13
ATOM      7  C   UNL     1      -0.730  11.371  18.694  0.00  0.00    +0.000 A 
ATOM      8  C   UNL     1      -1.030  12.720  18.792  0.00  0.00    +0.000 A 
ATOM      9  N   UNL     1      -0.142  13.687  19.077  0.00  0.00    +0.000 NA
ATOM     10  C   UNL     1       1.116  13.287  19.291  0.00  0.00    +0.000 A 
ATOM     11  C   UNL     1       2.143  14.336  19.580  0.00  0.00    +0.000 C 
ATOM     12  N   UNL     1       1.523  12.005  19.261  0.00  0.00    +0.000 NA
ATOM     13  C   UNL     1       0.601  11.049  18.977  0.00  0.00    +0.000 A 
BRANCH   7  14
ATOM     14  C   UNL     1      -1.800  10.362  18.350  0.00  0.00    +0.000 C 
BRANCH  14  16
ATOM     15  C   UNL     1      -3.308  10.114  16.317  0.00  0.00    +0.000 C 
ATOM     16  C   UNL     1      -1.920   9.889  16.896  0.00  0.00    +0.000 C 
ENDBRANCH  14  16
ENDBRANCH   7  14
ENDBRANCH   1  13
BRANCH   4  17
ATOM     17  C   UNL     1       3.262   5.892  19.062  0.00  0.00    +0.000 C 
ATOM     18  O   UNL     1       3.519   5.376  20.144  0.00  0.00    +0.000 OA
ATOM     19  N   UNL     1       3.658   5.353  17.863  0.00  0.00    +0.000 N 
ATOM     20  H   UNL     1       3.370   5.752  16.978  0.00  0.00    +0.000 HD
BRANCH  19  21
ATOM     21  C   UNL     1       4.497   4.184  17.812  0.00  0.00    +0.000 C 
BRANCH  21  22
ATOM     22  C   UNL     1       5.526   4.383  16.759  0.00  0.00    +0.000 A 
ATOM     23  N   UNL     1       5.609   3.727  15.614  0.00  0.00    +0.000 NA
ATOM     24  N   UNL     1       6.714   4.180  14.939  0.00  0.00    +0.000 NA
ATOM     25  C   UNL     1       7.284   5.098  15.683  0.00  0.00    +0.000 A 
ATOM     26  N   UNL     1       6.570   5.275  16.829  0.00  0.00    +0.000 N 
BRANCH  26  27
ATOM     27  C   UNL     1       6.866   6.193  17.920  0.00  0.00    +0.000 C 
ATOM     28  C   UNL     1       7.763   5.529  18.964  0.00  0.00    +0.000 C 
ATOM     29  C   UNL     1       7.472   7.517  17.448  0.00  0.00    +0.000 C 
ENDBRANCH  26  27
ENDBRANCH  21  22
ENDBRANCH  19  21
ENDBRANCH   4  17
TORSDOF 7
ENDMDL
MODEL 5
REMARK VINA RESULT:      -7.8      2.312      3.358
REMARK  Name = 
REMARK  11 active torsions:
REMARK  status: ('A' for Active; 'I' for Inactive)
REMARK    1  A    between atoms: C_1  and  C_2
REMARK    2  A    between atoms: C_2  and  C_3
REMARK    3  A    between atoms: C_3  and  C_4
REMARK    4  A    between atoms: C_7  and  C_8
REMARK    5  A    between atoms: C_10  and  C_11
REMARK    6  A    between atoms: C_14  and  C_15
REMARK    7  A    between atoms: N_17  and  C_18
REMARK    8  A    between atoms: C_18  and  C_19
REMARK    9  A    between atoms: N_23  and  C_24
REMARK   10  A    between atoms: C_24  and  C_25
REMARK   11  A    between atoms: C_24  and  C_26
REMARK                            x       y       z     vdW  Elec       q    Type
REMARK                         _______ _______ _______ _____ _____    ______ ____
ROOT
ATOM      1  C   UNL     1       0.924   9.807  19.189  0.00  0.00    +0.000 A 
ATOM      2  C   UNL     1       1.454   9.564  17.911  0.00  0.00    +0.000 A 
ATOM      3  C   UNL     1       2.308   8.487  17.661  0.00  0.00    +0.000 A 
ATOM      4  C   UNL     1       2.585   7.563  18.671  0.00  0.00    +0.000 A 
ATOM      5  C   UNL     1       1.990   7.721  19.923  0.00  0.00    +0.000 A 
ATOM      6  C   UNL     1       1.168   8.828  20.175  0.00  0.00    +0.000 A 
ENDROOT
BRANCH   1  13
ATOM      7  C   UNL     1      -1.126  11.340  19.062  0.00  0.00    +0.000 A 
ATOM      8  C   UNL     1      -1.630  12.550  19.508  0.00  0.00    +0.000 A 
ATOM      9  N   UNL     1      -0.960  13.428  20.274  0.00  0.00    +0.000 NA
ATOM     10  C   UNL     1       0.279  13.074  20.629  0.00  0.00    +0.000 A 
ATOM     11  C   UNL     1       1.071  14.036  21.456  0.00  0.00    +0.000 C 
ATOM     12  N   UNL     1       0.865  11.911  20.291  0.00  0.00    +0.000 NA
ATOM     13  C   UNL     1       0.161  11.041  19.521  0.00  0.00    +0.000 A 
BRANCH   7  14
ATOM     14  C   UNL     1      -1.955  10.430  18.188  0.00  0.00    +0.000 C 
BRANCH  14  16
ATOM     15  C   UNL     1      -2.705  10.009  15.794  0.00  0.00    +0.000 C 
ATOM     16  C   UNL     1      -2.606  11.017  16.929  0.00  0.00    +0.000 C 
ENDBRANCH  14  16
ENDBRANCH   7  14
ENDBRANCH   1  13
BRANCH   4  17
ATOM     17  C   UNL     1       3.538   6.443  18.455  0.00  0.00    +0.000 C 
ATOM     18  O   UNL     1       3.950   6.178  17.331  0.00  0.00    +0.000 OA
ATOM     19  N   UNL     1       3.915   5.744  19.575  0.00  0.00    +0.000 N 
ATOM     20  H   UNL     1       3.625   6.026  20.503  0.00  0.00    +0.000 HD
BRANCH  19  21
ATOM     21  C   UNL     1       4.753   4.578  19.478  0.00  0.00    +0.000 C 
BRANCH  21  22
ATOM     22  C   UNL     1       3.927   3.435  19.012  0.00  0.00    +0.000 A 
ATOM     23  N   UNL     1       4.168   2.673  17.959  0.00  0.00    +0.000 NA
ATOM     24  N   UNL     1       3.155   1.755  17.853  0.00  0.00    +0.000 NA
ATOM     25  C   UNL     1       2.316   1.973  18.837  0.00  0.00    +0.000 A 
ATOM     26  N   UNL     1       2.761   3.007  19.604  0.00  0.00    +0.000 N 
BRANCH  26  27
ATOM     27  C   UNL     1       2.121   3.568  20.786  0.00  0.00    +0.000 C 
ATOM     28  C   UNL     1       0.858   4.340  20.408  0.00  0.00    +0.000 C 
ATOM     29  C   UNL     1       1.816   2.522  21.862  0.00  0.00    +0.000 C 
ENDBRANCH  26  27
ENDBRANCH  21  22
ENDBRANCH  19  21
ENDBRANCH   4  17
TORSDOF 7
ENDMDL
MODEL 6
REMARK VINA RESULT:      -7.8      2.717      4.286
REMARK  Name = 
REMARK  11 active torsions:
REMARK  status: ('A' for Active; 'I' for Inactive)
REMARK    1  A    between atoms: C_1  and  C_2
REMARK    2  A    between atoms: C_2  and  C_3
REMARK    3  A    between atoms: C_3  and  C_4
REMARK    4  A    between atoms: C_7  and  C_8
REMARK    5  A    between atoms: C_10  and  C_11
REMARK    6  A    between atoms: C_14  and  C_15
REMARK    7  A    between atoms: N_17  and  C_18
REMARK    8  A    between atoms: C_18  and  C_19
REMARK    9  A    between atoms: N_23  and  C_24
REMARK   10  A    between atoms: C_24  and  C_25
REMARK   11  A    between atoms: C_24  and  C_26
REMARK                            x       y       z     vdW  Elec       q    Type
REMARK                         _______ _______ _______ _____ _____    ______ ____
ROOT
ATOM      1  C   UNL     1       0.449   9.681  19.078  0.00  0.00    +0.000 A 
ATOM      2  C   UNL     1       0.872   8.853  20.130  0.00  0.00    +0.000 A 
ATOM      3  C   UNL     1       1.853   7.875  19.948  0.00  0.00    +0.000 A 
ATOM      4  C   UNL     1       2.508   7.758  18.720  0.00  0.00    +0.000 A 
ATOM      5  C   UNL     1       2.181   8.636  17.686  0.00  0.00    +0.000 A 
ATOM      6  C   UNL     1       1.166   9.586  17.867  0.00  0.00    +0.000 A 
ENDROOT
BRANCH   1  13
ATOM      7  C   UNL     1      -0.998  11.398  20.313  0.00  0.00    +0.000 A 
ATOM      8  C   UNL     1      -2.137  12.176  20.190  0.00  0.00    +0.000 A 
ATOM      9  N   UNL     1      -2.965  12.166  19.133  0.00  0.00    +0.000 NA
ATOM     10  C   UNL     1      -2.634  11.343  18.132  0.00  0.00    +0.000 A 
ATOM     11  C   UNL     1      -3.547  11.279  16.949  0.00  0.00    +0.000 C 
ATOM     12  N   UNL     1      -1.535  10.567  18.118  0.00  0.00    +0.000 NA
ATOM     13  C   UNL     1      -0.713  10.603  19.198  0.00  0.00    +0.000 A 
BRANCH   7  14
ATOM     14  C   UNL     1      -0.140  11.470  21.554  0.00  0.00    +0.000 C 
BRANCH  14  16
ATOM     15  C   UNL     1      -0.386   9.635  23.299  0.00  0.00    +0.000 C 
ATOM     16  C   UNL     1      -0.756  11.054  22.895  0.00  0.00    +0.000 C 
ENDBRANCH  14  16
ENDBRANCH   7  14
ENDBRANCH   1  13
BRANCH   4  17
ATOM     17  C   UNL     1       3.511   6.688  18.476  0.00  0.00    +0.000 C 
ATOM     18  O   UNL     1       4.030   6.555  17.374  0.00  0.00    +0.000 OA
ATOM     19  N   UNL     1       3.809   5.882  19.546  0.00  0.00    +0.000 N 
ATOM     20  H   UNL     1       3.428   6.056  20.468  0.00  0.00    +0.000 HD
BRANCH  19  21
ATOM     21  C   UNL     1       4.689   4.751  19.405  0.00  0.00    +0.000 C 
BRANCH  21  22
ATOM     22  C   UNL     1       3.895   3.587  18.935  0.00  0.00    +0.000 A 
ATOM     23  N   UNL     1       4.137   2.859  17.858  0.00  0.00    +0.000 NA
ATOM     24  N   UNL     1       3.159   1.903  17.757  0.00  0.00    +0.000 NA
ATOM     25  C   UNL     1       2.340   2.066  18.768  0.00  0.00    +0.000 A 
ATOM     26  N   UNL     1       2.764   3.099  19.547  0.00  0.00    +0.000 N 
BRANCH  26  27
ATOM     27  C   UNL     1       2.136   3.608  20.758  0.00  0.00    +0.000 C 
ATOM     28  C   UNL     1       0.838   4.345  20.432  0.00  0.00    +0.000 C 
ATOM     29  C   UNL     1       1.893   2.524  21.813  0.00  0.00    +0.000 C 
ENDBRANCH  26  27
ENDBRANCH  21  22
ENDBRANCH  19  21
ENDBRANCH   4  17
TORSDOF 7
ENDMDL
MODEL 7
REMARK VINA RESULT:      -7.8      2.261      8.567
REMARK  Name = 
REMARK  11 active torsions:
REMARK  status: ('A' for Active; 'I' for Inactive)
REMARK    1  A    between atoms: C_1  and  C_2
REMARK    2  A    between atoms: C_2  and  C_3
REMARK    3  A    between atoms: C_3  and  C_4
REMARK    4  A    between atoms: C_7  and  C_8
REMARK    5  A    between atoms: C_10  and  C_11
REMARK    6  A    between atoms: C_14  and  C_15
REMARK    7  A    between atoms: N_17  and  C_18
REMARK    8  A    between atoms: C_18  and  C_19
REMARK    9  A    between atoms: N_23  and  C_24
REMARK   10  A    between atoms: C_24  and  C_25
REMARK   11  A    between atoms: C_24  and  C_26
REMARK                            x       y       z     vdW  Elec       q    Type
REMARK                         _______ _______ _______ _____ _____    ______ ____
ROOT
ATOM      1  C   UNL     1       2.572   7.297  18.479  0.00  0.00    +0.000 A 
ATOM      2  C   UNL     1       2.182   7.339  19.827  0.00  0.00    +0.000 A 
ATOM      3  C   UNL     1       1.488   8.430  20.359  0.00  0.00    +0.000 A 
ATOM      4  C   UNL     1       1.083   9.476  19.528  0.00  0.00    +0.000 A 
ATOM      5  C   UNL     1       1.366   9.413  18.163  0.00  0.00    +0.000 A 
ATOM      6  C   UNL     1       2.100   8.334  17.648  0.00  0.00    +0.000 A 
ENDROOT
BRANCH   1  13
ATOM      7  C   UNL     1       3.070   4.925  17.645  0.00  0.00    +0.000 A 
ATOM      8  C   UNL     1       4.077   4.119  17.144  0.00  0.00    +0.000 A 
ATOM      9  N   UNL     1       5.356   4.497  16.979  0.00  0.00    +0.000 NA
ATOM     10  C   UNL     1       5.646   5.758  17.320  0.00  0.00    +0.000 A 
ATOM     11  C   UNL     1       7.065   6.210  17.182  0.00  0.00    +0.000 C 
ATOM     12  N   UNL     1       4.748   6.647  17.783  0.00  0.00    +0.000 NA
ATOM     13  C   UNL     1       3.462   6.237  17.933  0.00  0.00    +0.000 A 
BRANCH   7  14
ATOM     14  C   UNL     1       1.664   4.398  17.809  0.00  0.00    +0.000 C 
BRANCH  14  16
ATOM     15  C   UNL     1       0.951   3.879  20.195  0.00  0.00    +0.000 C 
ATOM     16  C   UNL     1       1.407   3.311  18.860  0.00  0.00    +0.000 C 
ENDBRANCH  14  16
ENDBRANCH   7  14
ENDBRANCH   1  13
BRANCH   4  17
ATOM     17  C   UNL     1       0.399  10.678  20.073  0.00  0.00    +0.000 C 
ATOM     18  O   UNL     1      -0.474  10.569  20.927  0.00  0.00    +0.000 OA
ATOM     19  N   UNL     1       0.806  11.887  19.567  0.00  0.00    +0.000 N 
ATOM     20  H   UNL     1       1.581  11.962  18.921  0.00  0.00    +0.000 HD
BRANCH  19  21
ATOM     21  C   UNL     1       0.148  13.111  19.945  0.00  0.00    +0.000 C 
BRANCH  21  22
ATOM     22  C   UNL     1       1.113  13.959  20.692  0.00  0.00    +0.000 A 
ATOM     23  N   UNL     1       1.287  13.976  22.002  0.00  0.00    +0.000 NA
ATOM     24  N   UNL     1       2.243  14.915  22.295  0.00  0.00    +0.000 NA
ATOM     25  C   UNL     1       2.631  15.453  21.164  0.00  0.00    +0.000 A 
ATOM     26  N   UNL     1       1.965  14.878  20.125  0.00  0.00    +0.000 N 
BRANCH  26  27
ATOM     27  C   UNL     1       2.098  15.192  18.709  0.00  0.00    +0.000 C 
ATOM     28  C   UNL     1       2.065  16.702  18.479  0.00  0.00    +0.000 C 
ATOM     29  C   UNL     1       3.343  14.573  18.068  0.00  0.00    +0.000 C 
ENDBRANCH  26  27
ENDBRANCH  21  22
ENDBRANCH  19  21
ENDBRANCH   4  17
TORSDOF 7
ENDMDL
MODEL 8
REMARK VINA RESULT:      -7.8      2.676      9.272
REMARK  Name = 
REMARK  11 active torsions:
REMARK  status: ('A' for Active; 'I' for Inactive)
REMARK    1  A    between atoms: C_1  and  C_2
REMARK    2  A    between atoms: C_2  and  C_3
REMARK    3  A    between atoms: C_3  and  C_4
REMARK    4  A    between atoms: C_7  and  C_8
REMARK    5  A    between atoms: C_10  and  C_11
REMARK    6  A    between atoms: C_14  and  C_15
REMARK    7  A    between atoms: N_17  and  C_18
REMARK    8  A    between atoms: C_18  and  C_19
REMARK    9  A    between atoms: N_23  and  C_24
REMARK   10  A    between atoms: C_24  and  C_25
REMARK   11  A    between atoms: C_24  and  C_26
REMARK                            x       y       z     vdW  Elec       q    Type
REMARK                         _______ _______ _______ _____ _____    ______ ____
ROOT
ATOM      1  C   UNL     1       2.613   6.995  18.549  0.00  0.00    +0.000 A 
ATOM      2  C   UNL     1       2.212   7.057  19.893  0.00  0.00    +0.000 A 
ATOM      3  C   UNL     1       1.559   8.176  20.416  0.00  0.00    +0.000 A 
ATOM      4  C   UNL     1       1.204   9.236  19.578  0.00  0.00    +0.000 A 
ATOM      5  C   UNL     1       1.497   9.156  18.216  0.00  0.00    +0.000 A 
ATOM      6  C   UNL     1       2.190   8.047  17.710  0.00  0.00    +0.000 A 
ENDROOT
BRANCH   1  13
ATOM      7  C   UNL     1       3.005   4.627  17.650  0.00  0.00    +0.000 A 
ATOM      8  C   UNL     1       3.987   3.773  17.177  0.00  0.00    +0.000 A 
ATOM      9  N   UNL     1       5.295   4.070  17.104  0.00  0.00    +0.000 NA
ATOM     10  C   UNL     1       5.645   5.294  17.514  0.00  0.00    +0.000 A 
ATOM     11  C   UNL     1       7.097   5.654  17.479  0.00  0.00    +0.000 C 
ATOM     12  N   UNL     1       4.781   6.224  17.958  0.00  0.00    +0.000 NA
ATOM     13  C   UNL     1       3.464   5.897  18.014  0.00  0.00    +0.000 A 
BRANCH   7  14
ATOM     14  C   UNL     1       1.560   4.190  17.708  0.00  0.00    +0.000 C 
BRANCH  14  16
ATOM     15  C   UNL     1       1.022   3.688  20.143  0.00  0.00    +0.000 C 
ATOM     16  C   UNL     1       1.157   3.126  18.736  0.00  0.00    +0.000 C 
ENDBRANCH  14  16
ENDBRANCH   7  14
ENDBRANCH   1  13
BRANCH   4  17
ATOM     17  C   UNL     1       0.565  10.466  20.113  0.00  0.00    +0.000 C 
ATOM     18  O   UNL     1       0.458  10.642  21.322  0.00  0.00    +0.000 OA
ATOM     19  N   UNL     1       0.116  11.369  19.182  0.00  0.00    +0.000 N 
ATOM     20  H   UNL     1       0.283  11.243  18.192  0.00  0.00    +0.000 HD
BRANCH  19  21
ATOM     21  C   UNL     1      -0.608  12.549  19.578  0.00  0.00    +0.000 C 
BRANCH  21  22
ATOM     22  C   UNL     1      -2.061  12.302  19.388  0.00  0.00    +0.000 A 
ATOM     23  N   UNL     1      -2.624  11.721  18.342  0.00  0.00    +0.000 NA
ATOM     24  N   UNL     1      -3.982  11.714  18.536  0.00  0.00    +0.000 NA
ATOM     25  C   UNL     1      -4.221  12.290  19.689  0.00  0.00    +0.000 A 
ATOM     26  N   UNL     1      -3.049  12.663  20.273  0.00  0.00    +0.000 N 
BRANCH  26  27
ATOM     27  C   UNL     1      -2.875  13.337  21.552  0.00  0.00    +0.000 C 
ATOM     28  C   UNL     1      -4.044  14.279  21.836  0.00  0.00    +0.000 C 
ATOM     29  C   UNL     1      -2.662  12.370  22.720  0.00  0.00    +0.000 C 
ENDBRANCH  26  27
ENDBRANCH  21  22
ENDBRANCH  19  21
ENDBRANCH   4  17
TORSDOF 7
ENDMDL
MODEL 9
REMARK VINA RESULT:      -7.7      2.178      8.706
REMARK  Name = 
REMARK  11 active torsions:
REMARK  status: ('A' for Active; 'I' for Inactive)
REMARK    1  A    between atoms: C_1  and  C_2
REMARK    2  A    between atoms: C_2  and  C_3
REMARK    3  A    between atoms: C_3  and  C_4
REMARK    4  A    between atoms: C_7  and  C_8
REMARK    5  A    between atoms: C_10  and  C_11
REMARK    6  A    between atoms: C_14  and  C_15
REMARK    7  A    between atoms: N_17  and  C_18
REMARK    8  A    between atoms: C_18  and  C_19
REMARK    9  A    between atoms: N_23  and  C_24
REMARK   10  A    between atoms: C_24  and  C_25
REMARK   11  A    between atoms: C_24  and  C_26
REMARK                            x       y       z     vdW  Elec       q    Type
REMARK                         _______ _______ _______ _____ _____    ______ ____
ROOT
ATOM      1  C   UNL     1       2.833   6.996  18.450  0.00  0.00    +0.000 A 
ATOM      2  C   UNL     1       2.508   8.136  17.698  0.00  0.00    +0.000 A 
ATOM      3  C   UNL     1       1.678   9.140  18.203  0.00  0.00    +0.000 A 
ATOM      4  C   UNL     1       1.219   9.073  19.520  0.00  0.00    +0.000 A 
ATOM      5  C   UNL     1       1.611   8.004  20.327  0.00  0.00    +0.000 A 
ATOM      6  C   UNL     1       2.410   6.981  19.796  0.00  0.00    +0.000 A 
ENDROOT
BRANCH   1  13
ATOM      7  C   UNL     1       2.998   4.591  17.580  0.00  0.00    +0.000 A 
ATOM      8  C   UNL     1       3.881   3.666  17.050  0.00  0.00    +0.000 A 
ATOM      9  N   UNL     1       5.194   3.875  16.863  0.00  0.00    +0.000 NA
ATOM     10  C   UNL     1       5.655   5.081  17.213  0.00  0.00    +0.000 A 
ATOM     11  C   UNL     1       7.118   5.344  17.051  0.00  0.00    +0.000 C 
ATOM     12  N   UNL     1       4.891   6.074  17.704  0.00  0.00    +0.000 NA
ATOM     13  C   UNL     1       3.565   5.835  17.875  0.00  0.00    +0.000 A 
BRANCH   7  14
ATOM     14  C   UNL     1       1.538   4.252  17.766  0.00  0.00    +0.000 C 
BRANCH  14  16
ATOM     15  C   UNL     1       0.946   3.659  20.168  0.00  0.00    +0.000 C 
ATOM     16  C   UNL     1       1.164   3.140  18.755  0.00  0.00    +0.000 C 
ENDBRANCH  14  16
ENDBRANCH   7  14
ENDBRANCH   1  13
BRANCH   4  17
ATOM     17  C   UNL     1       0.285  10.092  20.068  0.00  0.00    +0.000 C 
ATOM     18  O   UNL     1      -0.403   9.847  21.052  0.00  0.00    +0.000 OA
ATOM     19  N   UNL     1       0.250  11.296  19.410  0.00  0.00    +0.000 N 
ATOM     20  H   UNL     1       0.881  11.507  18.647  0.00  0.00    +0.000 HD
BRANCH  19  21
ATOM     21  C   UNL     1      -0.687  12.323  19.786  0.00  0.00    +0.000 C 
BRANCH  21  22
ATOM     22  C   UNL     1       0.000  13.290  20.680  0.00  0.00    +0.000 A 
ATOM     23  N   UNL     1       0.039  13.243  22.000  0.00  0.00    +0.000 NA
ATOM     24  N   UNL     1       0.743  14.332  22.448  0.00  0.00    +0.000 NA
ATOM     25  C   UNL     1       1.116  15.022  21.397  0.00  0.00    +0.000 A 
ATOM     26  N   UNL     1       0.690  14.404  20.261  0.00  0.00    +0.000 N 
BRANCH  26  27
ATOM     27  C   UNL     1       0.890  14.845  18.887  0.00  0.00    +0.000 C 
ATOM     28  C   UNL     1       0.427  16.289  18.705  0.00  0.00    +0.000 C 
ATOM     29  C   UNL     1       2.332  14.673  18.402  0.00  0.00    +0.000 C 
ENDBRANCH  26  27
ENDBRANCH  21  22
ENDBRANCH  19  21
ENDBRANCH   4  17
TORSDOF 7
ENDMDL
