MODEL 1
REMARK VINA RESULT:      -6.8      0.000      0.000
REMARK  Name = 
REMARK  11 active torsions:
REMARK  status: ('A' for Active; 'I' for Inactive)
REMARK    1  A    between atoms: C_2  and  C_3
REMARK    2  A    between atoms: C_2  and  C_15
REMARK    3  A    between atoms: C_9  and  C_10
REMARK    4  A    between atoms: C_10  and  O_11
REMARK    5  A    between atoms: N_13  and  C_14
REMARK    6  A    between atoms: C_18  and  O_19
REMARK    7  A    between atoms: O_19  and  C_20
REMARK    8  A    between atoms: C_21  and  O_22
REMARK    9  A    between atoms: O_22  and  C_23
REMARK   10  A    between atoms: C_24  and  O_25
REMARK   11  A    between atoms: O_25  and  C_26
REMARK                            x       y       z     vdW  Elec       q    Type
REMARK                         _______ _______ _______ _____ _____    ______ ____
ROOT
ATOM      1  C   UNL     1       1.283  11.730  19.982  0.00  0.00    +0.000 C 
ATOM      2  C   UNL     1       0.550  10.702  19.517  0.00  0.00    +0.000 C 
ENDROOT
BRANCH   2   3
ATOM      3  C   UNL     1      -0.858  10.992  19.158  0.00  0.00    +0.000 A 
ATOM      4  C   UNL     1      -1.639  11.752  20.029  0.00  0.00    +0.000 A 
ATOM      5  C   UNL     1      -2.950  12.111  19.704  0.00  0.00    +0.000 A 
ATOM      6  C   UNL     1      -3.473  11.688  18.471  0.00  0.00    +0.000 A 
ATOM      7  C   UNL     1      -2.727  10.922  17.568  0.00  0.00    +0.000 A 
ATOM      8  C   UNL     1      -1.401  10.574  17.924  0.00  0.00    +0.000 A 
ATOM      9  C   UNL     1      -3.560  10.685  16.419  0.00  0.00    +0.000 A 
ATOM     10  C   UNL     1      -4.766  11.319  16.664  0.00  0.00    +0.000 A 
ATOM     11  N   UNL     1      -4.704  11.908  17.895  0.00  0.00    +0.000 N 
ATOM     12  C   UNL     1      -5.774  12.672  18.497  0.00  0.00    +0.000 C 
BRANCH   9  13
ATOM     13  C   UNL     1      -3.203   9.933  15.179  0.00  0.00    +0.000 C 
BRANCH  13  14
ATOM     14  O   UNL     1      -4.265   9.928  14.225  0.00  0.00    +0.000 OA
ATOM     15  H   UNL     1      -3.956  10.466  13.477  0.00  0.00    +0.000 HD
ENDBRANCH  13  14
ENDBRANCH   9  13
ENDBRANCH   2   3
BRANCH   2  16
ATOM     16  C   UNL     1       1.262   9.431  19.229  0.00  0.00    +0.000 A 
ATOM     17  C   UNL     1       1.918   9.391  17.997  0.00  0.00    +0.000 A 
ATOM     18  C   UNL     1       2.662   8.284  17.623  0.00  0.00    +0.000 A 
ATOM     19  C   UNL     1       2.751   7.165  18.459  0.00  0.00    +0.000 A 
ATOM     20  C   UNL     1       2.114   7.172  19.723  0.00  0.00    +0.000 A 
ATOM     21  C   UNL     1       1.376   8.329  20.119  0.00  0.00    +0.000 A 
BRANCH  19  22
ATOM     22  O   UNL     1       3.512   6.088  18.082  0.00  0.00    +0.000 OA
ATOM     23  C   UNL     1       4.817   6.377  17.590  0.00  0.00    +0.000 C 
ENDBRANCH  19  22
BRANCH  20  24
ATOM     24  O   UNL     1       2.116   6.123  20.612  0.00  0.00    +0.000 OA
ATOM     25  C   UNL     1       1.212   5.038  20.458  0.00  0.00    +0.000 C 
ENDBRANCH  20  24
BRANCH  21  26
ATOM     26  O   UNL     1       0.698   8.487  21.318  0.00  0.00    +0.000 OA
ATOM     27  C   UNL     1       1.380   9.076  22.414  0.00  0.00    +0.000 C 
ENDBRANCH  21  26
ENDBRANCH   2  16
TORSDOF 7
ENDMDL
MODEL 2
REMARK VINA RESULT:      -6.7      0.949      1.115
REMARK  Name = 
REMARK  11 active torsions:
REMARK  status: ('A' for Active; 'I' for Inactive)
REMARK    1  A    between atoms: C_2  and  C_3
REMARK    2  A    between atoms: C_2  and  C_15
REMARK    3  A    between atoms: C_9  and  C_10
REMARK    4  A    between atoms: C_10  and  O_11
REMARK    5  A    between atoms: N_13  and  C_14
REMARK    6  A    between atoms: C_18  and  O_19
REMARK    7  A    between atoms: O_19  and  C_20
REMARK    8  A    between atoms: C_21  and  O_22
REMARK    9  A    between atoms: O_22  and  C_23
REMARK   10  A    between atoms: C_24  and  O_25
REMARK   11  A    between atoms: O_25  and  C_26
REMARK                            x       y       z     vdW  Elec       q    Type
REMARK                         _______ _______ _______ _____ _____    ______ ____
ROOT
ATOM      1  C   UNL     1       2.319  11.024  18.282  0.00  0.00    +0.000 C 
ATOM      2  C   UNL     1       1.451  10.037  18.571  0.00  0.00    +0.000 C 
ENDROOT
BRANCH   2   3
ATOM      3  C   UNL     1       0.012  10.392  18.577  0.00  0.00    +0.000 A 
ATOM      4  C   UNL     1      -0.506  11.111  19.655  0.00  0.00    +0.000 A 
ATOM      5  C   UNL     1      -1.840  11.529  19.675  0.00  0.00    +0.000 A 
ATOM      6  C   UNL     1      -2.657  11.208  18.579  0.00  0.00    +0.000 A 
ATOM      7  C   UNL     1      -2.181  10.487  17.478  0.00  0.00    +0.000 A 
ATOM      8  C   UNL     1      -0.825  10.077  17.486  0.00  0.00    +0.000 A 
ATOM      9  C   UNL     1      -3.271  10.355  16.549  0.00  0.00    +0.000 A 
ATOM     10  C   UNL     1      -4.356  11.004  17.113  0.00  0.00    +0.000 A 
ATOM     11  N   UNL     1      -3.978  11.504  18.327  0.00  0.00    +0.000 N 
ATOM     12  C   UNL     1      -4.841  12.254  19.214  0.00  0.00    +0.000 C 
BRANCH   9  13
ATOM     13  C   UNL     1      -3.251   9.682  15.216  0.00  0.00    +0.000 C 
BRANCH  13  14
ATOM     14  O   UNL     1      -3.334  10.614  14.138  0.00  0.00    +0.000 OA
ATOM     15  H   UNL     1      -2.553  10.453  13.583  0.00  0.00    +0.000 HD
ENDBRANCH  13  14
ENDBRANCH   9  13
ENDBRANCH   2   3
BRANCH   2  16
ATOM     16  C   UNL     1       1.992   8.657  18.668  0.00  0.00    +0.000 A 
ATOM     17  C   UNL     1       2.858   8.291  17.636  0.00  0.00    +0.000 A 
ATOM     18  C   UNL     1       3.473   7.050  17.630  0.00  0.00    +0.000 A 
ATOM     19  C   UNL     1       3.219   6.120  18.644  0.00  0.00    +0.000 A 
ATOM     20  C   UNL     1       2.360   6.458  19.717  0.00  0.00    +0.000 A 
ATOM     21  C   UNL     1       1.755   7.751  19.737  0.00  0.00    +0.000 A 
BRANCH  19  22
ATOM     22  O   UNL     1       3.856   4.906  18.633  0.00  0.00    +0.000 OA
ATOM     23  C   UNL     1       5.013   4.805  17.807  0.00  0.00    +0.000 C 
ENDBRANCH  19  22
BRANCH  20  24
ATOM     24  O   UNL     1       2.024   5.617  20.752  0.00  0.00    +0.000 OA
ATOM     25  C   UNL     1       1.101   4.555  20.554  0.00  0.00    +0.000 C 
ENDBRANCH  20  24
BRANCH  21  26
ATOM     26  O   UNL     1       0.894   8.228  20.713  0.00  0.00    +0.000 OA
ATOM     27  C   UNL     1       1.445   8.836  21.871  0.00  0.00    +0.000 C 
ENDBRANCH  21  26
ENDBRANCH   2  16
TORSDOF 7
ENDMDL
MODEL 3
REMARK VINA RESULT:      -6.7      4.371      8.806
REMARK  Name = 
REMARK  11 active torsions:
REMARK  status: ('A' for Active; 'I' for Inactive)
REMARK    1  A    between atoms: C_2  and  C_3
REMARK    2  A    between atoms: C_2  and  C_15
REMARK    3  A    between atoms: C_9  and  C_10
REMARK    4  A    between atoms: C_10  and  O_11
REMARK    5  A    between atoms: N_13  and  C_14
REMARK    6  A    between atoms: C_18  and  O_19
REMARK    7  A    between atoms: O_19  and  C_20
REMARK    8  A    between atoms: C_21  and  O_22
REMARK    9  A    between atoms: O_22  and  C_23
REMARK   10  A    between atoms: C_24  and  O_25
REMARK   11  A    between atoms: O_25  and  C_26
REMARK                            x       y       z     vdW  Elec       q    Type
REMARK                         _______ _______ _______ _____ _____    ______ ____
ROOT
ATOM      1  C   UNL     1       1.416   4.837  20.652  0.00  0.00    +0.000 C 
ATOM      2  C   UNL     1       2.154   5.782  20.041  0.00  0.00    +0.000 C 
ENDROOT
BRANCH   2   3
ATOM      3  C   UNL     1       3.207   5.312  19.110  0.00  0.00    +0.000 A 
ATOM      4  C   UNL     1       2.834   4.625  17.954  0.00  0.00    +0.000 A 
ATOM      5  C   UNL     1       3.784   4.221  17.011  0.00  0.00    +0.000 A 
ATOM      6  C   UNL     1       5.134   4.523  17.251  0.00  0.00    +0.000 A 
ATOM      7  C   UNL     1       5.554   5.208  18.397  0.00  0.00    +0.000 A 
ATOM      8  C   UNL     1       4.569   5.604  19.335  0.00  0.00    +0.000 A 
ATOM      9  C   UNL     1       6.982   5.356  18.309  0.00  0.00    +0.000 A 
ATOM     10  C   UNL     1       7.369   4.768  17.117  0.00  0.00    +0.000 A 
ATOM     11  N   UNL     1       6.258   4.269  16.498  0.00  0.00    +0.000 N 
ATOM     12  C   UNL     1       6.262   3.588  15.222  0.00  0.00    +0.000 C 
BRANCH   9  13
ATOM     13  C   UNL     1       7.886   6.036  19.284  0.00  0.00    +0.000 C 
BRANCH  13  14
ATOM     14  O   UNL     1       7.914   5.373  20.548  0.00  0.00    +0.000 OA
ATOM     15  H   UNL     1       8.528   4.628  20.447  0.00  0.00    +0.000 HD
ENDBRANCH  13  14
ENDBRANCH   9  13
ENDBRANCH   2   3
BRANCH   2  16
ATOM     16  C   UNL     1       1.726   7.195  20.205  0.00  0.00    +0.000 A 
ATOM     17  C   UNL     1       1.403   7.564  21.512  0.00  0.00    +0.000 A 
ATOM     18  C   UNL     1       1.037   8.865  21.815  0.00  0.00    +0.000 A 
ATOM     19  C   UNL     1       0.953   9.837  20.811  0.00  0.00    +0.000 A 
ATOM     20  C   UNL     1       1.289   9.508  19.476  0.00  0.00    +0.000 A 
ATOM     21  C   UNL     1       1.699   8.173  19.175  0.00  0.00    +0.000 A 
BRANCH  19  22
ATOM     22  O   UNL     1       0.612  11.125  21.135  0.00  0.00    +0.000 OA
ATOM     23  C   UNL     1      -0.613  11.298  21.839  0.00  0.00    +0.000 C 
ENDBRANCH  19  22
BRANCH  20  24
ATOM     24  O   UNL     1       1.222  10.375  18.411  0.00  0.00    +0.000 OA
ATOM     25  C   UNL     1       2.144  11.449  18.289  0.00  0.00    +0.000 C 
ENDBRANCH  20  24
BRANCH  21  26
ATOM     26  O   UNL     1       2.055   7.699  17.922  0.00  0.00    +0.000 OA
ATOM     27  C   UNL     1       3.269   8.151  17.342  0.00  0.00    +0.000 C 
ENDBRANCH  21  26
ENDBRANCH   2  16
TORSDOF 7
ENDMDL
MODEL 4
REMARK VINA RESULT:      -6.5      2.975      7.459
REMARK  Name = 
REMARK  11 active torsions:
REMARK  status: ('A' for Active; 'I' for Inactive)
REMARK    1  A    between atoms: C_2  and  C_3
REMARK    2  A    between atoms: C_2  and  C_15
REMARK    3  A    between atoms: C_9  and  C_10
REMARK    4  A    between atoms: C_10  and  O_11
REMARK    5  A    between atoms: N_13  and  C_14
REMARK    6  A    between atoms: C_18  and  O_19
REMARK    7  A    between atoms: O_19  and  C_20
REMARK    8  A    between atoms: C_21  and  O_22
REMARK    9  A    between atoms: O_22  and  C_23
REMARK   10  A    between atoms: C_24  and  O_25
REMARK   11  A    between atoms: O_25  and  C_26
REMARK                            x       y       z     vdW  Elec       q    Type
REMARK                         _______ _______ _______ _____ _____    ______ ____
ROOT
ATOM      1  C   UNL     1       2.530  10.125  17.825  0.00  0.00    +0.000 C 
ATOM      2  C   UNL     1       1.516   9.446  18.393  0.00  0.00    +0.000 C 
ENDROOT
BRANCH   2   3
ATOM      3  C   UNL     1       1.843   8.128  18.988  0.00  0.00    +0.000 A 
ATOM      4  C   UNL     1       1.393   7.834  20.275  0.00  0.00    +0.000 A 
ATOM      5  C   UNL     1       1.616   6.580  20.852  0.00  0.00    +0.000 A 
ATOM      6  C   UNL     1       2.308   5.614  20.105  0.00  0.00    +0.000 A 
ATOM      7  C   UNL     1       2.779   5.866  18.812  0.00  0.00    +0.000 A 
ATOM      8  C   UNL     1       2.539   7.145  18.252  0.00  0.00    +0.000 A 
ATOM      9  C   UNL     1       3.419   4.664  18.347  0.00  0.00    +0.000 A 
ATOM     10  C   UNL     1       3.303   3.733  19.365  0.00  0.00    +0.000 A 
ATOM     11  N   UNL     1       2.644   4.314  20.411  0.00  0.00    +0.000 N 
ATOM     12  C   UNL     1       2.328   3.649  21.656  0.00  0.00    +0.000 C 
BRANCH   9  13
ATOM     13  C   UNL     1       4.060   4.433  17.018  0.00  0.00    +0.000 C 
BRANCH  13  14
ATOM     14  O   UNL     1       5.030   3.387  17.060  0.00  0.00    +0.000 OA
ATOM     15  H   UNL     1       5.323   3.256  16.144  0.00  0.00    +0.000 HD
ENDBRANCH  13  14
ENDBRANCH   9  13
ENDBRANCH   2   3
BRANCH   2  16
ATOM     16  C   UNL     1       0.218  10.154  18.542  0.00  0.00    +0.000 A 
ATOM     17  C   UNL     1      -0.762   9.784  17.619  0.00  0.00    +0.000 A 
ATOM     18  C   UNL     1      -2.034  10.329  17.675  0.00  0.00    +0.000 A 
ATOM     19  C   UNL     1      -2.360  11.287  18.642  0.00  0.00    +0.000 A 
ATOM     20  C   UNL     1      -1.400  11.677  19.606  0.00  0.00    +0.000 A 
ATOM     21  C   UNL     1      -0.100  11.087  19.565  0.00  0.00    +0.000 A 
BRANCH  19  22
ATOM     22  O   UNL     1      -3.632  11.797  18.697  0.00  0.00    +0.000 OA
ATOM     23  C   UNL     1      -4.420  11.661  17.518  0.00  0.00    +0.000 C 
ENDBRANCH  19  22
BRANCH  20  24
ATOM     24  O   UNL     1      -1.604  12.622  20.584  0.00  0.00    +0.000 OA
ATOM     25  C   UNL     1      -2.112  12.251  21.859  0.00  0.00    +0.000 C 
ENDBRANCH  20  24
BRANCH  21  26
ATOM     26  O   UNL     1       0.944  11.365  20.434  0.00  0.00    +0.000 OA
ATOM     27  C   UNL     1       1.590  12.626  20.341  0.00  0.00    +0.000 C 
ENDBRANCH  21  26
ENDBRANCH   2  16
TORSDOF 7
ENDMDL
MODEL 5
REMARK VINA RESULT:      -6.4      3.612      5.728
REMARK  Name = 
REMARK  11 active torsions:
REMARK  status: ('A' for Active; 'I' for Inactive)
REMARK    1  A    between atoms: C_2  and  C_3
REMARK    2  A    between atoms: C_2  and  C_15
REMARK    3  A    between atoms: C_9  and  C_10
REMARK    4  A    between atoms: C_10  and  O_11
REMARK    5  A    between atoms: N_13  and  C_14
REMARK    6  A    between atoms: C_18  and  O_19
REMARK    7  A    between atoms: O_19  and  C_20
REMARK    8  A    between atoms: C_21  and  O_22
REMARK    9  A    between atoms: O_22  and  C_23
REMARK   10  A    between atoms: C_24  and  O_25
REMARK   11  A    between atoms: O_25  and  C_26
REMARK                            x       y       z     vdW  Elec       q    Type
REMARK                         _______ _______ _______ _____ _____    ______ ____
ROOT
ATOM      1  C   UNL     1       2.046   5.350  19.069  0.00  0.00    +0.000 C 
ATOM      2  C   UNL     1       2.684   6.398  18.516  0.00  0.00    +0.000 C 
ENDROOT
BRANCH   2   3
ATOM      3  C   UNL     1       2.149   7.746  18.823  0.00  0.00    +0.000 A 
ATOM      4  C   UNL     1       2.098   8.703  17.810  0.00  0.00    +0.000 A 
ATOM      5  C   UNL     1       1.539   9.965  18.031  0.00  0.00    +0.000 A 
ATOM      6  C   UNL     1       1.025  10.255  19.305  0.00  0.00    +0.000 A 
ATOM      7  C   UNL     1       1.057   9.326  20.352  0.00  0.00    +0.000 A 
ATOM      8  C   UNL     1       1.630   8.055  20.098  0.00  0.00    +0.000 A 
ATOM      9  C   UNL     1       0.439   9.946  21.493  0.00  0.00    +0.000 A 
ATOM     10  C   UNL     1       0.050  11.214  21.095  0.00  0.00    +0.000 A 
ATOM     11  N   UNL     1       0.411  11.388  19.789  0.00  0.00    +0.000 N 
ATOM     12  C   UNL     1       0.164  12.588  19.020  0.00  0.00    +0.000 C 
BRANCH   9  13
ATOM     13  C   UNL     1       0.220   9.347  22.843  0.00  0.00    +0.000 C 
BRANCH  13  14
ATOM     14  O   UNL     1      -0.937   9.878  23.489  0.00  0.00    +0.000 OA
ATOM     15  H   UNL     1      -0.812   9.717  24.439  0.00  0.00    +0.000 HD
ENDBRANCH  13  14
ENDBRANCH   9  13
ENDBRANCH   2   3
BRANCH   2  16
ATOM     16  C   UNL     1       3.965   6.126  17.814  0.00  0.00    +0.000 A 
ATOM     17  C   UNL     1       4.067   6.684  16.539  0.00  0.00    +0.000 A 
ATOM     18  C   UNL     1       5.226   6.550  15.794  0.00  0.00    +0.000 A 
ATOM     19  C   UNL     1       6.316   5.824  16.289  0.00  0.00    +0.000 A 
ATOM     20  C   UNL     1       6.259   5.256  17.585  0.00  0.00    +0.000 A 
ATOM     21  C   UNL     1       5.073   5.426  18.363  0.00  0.00    +0.000 A 
BRANCH  19  22
ATOM     22  O   UNL     1       7.464   5.723  15.547  0.00  0.00    +0.000 OA
ATOM     23  C   UNL     1       7.380   4.952  14.352  0.00  0.00    +0.000 C 
ENDBRANCH  19  22
BRANCH  20  24
ATOM     24  O   UNL     1       7.258   4.508  18.161  0.00  0.00    +0.000 OA
ATOM     25  C   UNL     1       8.191   5.104  19.051  0.00  0.00    +0.000 C 
ENDBRANCH  20  24
BRANCH  21  26
ATOM     26  O   UNL     1       4.864   4.930  19.640  0.00  0.00    +0.000 OA
ATOM     27  C   UNL     1       4.645   3.537  19.803  0.00  0.00    +0.000 C 
ENDBRANCH  21  26
ENDBRANCH   2  16
TORSDOF 7
ENDMDL
MODEL 6
REMARK VINA RESULT:      -6.4      3.886      7.371
REMARK  Name = 
REMARK  11 active torsions:
REMARK  status: ('A' for Active; 'I' for Inactive)
REMARK    1  A    between atoms: C_2  and  C_3
REMARK    2  A    between atoms: C_2  and  C_15
REMARK    3  A    between atoms: C_9  and  C_10
REMARK    4  A    between atoms: C_10  and  O_11
REMARK    5  A    between atoms: N_13  and  C_14
REMARK    6  A    between atoms: C_18  and  O_19
REMARK    7  A    between atoms: O_19  and  C_20
REMARK    8  A    between atoms: C_21  and  O_22
REMARK    9  A    between atoms: O_22  and  C_23
REMARK   10  A    between atoms: C_24  and  O_25
REMARK   11  A    between atoms: O_25  and  C_26
REMARK                            x       y       z     vdW  Elec       q    Type
REMARK                         _______ _______ _______ _____ _____    ______ ____
ROOT
ATOM      1  C   UNL     1      -0.164  10.202  18.208  0.00  0.00    +0.000 C 
ATOM      2  C   UNL     1       1.007  10.203  18.870  0.00  0.00    +0.000 C 
ENDROOT
BRANCH   2   3
ATOM      3  C   UNL     1       1.682   8.894  19.039  0.00  0.00    +0.000 A 
ATOM      4  C   UNL     1       1.339   8.088  20.125  0.00  0.00    +0.000 A 
ATOM      5  C   UNL     1       1.896   6.816  20.289  0.00  0.00    +0.000 A 
ATOM      6  C   UNL     1       2.816   6.361  19.332  0.00  0.00    +0.000 A 
ATOM      7  C   UNL     1       3.191   7.135  18.228  0.00  0.00    +0.000 A 
ATOM      8  C   UNL     1       2.610   8.420  18.088  0.00  0.00    +0.000 A 
ATOM      9  C   UNL     1       4.127   6.360  17.458  0.00  0.00    +0.000 A 
ATOM     10  C   UNL     1       4.275   5.150  18.114  0.00  0.00    +0.000 A 
ATOM     11  N   UNL     1       3.493   5.165  19.234  0.00  0.00    +0.000 N 
ATOM     12  C   UNL     1       3.378   4.071  20.173  0.00  0.00    +0.000 C 
BRANCH   9  13
ATOM     13  C   UNL     1       4.795   6.751  16.181  0.00  0.00    +0.000 C 
BRANCH  13  14
ATOM     14  O   UNL     1       6.199   6.948  16.344  0.00  0.00    +0.000 OA
ATOM     15  H   UNL     1       6.377   6.841  17.292  0.00  0.00    +0.000 HD
ENDBRANCH  13  14
ENDBRANCH   9  13
ENDBRANCH   2   3
BRANCH   2  16
ATOM     16  C   UNL     1       1.605  11.522  19.201  0.00  0.00    +0.000 A 
ATOM     17  C   UNL     1       2.279  12.143  18.147  0.00  0.00    +0.000 A 
ATOM     18  C   UNL     1       2.840  13.399  18.304  0.00  0.00    +0.000 A 
ATOM     19  C   UNL     1       2.772  14.066  19.533  0.00  0.00    +0.000 A 
ATOM     20  C   UNL     1       2.083  13.478  20.621  0.00  0.00    +0.000 A 
ATOM     21  C   UNL     1       1.476  12.197  20.445  0.00  0.00    +0.000 A 
BRANCH  19  22
ATOM     22  O   UNL     1       3.312  15.320  19.661  0.00  0.00    +0.000 OA
ATOM     23  C   UNL     1       4.697  15.382  19.990  0.00  0.00    +0.000 C 
ENDBRANCH  19  22
BRANCH  20  24
ATOM     24  O   UNL     1       1.972  14.032  21.874  0.00  0.00    +0.000 OA
ATOM     25  C   UNL     1       1.014  15.047  22.139  0.00  0.00    +0.000 C 
ENDBRANCH  20  24
BRANCH  21  26
ATOM     26  O   UNL     1       0.774  11.494  21.410  0.00  0.00    +0.000 OA
ATOM     27  C   UNL     1      -0.602  11.788  21.602  0.00  0.00    +0.000 C 
ENDBRANCH  21  26
ENDBRANCH   2  16
TORSDOF 7
ENDMDL
MODEL 7
REMARK VINA RESULT:      -6.4      3.482      5.852
REMARK  Name = 
REMARK  11 active torsions:
REMARK  status: ('A' for Active; 'I' for Inactive)
REMARK    1  A    between atoms: C_2  and  C_3
REMARK    2  A    between atoms: C_2  and  C_15
REMARK    3  A    between atoms: C_9  and  C_10
REMARK    4  A    between atoms: C_10  and  O_11
REMARK    5  A    between atoms: N_13  and  C_14
REMARK    6  A    between atoms: C_18  and  O_19
REMARK    7  A    between atoms: O_19  and  C_20
REMARK    8  A    between atoms: C_21  and  O_22
REMARK    9  A    between atoms: O_22  and  C_23
REMARK   10  A    between atoms: C_24  and  O_25
REMARK   11  A    between atoms: O_25  and  C_26
REMARK                            x       y       z     vdW  Elec       q    Type
REMARK                         _______ _______ _______ _____ _____    ______ ____
ROOT
ATOM      1  C   UNL     1       1.979   5.188  20.507  0.00  0.00    +0.000 C 
ATOM      2  C   UNL     1       2.537   6.047  19.635  0.00  0.00    +0.000 C 
ENDROOT
BRANCH   2   3
ATOM      3  C   UNL     1       2.001   7.429  19.619  0.00  0.00    +0.000 A 
ATOM      4  C   UNL     1       2.140   8.198  18.464  0.00  0.00    +0.000 A 
ATOM      5  C   UNL     1       1.591   9.480  18.375  0.00  0.00    +0.000 A 
ATOM      6  C   UNL     1       0.891   9.986  19.483  0.00  0.00    +0.000 A 
ATOM      7  C   UNL     1       0.729   9.251  20.662  0.00  0.00    +0.000 A 
ATOM      8  C   UNL     1       1.296   7.954  20.723  0.00  0.00    +0.000 A 
ATOM      9  C   UNL     1      -0.043  10.059  21.568  0.00  0.00    +0.000 A 
ATOM     10  C   UNL     1      -0.326  11.241  20.904  0.00  0.00    +0.000 A 
ATOM     11  N   UNL     1       0.242  11.187  19.663  0.00  0.00    +0.000 N 
ATOM     12  C   UNL     1       0.156  12.237  18.672  0.00  0.00    +0.000 C 
BRANCH   9  13
ATOM     13  C   UNL     1      -0.491   9.701  22.947  0.00  0.00    +0.000 C 
BRANCH  13  14
ATOM     14  O   UNL     1       0.601   9.602  23.861  0.00  0.00    +0.000 OA
ATOM     15  H   UNL     1       1.402   9.786  23.343  0.00  0.00    +0.000 HD
ENDBRANCH  13  14
ENDBRANCH   9  13
ENDBRANCH   2   3
BRANCH   2  16
ATOM     16  C   UNL     1       3.753   5.593  18.912  0.00  0.00    +0.000 A 
ATOM     17  C   UNL     1       4.962   5.989  19.487  0.00  0.00    +0.000 A 
ATOM     18  C   UNL     1       6.172   5.591  18.943  0.00  0.00    +0.000 A 
ATOM     19  C   UNL     1       6.214   4.807  17.785  0.00  0.00    +0.000 A 
ATOM     20  C   UNL     1       5.010   4.371  17.180  0.00  0.00    +0.000 A 
ATOM     21  C   UNL     1       3.764   4.755  17.764  0.00  0.00    +0.000 A 
BRANCH  19  22
ATOM     22  O   UNL     1       7.422   4.404  17.276  0.00  0.00    +0.000 OA
ATOM     23  C   UNL     1       8.522   4.402  18.181  0.00  0.00    +0.000 C 
ENDBRANCH  19  22
BRANCH  20  24
ATOM     24  O   UNL     1       4.933   3.619  16.032  0.00  0.00    +0.000 OA
ATOM     25  C   UNL     1       5.312   4.167  14.777  0.00  0.00    +0.000 C 
ENDBRANCH  20  24
BRANCH  21  26
ATOM     26  O   UNL     1       2.508   4.412  17.290  0.00  0.00    +0.000 OA
ATOM     27  C   UNL     1       2.006   3.113  17.568  0.00  0.00    +0.000 C 
ENDBRANCH  21  26
ENDBRANCH   2  16
TORSDOF 7
ENDMDL
MODEL 8
REMARK VINA RESULT:      -6.3      3.188      4.844
REMARK  Name = 
REMARK  11 active torsions:
REMARK  status: ('A' for Active; 'I' for Inactive)
REMARK    1  A    between atoms: C_2  and  C_3
REMARK    2  A    between atoms: C_2  and  C_15
REMARK    3  A    between atoms: C_9  and  C_10
REMARK    4  A    between atoms: C_10  and  O_11
REMARK    5  A    between atoms: N_13  and  C_14
REMARK    6  A    between atoms: C_18  and  O_19
REMARK    7  A    between atoms: O_19  and  C_20
REMARK    8  A    between atoms: C_21  and  O_22
REMARK    9  A    between atoms: O_22  and  C_23
REMARK   10  A    between atoms: C_24  and  O_25
REMARK   11  A    between atoms: O_25  and  C_26
REMARK                            x       y       z     vdW  Elec       q    Type
REMARK                         _______ _______ _______ _____ _____    ______ ____
ROOT
ATOM      1  C   UNL     1       3.419   8.172  17.493  0.00  0.00    +0.000 C 
ATOM      2  C   UNL     1       2.686   7.542  18.430  0.00  0.00    +0.000 C 
ENDROOT
BRANCH   2   3
ATOM      3  C   UNL     1       1.815   8.388  19.279  0.00  0.00    +0.000 A 
ATOM      4  C   UNL     1       1.520   7.971  20.577  0.00  0.00    +0.000 A 
ATOM      5  C   UNL     1       0.761   8.767  21.441  0.00  0.00    +0.000 A 
ATOM      6  C   UNL     1       0.295  10.006  20.972  0.00  0.00    +0.000 A 
ATOM      7  C   UNL     1       0.565  10.464  19.677  0.00  0.00    +0.000 A 
ATOM      8  C   UNL     1       1.337   9.636  18.825  0.00  0.00    +0.000 A 
ATOM      9  C   UNL     1      -0.045  11.760  19.546  0.00  0.00    +0.000 A 
ATOM     10  C   UNL     1      -0.648  12.041  20.760  0.00  0.00    +0.000 A 
ATOM     11  N   UNL     1      -0.443  10.983  21.600  0.00  0.00    +0.000 N 
ATOM     12  C   UNL     1      -0.919  10.912  22.964  0.00  0.00    +0.000 C 
BRANCH   9  13
ATOM     13  C   UNL     1      -0.018  12.659  18.353  0.00  0.00    +0.000 C 
BRANCH  13  14
ATOM     14  O   UNL     1      -1.231  12.598  17.603  0.00  0.00    +0.000 OA
ATOM     15  H   UNL     1      -1.892  13.083  18.123  0.00  0.00    +0.000 HD
ENDBRANCH  13  14
ENDBRANCH   9  13
ENDBRANCH   2   3
BRANCH   2  16
ATOM     16  C   UNL     1       2.669   6.057  18.400  0.00  0.00    +0.000 A 
ATOM     17  C   UNL     1       1.529   5.492  17.826  0.00  0.00    +0.000 A 
ATOM     18  C   UNL     1       1.407   4.120  17.689  0.00  0.00    +0.000 A 
ATOM     19  C   UNL     1       2.411   3.261  18.151  0.00  0.00    +0.000 A 
ATOM     20  C   UNL     1       3.590   3.795  18.725  0.00  0.00    +0.000 A 
ATOM     21  C   UNL     1       3.727   5.212  18.832  0.00  0.00    +0.000 A 
BRANCH  19  22
ATOM     22  O   UNL     1       2.282   1.906  17.985  0.00  0.00    +0.000 OA
ATOM     23  C   UNL     1       1.272   1.267  18.759  0.00  0.00    +0.000 C 
ENDBRANCH  19  22
BRANCH  20  24
ATOM     24  O   UNL     1       4.628   3.047  19.230  0.00  0.00    +0.000 OA
ATOM     25  C   UNL     1       4.458   2.270  20.407  0.00  0.00    +0.000 C 
ENDBRANCH  20  24
BRANCH  21  26
ATOM     26  O   UNL     1       4.815   5.882  19.370  0.00  0.00    +0.000 OA
ATOM     27  C   UNL     1       6.061   5.812  18.693  0.00  0.00    +0.000 C 
ENDBRANCH  21  26
ENDBRANCH   2  16
TORSDOF 7
ENDMDL
MODEL 9
REMARK VINA RESULT:      -6.3      2.859      7.379
REMARK  Name = 
REMARK  11 active torsions:
REMARK  status: ('A' for Active; 'I' for Inactive)
REMARK    1  A    between atoms: C_2  and  C_3
REMARK    2  A    between atoms: C_2  and  C_15
REMARK    3  A    between atoms: C_9  and  C_10
REMARK    4  A    between atoms: C_10  and  O_11
REMARK    5  A    between atoms: N_13  and  C_14
REMARK    6  A    between atoms: C_18  and  O_19
REMARK    7  A    between atoms: O_19  and  C_20
REMARK    8  A    between atoms: C_21  and  O_22
REMARK    9  A    between atoms: O_22  and  C_23
REMARK   10  A    between atoms: C_24  and  O_25
REMARK   11  A    between atoms: O_25  and  C_26
REMARK                            x       y       z     vdW  Elec       q    Type
REMARK                         _______ _______ _______ _____ _____    ______ ____
ROOT
ATOM      1  C   UNL     1       1.999  11.196  18.229  0.00  0.00    +0.000 C 
ATOM      2  C   UNL     1       1.047  10.305  18.565  0.00  0.00    +0.000 C 
ENDROOT
BRANCH   2   3
ATOM      3  C   UNL     1       1.509   8.987  19.061  0.00  0.00    +0.000 A 
ATOM      4  C   UNL     1       1.010   8.503  20.270  0.00  0.00    +0.000 A 
ATOM      5  C   UNL     1       1.362   7.237  20.746  0.00  0.00    +0.000 A 
ATOM      6  C   UNL     1       2.236   6.452  19.977  0.00  0.00    +0.000 A 
ATOM      7  C   UNL     1       2.763   6.897  18.759  0.00  0.00    +0.000 A 
ATOM      8  C   UNL     1       2.389   8.185  18.302  0.00  0.00    +0.000 A 
ATOM      9  C   UNL     1       3.597   5.845  18.243  0.00  0.00    +0.000 A 
ATOM     10  C   UNL     1       3.536   4.806  19.156  0.00  0.00    +0.000 A 
ATOM     11  N   UNL     1       2.726   5.183  20.189  0.00  0.00    +0.000 N 
ATOM     12  C   UNL     1       2.413   4.357  21.334  0.00  0.00    +0.000 C 
BRANCH   9  13
ATOM     13  C   UNL     1       4.361   5.839  16.960  0.00  0.00    +0.000 C 
BRANCH  13  14
ATOM     14  O   UNL     1       4.676   4.517  16.524  0.00  0.00    +0.000 OA
ATOM     15  H   UNL     1       3.825   4.085  16.343  0.00  0.00    +0.000 HD
ENDBRANCH  13  14
ENDBRANCH   9  13
ENDBRANCH   2   3
BRANCH   2  16
ATOM     16  C   UNL     1      -0.359  10.783  18.589  0.00  0.00    +0.000 A 
ATOM     17  C   UNL     1      -1.199  10.189  17.645  0.00  0.00    +0.000 A 
ATOM     18  C   UNL     1      -2.545  10.506  17.592  0.00  0.00    +0.000 A 
ATOM     19  C   UNL     1      -3.093  11.454  18.464  0.00  0.00    +0.000 A 
ATOM     20  C   UNL     1      -2.279  12.067  19.447  0.00  0.00    +0.000 A 
ATOM     21  C   UNL     1      -0.898  11.711  19.521  0.00  0.00    +0.000 A 
BRANCH  19  22
ATOM     22  O   UNL     1      -4.434  11.737  18.411  0.00  0.00    +0.000 OA
ATOM     23  C   UNL     1      -5.023  11.772  17.115  0.00  0.00    +0.000 C 
ENDBRANCH  19  22
BRANCH  20  24
ATOM     24  O   UNL     1      -2.705  13.023  20.338  0.00  0.00    +0.000 OA
ATOM     25  C   UNL     1      -3.229  12.653  21.606  0.00  0.00    +0.000 C 
ENDBRANCH  20  24
BRANCH  21  26
ATOM     26  O   UNL     1       0.024  12.223  20.421  0.00  0.00    +0.000 OA
ATOM     27  C   UNL     1       0.418  13.581  20.294  0.00  0.00    +0.000 C 
ENDBRANCH  21  26
ENDBRANCH   2  16
TORSDOF 7
ENDMDL
