MODEL 1
REMARK VINA RESULT:      -6.6      0.000      0.000
REMARK  Name = 
REMARK  10 active torsions:
REMARK  status: ('A' for Active; 'I' for Inactive)
REMARK    1  A    between atoms: C_1  and  O_2
REMARK    2  A    between atoms: O_2  and  C_3
REMARK    3  A    between atoms: C_3  and  C_5
REMARK    4  A    between atoms: C_5  and  O_6
REMARK    5  A    between atoms: O_6  and  C_7
REMARK    6  A    between atoms: C_9  and  O_10
REMARK    7  A    between atoms: C_11  and  C_12
REMARK    8  A    between atoms: C_12  and  C_13
REMARK    9  A    between atoms: C_16  and  O_17
REMARK   10  A    between atoms: O_17  and  C_18
REMARK                            x       y       z     vdW  Elec       q    Type
REMARK                         _______ _______ _______ _____ _____    ______ ____
ROOT
ATOM      1  C   UNL     1       3.913   5.225  17.332  0.00  0.00    +0.000 A 
ATOM      2  C   UNL     1       3.770   3.837  17.103  0.00  0.00    +0.000 A 
ATOM      3  C   UNL     1       2.873   3.044  17.818  0.00  0.00    +0.000 A 
ATOM      4  C   UNL     1       2.015   3.638  18.734  0.00  0.00    +0.000 A 
ATOM      5  C   UNL     1       2.100   5.028  18.925  0.00  0.00    +0.000 A 
ATOM      6  C   UNL     1       3.034   5.836  18.243  0.00  0.00    +0.000 A 
ENDROOT
BRANCH   4   7
ATOM      7  C   UNL     1       1.036   2.889  19.562  0.00  0.00    +0.000 C 
ATOM      8  C   UNL     1       1.162   2.868  21.062  0.00  0.00    +0.000 C 
ATOM      9  O   UNL     1       0.148   2.246  19.001  0.00  0.00    +0.000 OA
ENDBRANCH   4   7
BRANCH   3  10
ATOM     10  O   UNL     1       2.922   1.687  17.650  0.00  0.00    +0.000 OA
ATOM     11  H   UNL     1       2.046   1.335  17.427  0.00  0.00    +0.000 HD
ENDBRANCH   3  10
BRANCH   6  12
ATOM     12  O   UNL     1       2.956   7.126  18.678  0.00  0.00    +0.000 OA
ATOM     13  C   UNL     1       2.428   8.154  17.862  0.00  0.00    +0.000 C 
ENDBRANCH   6  12
BRANCH   1  14
ATOM     14  O   UNL     1       4.922   5.957  16.719  0.00  0.00    +0.000 OA
BRANCH  14  15
ATOM     15  C   UNL     1       5.609   5.222  15.713  0.00  0.00    +0.000 C 
BRANCH  15  16
ATOM     16  C   UNL     1       7.103   4.904  15.757  0.00  0.00    +0.000 C 
ATOM     17  O   UNL     1       7.743   4.441  16.685  0.00  0.00    +0.000 OA
BRANCH  16  19
ATOM     18  C   UNL     1       6.997   4.579  13.402  0.00  0.00    +0.000 C 
ATOM     19  O   UNL     1       7.601   5.227  14.518  0.00  0.00    +0.000 OA
ENDBRANCH  16  19
ENDBRANCH  15  16
ENDBRANCH  14  15
ENDBRANCH   1  14
TORSDOF 7
ENDMDL
MODEL 2
REMARK VINA RESULT:      -6.5      1.005      1.436
REMARK  Name = 
REMARK  10 active torsions:
REMARK  status: ('A' for Active; 'I' for Inactive)
REMARK    1  A    between atoms: C_1  and  O_2
REMARK    2  A    between atoms: O_2  and  C_3
REMARK    3  A    between atoms: C_3  and  C_5
REMARK    4  A    between atoms: C_5  and  O_6
REMARK    5  A    between atoms: O_6  and  C_7
REMARK    6  A    between atoms: C_9  and  O_10
REMARK    7  A    between atoms: C_11  and  C_12
REMARK    8  A    between atoms: C_12  and  C_13
REMARK    9  A    between atoms: C_16  and  O_17
REMARK   10  A    between atoms: O_17  and  C_18
REMARK                            x       y       z     vdW  Elec       q    Type
REMARK                         _______ _______ _______ _____ _____    ______ ____
ROOT
ATOM      1  C   UNL     1       3.792   5.486  17.387  0.00  0.00    +0.000 A 
ATOM      2  C   UNL     1       3.751   4.094  17.144  0.00  0.00    +0.000 A 
ATOM      3  C   UNL     1       2.914   3.230  17.849  0.00  0.00    +0.000 A 
ATOM      4  C   UNL     1       2.013   3.749  18.769  0.00  0.00    +0.000 A 
ATOM      5  C   UNL     1       1.996   5.140  18.975  0.00  0.00    +0.000 A 
ATOM      6  C   UNL     1       2.868   6.021  18.302  0.00  0.00    +0.000 A 
ENDROOT
BRANCH   4   7
ATOM      7  C   UNL     1       1.091   2.921  19.587  0.00  0.00    +0.000 C 
ATOM      8  C   UNL     1       1.246   2.859  21.084  0.00  0.00    +0.000 C 
ATOM      9  O   UNL     1       0.229   2.251  19.020  0.00  0.00    +0.000 OA
ENDBRANCH   4   7
BRANCH   3  10
ATOM     10  O   UNL     1       3.064   1.882  17.668  0.00  0.00    +0.000 OA
ATOM     11  H   UNL     1       2.351   1.393  18.109  0.00  0.00    +0.000 HD
ENDBRANCH   3  10
BRANCH   6  12
ATOM     12  O   UNL     1       2.695   7.298  18.750  0.00  0.00    +0.000 OA
ATOM     13  C   UNL     1       2.211   8.322  17.904  0.00  0.00    +0.000 C 
ENDBRANCH   6  12
BRANCH   1  14
ATOM     14  O   UNL     1       4.745   6.297  16.783  0.00  0.00    +0.000 OA
BRANCH  14  15
ATOM     15  C   UNL     1       5.739   5.559  16.083  0.00  0.00    +0.000 C 
BRANCH  15  16
ATOM     16  C   UNL     1       7.201   5.469  16.518  0.00  0.00    +0.000 C 
ATOM     17  O   UNL     1       7.859   4.465  16.726  0.00  0.00    +0.000 OA
BRANCH  16  19
ATOM     18  C   UNL     1       7.795   7.288  17.931  0.00  0.00    +0.000 C 
ATOM     19  O   UNL     1       7.652   6.763  16.615  0.00  0.00    +0.000 OA
ENDBRANCH  16  19
ENDBRANCH  15  16
ENDBRANCH  14  15
ENDBRANCH   1  14
TORSDOF 7
ENDMDL
MODEL 3
REMARK VINA RESULT:      -6.4      1.790      6.393
REMARK  Name = 
REMARK  10 active torsions:
REMARK  status: ('A' for Active; 'I' for Inactive)
REMARK    1  A    between atoms: C_1  and  O_2
REMARK    2  A    between atoms: O_2  and  C_3
REMARK    3  A    between atoms: C_3  and  C_5
REMARK    4  A    between atoms: C_5  and  O_6
REMARK    5  A    between atoms: O_6  and  C_7
REMARK    6  A    between atoms: C_9  and  O_10
REMARK    7  A    between atoms: C_11  and  C_12
REMARK    8  A    between atoms: C_12  and  C_13
REMARK    9  A    between atoms: C_16  and  O_17
REMARK   10  A    between atoms: O_17  and  C_18
REMARK                            x       y       z     vdW  Elec       q    Type
REMARK                         _______ _______ _______ _____ _____    ______ ____
ROOT
ATOM      1  C   UNL     1       4.842   5.072  18.371  0.00  0.00    +0.000 A 
ATOM      2  C   UNL     1       5.887   5.950  18.000  0.00  0.00    +0.000 A 
ATOM      3  C   UNL     1       6.527   5.879  16.763  0.00  0.00    +0.000 A 
ATOM      4  C   UNL     1       6.076   4.975  15.811  0.00  0.00    +0.000 A 
ATOM      5  C   UNL     1       4.995   4.140  16.141  0.00  0.00    +0.000 A 
ATOM      6  C   UNL     1       4.368   4.169  17.404  0.00  0.00    +0.000 A 
ENDROOT
BRANCH   4   7
ATOM      7  C   UNL     1       6.695   4.802  14.471  0.00  0.00    +0.000 C 
ATOM      8  C   UNL     1       6.111   3.830  13.480  0.00  0.00    +0.000 C 
ATOM      9  O   UNL     1       7.718   5.430  14.201  0.00  0.00    +0.000 OA
ENDBRANCH   4   7
BRANCH   3  10
ATOM     10  O   UNL     1       7.637   6.652  16.556  0.00  0.00    +0.000 OA
ATOM     11  H   UNL     1       7.415   7.595  16.610  0.00  0.00    +0.000 HD
ENDBRANCH   3  10
BRANCH   6  12
ATOM     12  O   UNL     1       3.408   3.203  17.482  0.00  0.00    +0.000 OA
ATOM     13  C   UNL     1       3.628   1.993  18.180  0.00  0.00    +0.000 C 
ENDBRANCH   6  12
BRANCH   1  14
ATOM     14  O   UNL     1       4.332   5.063  19.663  0.00  0.00    +0.000 OA
BRANCH  14  15
ATOM     15  C   UNL     1       2.961   5.437  19.723  0.00  0.00    +0.000 C 
BRANCH  15  16
ATOM     16  C   UNL     1       1.854   4.538  20.274  0.00  0.00    +0.000 C 
ATOM     17  O   UNL     1       0.812   4.216  19.731  0.00  0.00    +0.000 OA
BRANCH  16  19
ATOM     18  C   UNL     1       2.256   2.733  21.771  0.00  0.00    +0.000 C 
ATOM     19  O   UNL     1       2.272   4.136  21.519  0.00  0.00    +0.000 OA
ENDBRANCH  16  19
ENDBRANCH  15  16
ENDBRANCH  14  15
ENDBRANCH   1  14
TORSDOF 7
ENDMDL
MODEL 4
REMARK VINA RESULT:      -6.4      1.769      5.708
REMARK  Name = 
REMARK  10 active torsions:
REMARK  status: ('A' for Active; 'I' for Inactive)
REMARK    1  A    between atoms: C_1  and  O_2
REMARK    2  A    between atoms: O_2  and  C_3
REMARK    3  A    between atoms: C_3  and  C_5
REMARK    4  A    between atoms: C_5  and  O_6
REMARK    5  A    between atoms: O_6  and  C_7
REMARK    6  A    between atoms: C_9  and  O_10
REMARK    7  A    between atoms: C_11  and  C_12
REMARK    8  A    between atoms: C_12  and  C_13
REMARK    9  A    between atoms: C_16  and  O_17
REMARK   10  A    between atoms: O_17  and  C_18
REMARK                            x       y       z     vdW  Elec       q    Type
REMARK                         _______ _______ _______ _____ _____    ______ ____
ROOT
ATOM      1  C   UNL     1       2.838   4.629  17.458  0.00  0.00    +0.000 A 
ATOM      2  C   UNL     1       3.831   3.787  16.906  0.00  0.00    +0.000 A 
ATOM      3  C   UNL     1       5.159   4.184  16.757  0.00  0.00    +0.000 A 
ATOM      4  C   UNL     1       5.562   5.419  17.246  0.00  0.00    +0.000 A 
ATOM      5  C   UNL     1       4.600   6.242  17.857  0.00  0.00    +0.000 A 
ATOM      6  C   UNL     1       3.243   5.873  17.973  0.00  0.00    +0.000 A 
ENDROOT
BRANCH   4   7
ATOM      7  C   UNL     1       6.944   5.950  17.125  0.00  0.00    +0.000 C 
ATOM      8  C   UNL     1       7.647   6.530  18.324  0.00  0.00    +0.000 C 
ATOM      9  O   UNL     1       7.488   5.952  16.021  0.00  0.00    +0.000 OA
ENDBRANCH   4   7
BRANCH   3  10
ATOM     10  O   UNL     1       6.011   3.372  16.060  0.00  0.00    +0.000 OA
ATOM     11  H   UNL     1       5.727   2.445  16.117  0.00  0.00    +0.000 HD
ENDBRANCH   3  10
BRANCH   6  12
ATOM     12  O   UNL     1       2.519   6.886  18.528  0.00  0.00    +0.000 OA
ATOM     13  C   UNL     1       2.426   8.156  17.914  0.00  0.00    +0.000 C 
ENDBRANCH   6  12
BRANCH   1  14
ATOM     14  O   UNL     1       1.498   4.266  17.447  0.00  0.00    +0.000 OA
BRANCH  14  15
ATOM     15  C   UNL     1       1.172   3.310  18.448  0.00  0.00    +0.000 C 
BRANCH  15  16
ATOM     16  C   UNL     1       1.203   3.598  19.948  0.00  0.00    +0.000 C 
ATOM     17  O   UNL     1       0.816   4.598  20.527  0.00  0.00    +0.000 OA
BRANCH  16  19
ATOM     18  C   UNL     1       1.810   2.489  21.965  0.00  0.00    +0.000 C 
ATOM     19  O   UNL     1       1.746   2.483  20.541  0.00  0.00    +0.000 OA
ENDBRANCH  16  19
ENDBRANCH  15  16
ENDBRANCH  14  15
ENDBRANCH   1  14
TORSDOF 7
ENDMDL
MODEL 5
REMARK VINA RESULT:      -6.4      0.771      1.411
REMARK  Name = 
REMARK  10 active torsions:
REMARK  status: ('A' for Active; 'I' for Inactive)
REMARK    1  A    between atoms: C_1  and  O_2
REMARK    2  A    between atoms: O_2  and  C_3
REMARK    3  A    between atoms: C_3  and  C_5
REMARK    4  A    between atoms: C_5  and  O_6
REMARK    5  A    between atoms: O_6  and  C_7
REMARK    6  A    between atoms: C_9  and  O_10
REMARK    7  A    between atoms: C_11  and  C_12
REMARK    8  A    between atoms: C_12  and  C_13
REMARK    9  A    between atoms: C_16  and  O_17
REMARK   10  A    between atoms: O_17  and  C_18
REMARK                            x       y       z     vdW  Elec       q    Type
REMARK                         _______ _______ _______ _____ _____    ______ ____
ROOT
ATOM      1  C   UNL     1       3.819   5.597  17.374  0.00  0.00    +0.000 A 
ATOM      2  C   UNL     1       3.810   4.205  17.124  0.00  0.00    +0.000 A 
ATOM      3  C   UNL     1       2.978   3.321  17.811  0.00  0.00    +0.000 A 
ATOM      4  C   UNL     1       2.051   3.819  18.716  0.00  0.00    +0.000 A 
ATOM      5  C   UNL     1       2.003   5.208  18.928  0.00  0.00    +0.000 A 
ATOM      6  C   UNL     1       2.870   6.109  18.275  0.00  0.00    +0.000 A 
ENDROOT
BRANCH   4   7
ATOM      7  C   UNL     1       1.131   2.970  19.515  0.00  0.00    +0.000 C 
ATOM      8  C   UNL     1       1.220   2.951  21.018  0.00  0.00    +0.000 C 
ATOM      9  O   UNL     1       0.326   2.247  18.928  0.00  0.00    +0.000 OA
ENDBRANCH   4   7
BRANCH   3  10
ATOM     10  O   UNL     1       3.157   1.978  17.626  0.00  0.00    +0.000 OA
ATOM     11  H   UNL     1       3.809   1.810  16.928  0.00  0.00    +0.000 HD
ENDBRANCH   3  10
BRANCH   6  12
ATOM     12  O   UNL     1       2.663   7.380  18.725  0.00  0.00    +0.000 OA
ATOM     13  C   UNL     1       2.108   8.381  17.894  0.00  0.00    +0.000 C 
ENDBRANCH   6  12
BRANCH   1  14
ATOM     14  O   UNL     1       4.767   6.428  16.791  0.00  0.00    +0.000 OA
BRANCH  14  15
ATOM     15  C   UNL     1       6.100   5.969  16.977  0.00  0.00    +0.000 C 
BRANCH  15  16
ATOM     16  C   UNL     1       6.934   5.301  15.885  0.00  0.00    +0.000 C 
ATOM     17  O   UNL     1       6.838   5.442  14.678  0.00  0.00    +0.000 OA
BRANCH  16  19
ATOM     18  C   UNL     1       7.825   4.544  17.957  0.00  0.00    +0.000 C 
ATOM     19  O   UNL     1       7.849   4.507  16.533  0.00  0.00    +0.000 OA
ENDBRANCH  16  19
ENDBRANCH  15  16
ENDBRANCH  14  15
ENDBRANCH   1  14
TORSDOF 7
ENDMDL
MODEL 6
REMARK VINA RESULT:      -6.4      1.329      1.665
REMARK  Name = 
REMARK  10 active torsions:
REMARK  status: ('A' for Active; 'I' for Inactive)
REMARK    1  A    between atoms: C_1  and  O_2
REMARK    2  A    between atoms: O_2  and  C_3
REMARK    3  A    between atoms: C_3  and  C_5
REMARK    4  A    between atoms: C_5  and  O_6
REMARK    5  A    between atoms: O_6  and  C_7
REMARK    6  A    between atoms: C_9  and  O_10
REMARK    7  A    between atoms: C_11  and  C_12
REMARK    8  A    between atoms: C_12  and  C_13
REMARK    9  A    between atoms: C_16  and  O_17
REMARK   10  A    between atoms: O_17  and  C_18
REMARK                            x       y       z     vdW  Elec       q    Type
REMARK                         _______ _______ _______ _____ _____    ______ ____
ROOT
ATOM      1  C   UNL     1       4.142   4.475  16.926  0.00  0.00    +0.000 A 
ATOM      2  C   UNL     1       3.704   3.148  17.139  0.00  0.00    +0.000 A 
ATOM      3  C   UNL     1       2.929   2.777  18.237  0.00  0.00    +0.000 A 
ATOM      4  C   UNL     1       2.484   3.752  19.120  0.00  0.00    +0.000 A 
ATOM      5  C   UNL     1       2.857   5.087  18.885  0.00  0.00    +0.000 A 
ATOM      6  C   UNL     1       3.679   5.470  17.804  0.00  0.00    +0.000 A 
ENDROOT
BRANCH   4   7
ATOM      7  C   UNL     1       1.670   3.468  20.330  0.00  0.00    +0.000 C 
ATOM      8  C   UNL     1       2.323   2.949  21.584  0.00  0.00    +0.000 C 
ATOM      9  O   UNL     1       0.450   3.618  20.277  0.00  0.00    +0.000 OA
ENDBRANCH   4   7
BRANCH   3  10
ATOM     10  O   UNL     1       2.696   1.447  18.454  0.00  0.00    +0.000 OA
ATOM     11  H   UNL     1       2.903   1.205  19.371  0.00  0.00    +0.000 HD
ENDBRANCH   3  10
BRANCH   6  12
ATOM     12  O   UNL     1       3.950   6.805  17.861  0.00  0.00    +0.000 OA
ATOM     13  C   UNL     1       2.920   7.774  17.846  0.00  0.00    +0.000 C 
ENDBRANCH   6  12
BRANCH   1  14
ATOM     14  O   UNL     1       5.043   4.784  15.914  0.00  0.00    +0.000 OA
BRANCH  14  15
ATOM     15  C   UNL     1       6.346   4.266  16.151  0.00  0.00    +0.000 C 
BRANCH  15  16
ATOM     16  C   UNL     1       7.369   4.919  17.080  0.00  0.00    +0.000 C 
ATOM     17  O   UNL     1       7.924   4.427  18.047  0.00  0.00    +0.000 OA
BRANCH  16  19
ATOM     18  C   UNL     1       7.481   7.249  17.548  0.00  0.00    +0.000 C 
ATOM     19  O   UNL     1       7.566   6.191  16.598  0.00  0.00    +0.000 OA
ENDBRANCH  16  19
ENDBRANCH  15  16
ENDBRANCH  14  15
ENDBRANCH   1  14
TORSDOF 7
ENDMDL
MODEL 7
REMARK VINA RESULT:      -6.4      1.547      1.956
REMARK  Name = 
REMARK  10 active torsions:
REMARK  status: ('A' for Active; 'I' for Inactive)
REMARK    1  A    between atoms: C_1  and  O_2
REMARK    2  A    between atoms: O_2  and  C_3
REMARK    3  A    between atoms: C_3  and  C_5
REMARK    4  A    between atoms: C_5  and  O_6
REMARK    5  A    between atoms: O_6  and  C_7
REMARK    6  A    between atoms: C_9  and  O_10
REMARK    7  A    between atoms: C_11  and  C_12
REMARK    8  A    between atoms: C_12  and  C_13
REMARK    9  A    between atoms: C_16  and  O_17
REMARK   10  A    between atoms: O_17  and  C_18
REMARK                            x       y       z     vdW  Elec       q    Type
REMARK                         _______ _______ _______ _____ _____    ______ ____
ROOT
ATOM      1  C   UNL     1       4.055   5.180  17.374  0.00  0.00    +0.000 A 
ATOM      2  C   UNL     1       3.899   3.790  17.168  0.00  0.00    +0.000 A 
ATOM      3  C   UNL     1       2.949   3.029  17.850  0.00  0.00    +0.000 A 
ATOM      4  C   UNL     1       2.053   3.659  18.702  0.00  0.00    +0.000 A 
ATOM      5  C   UNL     1       2.153   5.051  18.867  0.00  0.00    +0.000 A 
ATOM      6  C   UNL     1       3.138   5.827  18.220  0.00  0.00    +0.000 A 
ENDROOT
BRANCH   4   7
ATOM      7  C   UNL     1       1.016   2.946  19.491  0.00  0.00    +0.000 C 
ATOM      8  C   UNL     1       1.051   2.970  20.997  0.00  0.00    +0.000 C 
ATOM      9  O   UNL     1       0.156   2.297  18.897  0.00  0.00    +0.000 OA
ENDBRANCH   4   7
BRANCH   3  10
ATOM     10  O   UNL     1       2.984   1.668  17.717  0.00  0.00    +0.000 OA
ATOM     11  H   UNL     1       3.896   1.355  17.608  0.00  0.00    +0.000 HD
ENDBRANCH   3  10
BRANCH   6  12
ATOM     12  O   UNL     1       3.059   7.129  18.620  0.00  0.00    +0.000 OA
ATOM     13  C   UNL     1       2.521   8.132  17.781  0.00  0.00    +0.000 C 
ENDBRANCH   6  12
BRANCH   1  14
ATOM     14  O   UNL     1       5.110   5.880  16.801  0.00  0.00    +0.000 OA
BRANCH  14  15
ATOM     15  C   UNL     1       6.383   5.423  17.239  0.00  0.00    +0.000 C 
BRANCH  15  16
ATOM     16  C   UNL     1       6.981   5.742  18.608  0.00  0.00    +0.000 C 
ATOM     17  O   UNL     1       6.660   5.284  19.691  0.00  0.00    +0.000 OA
BRANCH  16  19
ATOM     18  C   UNL     1       7.640   7.812  17.637  0.00  0.00    +0.000 C 
ATOM     19  O   UNL     1       7.988   6.650  18.385  0.00  0.00    +0.000 OA
ENDBRANCH  16  19
ENDBRANCH  15  16
ENDBRANCH  14  15
ENDBRANCH   1  14
TORSDOF 7
ENDMDL
MODEL 8
REMARK VINA RESULT:      -6.4      1.989      2.493
REMARK  Name = 
REMARK  10 active torsions:
REMARK  status: ('A' for Active; 'I' for Inactive)
REMARK    1  A    between atoms: C_1  and  O_2
REMARK    2  A    between atoms: O_2  and  C_3
REMARK    3  A    between atoms: C_3  and  C_5
REMARK    4  A    between atoms: C_5  and  O_6
REMARK    5  A    between atoms: O_6  and  C_7
REMARK    6  A    between atoms: C_9  and  O_10
REMARK    7  A    between atoms: C_11  and  C_12
REMARK    8  A    between atoms: C_12  and  C_13
REMARK    9  A    between atoms: C_16  and  O_17
REMARK   10  A    between atoms: O_17  and  C_18
REMARK                            x       y       z     vdW  Elec       q    Type
REMARK                         _______ _______ _______ _____ _____    ______ ____
ROOT
ATOM      1  C   UNL     1       4.657   3.815  17.250  0.00  0.00    +0.000 A 
ATOM      2  C   UNL     1       3.264   3.679  17.050  0.00  0.00    +0.000 A 
ATOM      3  C   UNL     1       2.342   3.752  18.094  0.00  0.00    +0.000 A 
ATOM      4  C   UNL     1       2.782   4.060  19.374  0.00  0.00    +0.000 A 
ATOM      5  C   UNL     1       4.157   4.263  19.577  0.00  0.00    +0.000 A 
ATOM      6  C   UNL     1       5.107   4.146  18.540  0.00  0.00    +0.000 A 
ENDROOT
BRANCH   4   7
ATOM      7  C   UNL     1       1.892   4.145  20.560  0.00  0.00    +0.000 C 
ATOM      8  C   UNL     1       2.039   3.168  21.697  0.00  0.00    +0.000 C 
ATOM      9  O   UNL     1       1.002   4.995  20.578  0.00  0.00    +0.000 OA
ENDBRANCH   4   7
BRANCH   3  10
ATOM     10  O   UNL     1       1.035   3.439  17.835  0.00  0.00    +0.000 OA
ATOM     11  H   UNL     1       0.440   4.115  18.198  0.00  0.00    +0.000 HD
ENDBRANCH   3  10
BRANCH   6  12
ATOM     12  O   UNL     1       6.370   4.311  19.028  0.00  0.00    +0.000 OA
ATOM     13  C   UNL     1       6.969   5.589  19.121  0.00  0.00    +0.000 C 
ENDBRANCH   6  12
BRANCH   1  14
ATOM     14  O   UNL     1       5.559   3.580  16.221  0.00  0.00    +0.000 OA
BRANCH  14  15
ATOM     15  C   UNL     1       5.951   4.767  15.542  0.00  0.00    +0.000 C 
BRANCH  15  16
ATOM     16  C   UNL     1       6.826   4.785  14.290  0.00  0.00    +0.000 C 
ATOM     17  O   UNL     1       7.772   5.515  14.048  0.00  0.00    +0.000 OA
BRANCH  16  19
ATOM     18  C   UNL     1       6.823   3.787  12.130  0.00  0.00    +0.000 C 
ATOM     19  O   UNL     1       6.349   3.788  13.473  0.00  0.00    +0.000 OA
ENDBRANCH  16  19
ENDBRANCH  15  16
ENDBRANCH  14  15
ENDBRANCH   1  14
TORSDOF 7
ENDMDL
MODEL 9
REMARK VINA RESULT:      -6.4      1.709      5.734
REMARK  Name = 
REMARK  10 active torsions:
REMARK  status: ('A' for Active; 'I' for Inactive)
REMARK    1  A    between atoms: C_1  and  O_2
REMARK    2  A    between atoms: O_2  and  C_3
REMARK    3  A    between atoms: C_3  and  C_5
REMARK    4  A    between atoms: C_5  and  O_6
REMARK    5  A    between atoms: O_6  and  C_7
REMARK    6  A    between atoms: C_9  and  O_10
REMARK    7  A    between atoms: C_11  and  C_12
REMARK    8  A    between atoms: C_12  and  C_13
REMARK    9  A    between atoms: C_16  and  O_17
REMARK   10  A    between atoms: O_17  and  C_18
REMARK                            x       y       z     vdW  Elec       q    Type
REMARK                         _______ _______ _______ _____ _____    ______ ____
ROOT
ATOM      1  C   UNL     1       3.857   5.604  19.307  0.00  0.00    +0.000 A 
ATOM      2  C   UNL     1       5.118   4.967  19.359  0.00  0.00    +0.000 A 
ATOM      3  C   UNL     1       5.956   4.860  18.249  0.00  0.00    +0.000 A 
ATOM      4  C   UNL     1       5.594   5.476  17.059  0.00  0.00    +0.000 A 
ATOM      5  C   UNL     1       4.373   6.169  17.009  0.00  0.00    +0.000 A 
ATOM      6  C   UNL     1       3.494   6.246  18.110  0.00  0.00    +0.000 A 
ENDROOT
BRANCH   4   7
ATOM      7  C   UNL     1       6.400   5.412  15.813  0.00  0.00    +0.000 C 
ATOM      8  C   UNL     1       5.849   4.742  14.581  0.00  0.00    +0.000 C 
ATOM      9  O   UNL     1       7.541   5.872  15.815  0.00  0.00    +0.000 OA
ENDBRANCH   4   7
BRANCH   3  10
ATOM     10  O   UNL     1       7.076   4.082  18.348  0.00  0.00    +0.000 OA
ATOM     11  H   UNL     1       7.863   4.628  18.503  0.00  0.00    +0.000 HD
ENDBRANCH   3  10
BRANCH   6  12
ATOM     12  O   UNL     1       2.351   6.905  17.763  0.00  0.00    +0.000 OA
ATOM     13  C   UNL     1       2.201   8.295  17.975  0.00  0.00    +0.000 C 
ENDBRANCH   6  12
BRANCH   1  14
ATOM     14  O   UNL     1       2.979   5.555  20.382  0.00  0.00    +0.000 OA
BRANCH  14  15
ATOM     15  C   UNL     1       1.977   4.555  20.238  0.00  0.00    +0.000 C 
BRANCH  15  16
ATOM     16  C   UNL     1       1.932   3.267  21.059  0.00  0.00    +0.000 C 
ATOM     17  O   UNL     1       2.097   3.138  22.259  0.00  0.00    +0.000 OA
BRANCH  16  19
ATOM     18  C   UNL     1       1.176   2.656  18.887  0.00  0.00    +0.000 C 
ATOM     19  O   UNL     1       1.644   2.258  20.172  0.00  0.00    +0.000 OA
ENDBRANCH  16  19
ENDBRANCH  15  16
ENDBRANCH  14  15
ENDBRANCH   1  14
TORSDOF 7
ENDMDL
