MODEL 1
REMARK VINA RESULT:      -6.5      0.000      0.000
REMARK  Name = 
REMARK  17 active torsions:
REMARK  status: ('A' for Active; 'I' for Inactive)
REMARK    1  A    between atoms: C_2  and  C_3
REMARK    2  A    between atoms: C_3  and  O_4
REMARK    3  A    between atoms: O_4  and  C_5
REMARK    4  A    between atoms: C_5  and  C_7
REMARK    5  A    between atoms: C_8  and  C_9
REMARK    6  A    between atoms: C_8  and  C_10
REMARK    7  A    between atoms: C_11  and  C_12
REMARK    8  A    between atoms: C_12  and  C_13
REMARK    9  A    between atoms: C_13  and  C_14
REMARK   10  A    between atoms: C_13  and  C_15
REMARK   11  A    between atoms: C_15  and  C_16
REMARK   12  A    between atoms: C_16  and  C_17
REMARK   13  A    between atoms: C_17  and  C_18
REMARK   14  A    between atoms: C_18  and  C_19
REMARK   15  A    between atoms: C_18  and  C_20
REMARK   16  A    between atoms: C_18  and  O_21
REMARK   17  A    between atoms: O_21  and  C_22
REMARK                            x       y       z     vdW  Elec       q    Type
REMARK                         _______ _______ _______ _____ _____    ______ ____
ROOT
ATOM      1  C   UNL     1       7.060   4.869  14.898  0.00  0.00    +0.000 C 
ATOM      2  C   UNL     1       6.311   4.541  15.966  0.00  0.00    +0.000 C 
ENDROOT
BRANCH   1   4
ATOM      3  C   UNL     1       5.878   3.449  13.318  0.00  0.00    +0.000 C 
ATOM      4  C   UNL     1       6.795   4.415  13.532  0.00  0.00    +0.000 C 
ATOM      5  C   UNL     1       7.567   5.128  12.438  0.00  0.00    +0.000 C 
BRANCH   3   6
ATOM      6  C   UNL     1       5.499   2.935  11.980  0.00  0.00    +0.000 C 
ATOM      7  O   UNL     1       6.026   2.008  11.393  0.00  0.00    +0.000 OA
BRANCH   6   8
ATOM      8  O   UNL     1       4.529   3.746  11.474  0.00  0.00    +0.000 OA
BRANCH   8   9
ATOM      9  C   UNL     1       3.372   3.050  10.992  0.00  0.00    +0.000 C 
BRANCH   9  11
ATOM     10  C   UNL     1       2.662   4.750   9.298  0.00  0.00    +0.000 C 
ATOM     11  C   UNL     1       2.992   3.488   9.610  0.00  0.00    +0.000 C 
ENDBRANCH   9  11
ENDBRANCH   8   9
ENDBRANCH   6   8
ENDBRANCH   3   6
ENDBRANCH   1   4
BRANCH   2  12
ATOM     12  C   UNL     1       6.583   4.934  17.385  0.00  0.00    +0.000 C 
BRANCH  12  13
ATOM     13  C   UNL     1       5.629   6.056  17.847  0.00  0.00    +0.000 C 
ATOM     14  C   UNL     1       4.710   6.525  16.708  0.00  0.00    +0.000 C 
BRANCH  13  15
ATOM     15  C   UNL     1       4.778   5.612  19.051  0.00  0.00    +0.000 C 
BRANCH  15  16
ATOM     16  C   UNL     1       4.711   4.096  19.279  0.00  0.00    +0.000 C 
BRANCH  16  17
ATOM     17  C   UNL     1       3.399   3.615  19.923  0.00  0.00    +0.000 C 
BRANCH  17  18
ATOM     18  C   UNL     1       2.546   2.699  19.006  0.00  0.00    +0.000 C 
ATOM     19  C   UNL     1       1.961   3.557  17.872  0.00  0.00    +0.000 C 
ATOM     20  C   UNL     1       3.414   1.576  18.418  0.00  0.00    +0.000 C 
BRANCH  18  21
ATOM     21  O   UNL     1       1.502   2.182  19.846  0.00  0.00    +0.000 OA
ATOM     22  C   UNL     1       1.308   2.809  21.104  0.00  0.00    +0.000 C 
ENDBRANCH  18  21
ENDBRANCH  17  18
ENDBRANCH  16  17
ENDBRANCH  15  16
ENDBRANCH  13  15
ENDBRANCH  12  13
ENDBRANCH   2  12
TORSDOF 12
ENDMDL
MODEL 2
REMARK VINA RESULT:      -6.4      2.832      4.465
REMARK  Name = 
REMARK  17 active torsions:
REMARK  status: ('A' for Active; 'I' for Inactive)
REMARK    1  A    between atoms: C_2  and  C_3
REMARK    2  A    between atoms: C_3  and  O_4
REMARK    3  A    between atoms: O_4  and  C_5
REMARK    4  A    between atoms: C_5  and  C_7
REMARK    5  A    between atoms: C_8  and  C_9
REMARK    6  A    between atoms: C_8  and  C_10
REMARK    7  A    between atoms: C_11  and  C_12
REMARK    8  A    between atoms: C_12  and  C_13
REMARK    9  A    between atoms: C_13  and  C_14
REMARK   10  A    between atoms: C_13  and  C_15
REMARK   11  A    between atoms: C_15  and  C_16
REMARK   12  A    between atoms: C_16  and  C_17
REMARK   13  A    between atoms: C_17  and  C_18
REMARK   14  A    between atoms: C_18  and  C_19
REMARK   15  A    between atoms: C_18  and  C_20
REMARK   16  A    between atoms: C_18  and  O_21
REMARK   17  A    between atoms: O_21  and  C_22
REMARK                            x       y       z     vdW  Elec       q    Type
REMARK                         _______ _______ _______ _____ _____    ______ ____
ROOT
ATOM      1  C   UNL     1       3.209   5.711  17.602  0.00  0.00    +0.000 C 
ATOM      2  C   UNL     1       3.057   7.014  17.901  0.00  0.00    +0.000 C 
ENDROOT
BRANCH   1   4
ATOM      3  C   UNL     1       5.502   5.918  16.820  0.00  0.00    +0.000 C 
ATOM      4  C   UNL     1       4.441   5.124  17.072  0.00  0.00    +0.000 C 
ATOM      5  C   UNL     1       4.430   3.618  16.893  0.00  0.00    +0.000 C 
BRANCH   3   6
ATOM      6  C   UNL     1       6.811   5.435  16.318  0.00  0.00    +0.000 C 
ATOM      7  O   UNL     1       7.694   4.934  16.989  0.00  0.00    +0.000 OA
BRANCH   6   8
ATOM      8  O   UNL     1       6.898   5.744  14.995  0.00  0.00    +0.000 OA
BRANCH   8   9
ATOM      9  C   UNL     1       7.266   4.641  14.156  0.00  0.00    +0.000 C 
BRANCH   9  11
ATOM     10  C   UNL     1       6.000   3.359  12.420  0.00  0.00    +0.000 C 
ATOM     11  C   UNL     1       6.068   3.903  13.644  0.00  0.00    +0.000 C 
ENDBRANCH   9  11
ENDBRANCH   8   9
ENDBRANCH   6   8
ENDBRANCH   3   6
ENDBRANCH   1   4
BRANCH   2  12
ATOM     12  C   UNL     1       1.798   7.663  18.386  0.00  0.00    +0.000 C 
BRANCH  12  13
ATOM     13  C   UNL     1       1.923   8.089  19.865  0.00  0.00    +0.000 C 
ATOM     14  C   UNL     1       1.284   9.464  20.116  0.00  0.00    +0.000 C 
BRANCH  13  15
ATOM     15  C   UNL     1       1.296   7.045  20.808  0.00  0.00    +0.000 C 
BRANCH  15  16
ATOM     16  C   UNL     1       1.992   5.678  20.822  0.00  0.00    +0.000 C 
BRANCH  16  17
ATOM     17  C   UNL     1       1.100   4.514  20.357  0.00  0.00    +0.000 C 
BRANCH  17  18
ATOM     18  C   UNL     1       1.820   3.140  20.331  0.00  0.00    +0.000 C 
ATOM     19  C   UNL     1       1.527   2.414  21.655  0.00  0.00    +0.000 C 
ATOM     20  C   UNL     1       1.316   2.297  19.150  0.00  0.00    +0.000 C 
BRANCH  18  21
ATOM     21  O   UNL     1       3.219   3.442  20.212  0.00  0.00    +0.000 OA
ATOM     22  C   UNL     1       4.127   2.352  20.252  0.00  0.00    +0.000 C 
ENDBRANCH  18  21
ENDBRANCH  17  18
ENDBRANCH  16  17
ENDBRANCH  15  16
ENDBRANCH  13  15
ENDBRANCH  12  13
ENDBRANCH   2  12
TORSDOF 12
ENDMDL
MODEL 3
REMARK VINA RESULT:      -6.1      2.179      3.423
REMARK  Name = 
REMARK  17 active torsions:
REMARK  status: ('A' for Active; 'I' for Inactive)
REMARK    1  A    between atoms: C_2  and  C_3
REMARK    2  A    between atoms: C_3  and  O_4
REMARK    3  A    between atoms: O_4  and  C_5
REMARK    4  A    between atoms: C_5  and  C_7
REMARK    5  A    between atoms: C_8  and  C_9
REMARK    6  A    between atoms: C_8  and  C_10
REMARK    7  A    between atoms: C_11  and  C_12
REMARK    8  A    between atoms: C_12  and  C_13
REMARK    9  A    between atoms: C_13  and  C_14
REMARK   10  A    between atoms: C_13  and  C_15
REMARK   11  A    between atoms: C_15  and  C_16
REMARK   12  A    between atoms: C_16  and  C_17
REMARK   13  A    between atoms: C_17  and  C_18
REMARK   14  A    between atoms: C_18  and  C_19
REMARK   15  A    between atoms: C_18  and  C_20
REMARK   16  A    between atoms: C_18  and  O_21
REMARK   17  A    between atoms: O_21  and  C_22
REMARK                            x       y       z     vdW  Elec       q    Type
REMARK                         _______ _______ _______ _____ _____    ______ ____
ROOT
ATOM      1  C   UNL     1       4.474   5.051  16.692  0.00  0.00    +0.000 C 
ATOM      2  C   UNL     1       4.074   6.116  17.412  0.00  0.00    +0.000 C 
ENDROOT
BRANCH   1   4
ATOM      3  C   UNL     1       5.820   4.855  14.677  0.00  0.00    +0.000 C 
ATOM      4  C   UNL     1       5.771   4.946  16.023  0.00  0.00    +0.000 C 
ATOM      5  C   UNL     1       6.987   4.999  16.928  0.00  0.00    +0.000 C 
BRANCH   3   6
ATOM      6  C   UNL     1       7.073   4.781  13.887  0.00  0.00    +0.000 C 
ATOM      7  O   UNL     1       8.038   5.514  14.005  0.00  0.00    +0.000 OA
BRANCH   6   8
ATOM      8  O   UNL     1       6.917   3.821  12.935  0.00  0.00    +0.000 OA
BRANCH   8   9
ATOM      9  C   UNL     1       5.554   3.590  12.550  0.00  0.00    +0.000 C 
BRANCH   9  11
ATOM     10  C   UNL     1       6.468   1.677  11.220  0.00  0.00    +0.000 C 
ATOM     11  C   UNL     1       5.423   2.401  11.648  0.00  0.00    +0.000 C 
ENDBRANCH   9  11
ENDBRANCH   8   9
ENDBRANCH   6   8
ENDBRANCH   3   6
ENDBRANCH   1   4
BRANCH   2  12
ATOM     12  C   UNL     1       2.736   6.286  18.060  0.00  0.00    +0.000 C 
BRANCH  12  13
ATOM     13  C   UNL     1       2.658   7.616  18.841  0.00  0.00    +0.000 C 
ATOM     14  C   UNL     1       1.924   8.702  18.040  0.00  0.00    +0.000 C 
BRANCH  13  15
ATOM     15  C   UNL     1       1.975   7.427  20.208  0.00  0.00    +0.000 C 
BRANCH  15  16
ATOM     16  C   UNL     1       1.500   6.000  20.509  0.00  0.00    +0.000 C 
BRANCH  16  17
ATOM     17  C   UNL     1       2.640   4.996  20.748  0.00  0.00    +0.000 C 
BRANCH  17  18
ATOM     18  C   UNL     1       2.286   3.535  20.359  0.00  0.00    +0.000 C 
ATOM     19  C   UNL     1       2.362   2.665  21.625  0.00  0.00    +0.000 C 
ATOM     20  C   UNL     1       0.872   3.471  19.764  0.00  0.00    +0.000 C 
BRANCH  18  21
ATOM     21  O   UNL     1       3.285   3.140  19.405  0.00  0.00    +0.000 OA
ATOM     22  C   UNL     1       4.349   2.328  19.875  0.00  0.00    +0.000 C 
ENDBRANCH  18  21
ENDBRANCH  17  18
ENDBRANCH  16  17
ENDBRANCH  15  16
ENDBRANCH  13  15
ENDBRANCH  12  13
ENDBRANCH   2  12
TORSDOF 12
ENDMDL
MODEL 4
REMARK VINA RESULT:      -6.0      4.444      7.670
REMARK  Name = 
REMARK  17 active torsions:
REMARK  status: ('A' for Active; 'I' for Inactive)
REMARK    1  A    between atoms: C_2  and  C_3
REMARK    2  A    between atoms: C_3  and  O_4
REMARK    3  A    between atoms: O_4  and  C_5
REMARK    4  A    between atoms: C_5  and  C_7
REMARK    5  A    between atoms: C_8  and  C_9
REMARK    6  A    between atoms: C_8  and  C_10
REMARK    7  A    between atoms: C_11  and  C_12
REMARK    8  A    between atoms: C_12  and  C_13
REMARK    9  A    between atoms: C_13  and  C_14
REMARK   10  A    between atoms: C_13  and  C_15
REMARK   11  A    between atoms: C_15  and  C_16
REMARK   12  A    between atoms: C_16  and  C_17
REMARK   13  A    between atoms: C_17  and  C_18
REMARK   14  A    between atoms: C_18  and  C_19
REMARK   15  A    between atoms: C_18  and  C_20
REMARK   16  A    between atoms: C_18  and  O_21
REMARK   17  A    between atoms: O_21  and  C_22
REMARK                            x       y       z     vdW  Elec       q    Type
REMARK                         _______ _______ _______ _____ _____    ______ ____
ROOT
ATOM      1  C   UNL     1       2.451   6.376  20.299  0.00  0.00    +0.000 C 
ATOM      2  C   UNL     1       1.689   5.269  20.378  0.00  0.00    +0.000 C 
ENDROOT
BRANCH   1   4
ATOM      3  C   UNL     1       2.108   8.099  18.619  0.00  0.00    +0.000 C 
ATOM      4  C   UNL     1       1.956   7.693  19.897  0.00  0.00    +0.000 C 
ATOM      5  C   UNL     1       1.252   8.491  20.977  0.00  0.00    +0.000 C 
BRANCH   3   6
ATOM      6  C   UNL     1       1.616   9.393  18.087  0.00  0.00    +0.000 C 
ATOM      7  O   UNL     1       2.264  10.419  17.989  0.00  0.00    +0.000 OA
BRANCH   6   8
ATOM      8  O   UNL     1       0.286   9.266  17.826  0.00  0.00    +0.000 OA
BRANCH   8   9
ATOM      9  C   UNL     1      -0.516  10.350  18.315  0.00  0.00    +0.000 C 
BRANCH   9  11
ATOM     10  C   UNL     1      -2.338   9.892  16.663  0.00  0.00    +0.000 C 
ATOM     11  C   UNL     1      -1.951  10.212  17.906  0.00  0.00    +0.000 C 
ENDBRANCH   9  11
ENDBRANCH   8   9
ENDBRANCH   6   8
ENDBRANCH   3   6
ENDBRANCH   1   4
BRANCH   2  12
ATOM     12  C   UNL     1       2.168   3.894  20.726  0.00  0.00    +0.000 C 
BRANCH  12  13
ATOM     13  C   UNL     1       2.270   3.004  19.469  0.00  0.00    +0.000 C 
ATOM     14  C   UNL     1       1.207   3.372  18.423  0.00  0.00    +0.000 C 
BRANCH  13  15
ATOM     15  C   UNL     1       3.672   3.083  18.835  0.00  0.00    +0.000 C 
BRANCH  15  16
ATOM     16  C   UNL     1       3.717   3.687  17.425  0.00  0.00    +0.000 C 
BRANCH  16  17
ATOM     17  C   UNL     1       4.062   5.185  17.395  0.00  0.00    +0.000 C 
BRANCH  17  18
ATOM     18  C   UNL     1       5.438   5.502  16.751  0.00  0.00    +0.000 C 
ATOM     19  C   UNL     1       6.123   4.173  16.394  0.00  0.00    +0.000 C 
ATOM     20  C   UNL     1       5.250   6.350  15.484  0.00  0.00    +0.000 C 
BRANCH  18  21
ATOM     21  O   UNL     1       6.179   6.206  17.759  0.00  0.00    +0.000 OA
ATOM     22  C   UNL     1       6.590   5.469  18.900  0.00  0.00    +0.000 C 
ENDBRANCH  18  21
ENDBRANCH  17  18
ENDBRANCH  16  17
ENDBRANCH  15  16
ENDBRANCH  13  15
ENDBRANCH  12  13
ENDBRANCH   2  12
TORSDOF 12
ENDMDL
MODEL 5
REMARK VINA RESULT:      -6.0      1.823      3.202
REMARK  Name = 
REMARK  17 active torsions:
REMARK  status: ('A' for Active; 'I' for Inactive)
REMARK    1  A    between atoms: C_2  and  C_3
REMARK    2  A    between atoms: C_3  and  O_4
REMARK    3  A    between atoms: O_4  and  C_5
REMARK    4  A    between atoms: C_5  and  C_7
REMARK    5  A    between atoms: C_8  and  C_9
REMARK    6  A    between atoms: C_8  and  C_10
REMARK    7  A    between atoms: C_11  and  C_12
REMARK    8  A    between atoms: C_12  and  C_13
REMARK    9  A    between atoms: C_13  and  C_14
REMARK   10  A    between atoms: C_13  and  C_15
REMARK   11  A    between atoms: C_15  and  C_16
REMARK   12  A    between atoms: C_16  and  C_17
REMARK   13  A    between atoms: C_17  and  C_18
REMARK   14  A    between atoms: C_18  and  C_19
REMARK   15  A    between atoms: C_18  and  C_20
REMARK   16  A    between atoms: C_18  and  O_21
REMARK   17  A    between atoms: O_21  and  C_22
REMARK                            x       y       z     vdW  Elec       q    Type
REMARK                         _______ _______ _______ _____ _____    ______ ____
ROOT
ATOM      1  C   UNL     1       5.299   4.772  17.828  0.00  0.00    +0.000 C 
ATOM      2  C   UNL     1       4.773   5.926  18.278  0.00  0.00    +0.000 C 
ENDROOT
BRANCH   1   4
ATOM      3  C   UNL     1       5.986   4.824  15.496  0.00  0.00    +0.000 C 
ATOM      4  C   UNL     1       6.330   4.682  16.794  0.00  0.00    +0.000 C 
ATOM      5  C   UNL     1       7.748   4.477  17.291  0.00  0.00    +0.000 C 
BRANCH   3   6
ATOM      6  C   UNL     1       6.945   4.790  14.366  0.00  0.00    +0.000 C 
ATOM      7  O   UNL     1       7.826   5.601  14.150  0.00  0.00    +0.000 OA
BRANCH   6   8
ATOM      8  O   UNL     1       6.603   3.753  13.553  0.00  0.00    +0.000 OA
BRANCH   8   9
ATOM      9  C   UNL     1       5.220   3.734  13.173  0.00  0.00    +0.000 C 
BRANCH   9  11
ATOM     10  C   UNL     1       3.882   3.267  11.111  0.00  0.00    +0.000 C 
ATOM     11  C   UNL     1       5.022   3.151  11.808  0.00  0.00    +0.000 C 
ENDBRANCH   9  11
ENDBRANCH   8   9
ENDBRANCH   6   8
ENDBRANCH   3   6
ENDBRANCH   1   4
BRANCH   2  12
ATOM     12  C   UNL     1       3.676   6.057  19.289  0.00  0.00    +0.000 C 
BRANCH  12  13
ATOM     13  C   UNL     1       2.406   6.668  18.659  0.00  0.00    +0.000 C 
ATOM     14  C   UNL     1       2.662   8.086  18.126  0.00  0.00    +0.000 C 
BRANCH  13  15
ATOM     15  C   UNL     1       1.853   5.780  17.529  0.00  0.00    +0.000 C 
BRANCH  15  16
ATOM     16  C   UNL     1       1.576   4.323  17.922  0.00  0.00    +0.000 C 
BRANCH  16  17
ATOM     17  C   UNL     1       1.366   4.109  19.431  0.00  0.00    +0.000 C 
BRANCH  17  18
ATOM     18  C   UNL     1       1.818   2.713  19.938  0.00  0.00    +0.000 C 
ATOM     19  C   UNL     1       1.668   2.682  21.468  0.00  0.00    +0.000 C 
ATOM     20  C   UNL     1       0.954   1.612  19.306  0.00  0.00    +0.000 C 
BRANCH  18  21
ATOM     21  O   UNL     1       3.197   2.594  19.556  0.00  0.00    +0.000 OA
ATOM     22  C   UNL     1       4.132   2.289  20.579  0.00  0.00    +0.000 C 
ENDBRANCH  18  21
ENDBRANCH  17  18
ENDBRANCH  16  17
ENDBRANCH  15  16
ENDBRANCH  13  15
ENDBRANCH  12  13
ENDBRANCH   2  12
TORSDOF 12
ENDMDL
MODEL 6
REMARK VINA RESULT:      -6.0      6.031      8.431
REMARK  Name = 
REMARK  17 active torsions:
REMARK  status: ('A' for Active; 'I' for Inactive)
REMARK    1  A    between atoms: C_2  and  C_3
REMARK    2  A    between atoms: C_3  and  O_4
REMARK    3  A    between atoms: O_4  and  C_5
REMARK    4  A    between atoms: C_5  and  C_7
REMARK    5  A    between atoms: C_8  and  C_9
REMARK    6  A    between atoms: C_8  and  C_10
REMARK    7  A    between atoms: C_11  and  C_12
REMARK    8  A    between atoms: C_12  and  C_13
REMARK    9  A    between atoms: C_13  and  C_14
REMARK   10  A    between atoms: C_13  and  C_15
REMARK   11  A    between atoms: C_15  and  C_16
REMARK   12  A    between atoms: C_16  and  C_17
REMARK   13  A    between atoms: C_17  and  C_18
REMARK   14  A    between atoms: C_18  and  C_19
REMARK   15  A    between atoms: C_18  and  C_20
REMARK   16  A    between atoms: C_18  and  O_21
REMARK   17  A    between atoms: O_21  and  C_22
REMARK                            x       y       z     vdW  Elec       q    Type
REMARK                         _______ _______ _______ _____ _____    ______ ____
ROOT
ATOM      1  C   UNL     1       8.464   9.313  17.676  0.00  0.00    +0.000 C 
ATOM      2  C   UNL     1       8.044   8.144  18.195  0.00  0.00    +0.000 C 
ENDROOT
BRANCH   1   4
ATOM      3  C   UNL     1       9.365  10.346  19.684  0.00  0.00    +0.000 C 
ATOM      4  C   UNL     1       8.796  10.497  18.470  0.00  0.00    +0.000 C 
ATOM      5  C   UNL     1       8.505  11.833  17.815  0.00  0.00    +0.000 C 
BRANCH   3   6
ATOM      6  C   UNL     1       9.779  11.468  20.561  0.00  0.00    +0.000 C 
ATOM      7  O   UNL     1       9.035  12.196  21.192  0.00  0.00    +0.000 OA
BRANCH   6   8
ATOM      8  O   UNL     1      11.129  11.610  20.457  0.00  0.00    +0.000 OA
BRANCH   8   9
ATOM      9  C   UNL     1      11.543  12.773  19.726  0.00  0.00    +0.000 C 
BRANCH   9  11
ATOM     10  C   UNL     1      11.910  13.051  17.267  0.00  0.00    +0.000 C 
ATOM     11  C   UNL     1      12.176  12.415  18.417  0.00  0.00    +0.000 C 
ENDBRANCH   9  11
ENDBRANCH   8   9
ENDBRANCH   6   8
ENDBRANCH   3   6
ENDBRANCH   1   4
BRANCH   2  12
ATOM     12  C   UNL     1       7.637   6.932  17.416  0.00  0.00    +0.000 C 
BRANCH  12  13
ATOM     13  C   UNL     1       6.199   6.497  17.771  0.00  0.00    +0.000 C 
ATOM     14  C   UNL     1       5.235   6.707  16.593  0.00  0.00    +0.000 C 
BRANCH  13  15
ATOM     15  C   UNL     1       6.152   5.026  18.225  0.00  0.00    +0.000 C 
BRANCH  15  16
ATOM     16  C   UNL     1       4.821   4.307  17.969  0.00  0.00    +0.000 C 
BRANCH  16  17
ATOM     17  C   UNL     1       4.309   3.487  19.165  0.00  0.00    +0.000 C 
BRANCH  17  18
ATOM     18  C   UNL     1       2.822   3.060  19.047  0.00  0.00    +0.000 C 
ATOM     19  C   UNL     1       1.977   4.316  18.777  0.00  0.00    +0.000 C 
ATOM     20  C   UNL     1       2.647   2.055  17.899  0.00  0.00    +0.000 C 
BRANCH  18  21
ATOM     21  O   UNL     1       2.487   2.481  20.318  0.00  0.00    +0.000 OA
ATOM     22  C   UNL     1       1.368   3.020  21.004  0.00  0.00    +0.000 C 
ENDBRANCH  18  21
ENDBRANCH  17  18
ENDBRANCH  16  17
ENDBRANCH  15  16
ENDBRANCH  13  15
ENDBRANCH  12  13
ENDBRANCH   2  12
TORSDOF 12
ENDMDL
MODEL 7
REMARK VINA RESULT:      -5.9      5.292      9.103
REMARK  Name = 
REMARK  17 active torsions:
REMARK  status: ('A' for Active; 'I' for Inactive)
REMARK    1  A    between atoms: C_2  and  C_3
REMARK    2  A    between atoms: C_3  and  O_4
REMARK    3  A    between atoms: O_4  and  C_5
REMARK    4  A    between atoms: C_5  and  C_7
REMARK    5  A    between atoms: C_8  and  C_9
REMARK    6  A    between atoms: C_8  and  C_10
REMARK    7  A    between atoms: C_11  and  C_12
REMARK    8  A    between atoms: C_12  and  C_13
REMARK    9  A    between atoms: C_13  and  C_14
REMARK   10  A    between atoms: C_13  and  C_15
REMARK   11  A    between atoms: C_15  and  C_16
REMARK   12  A    between atoms: C_16  and  C_17
REMARK   13  A    between atoms: C_17  and  C_18
REMARK   14  A    between atoms: C_18  and  C_19
REMARK   15  A    between atoms: C_18  and  C_20
REMARK   16  A    between atoms: C_18  and  O_21
REMARK   17  A    between atoms: O_21  and  C_22
REMARK                            x       y       z     vdW  Elec       q    Type
REMARK                         _______ _______ _______ _____ _____    ______ ____
ROOT
ATOM      1  C   UNL     1       1.542   8.800  17.843  0.00  0.00    +0.000 C 
ATOM      2  C   UNL     1       2.344   8.060  18.630  0.00  0.00    +0.000 C 
ENDROOT
BRANCH   1   4
ATOM      3  C   UNL     1      -0.329  10.230  18.445  0.00  0.00    +0.000 C 
ATOM      4  C   UNL     1       0.995  10.105  18.215  0.00  0.00    +0.000 C 
ATOM      5  C   UNL     1       2.004  11.227  18.359  0.00  0.00    +0.000 C 
BRANCH   3   6
ATOM      6  C   UNL     1      -0.992  11.490  18.863  0.00  0.00    +0.000 C 
ATOM      7  O   UNL     1      -1.071  12.509  18.203  0.00  0.00    +0.000 OA
BRANCH   6   8
ATOM      8  O   UNL     1      -1.403  11.344  20.152  0.00  0.00    +0.000 OA
BRANCH   8   9
ATOM      9  C   UNL     1      -0.388  11.618  21.128  0.00  0.00    +0.000 C 
BRANCH   9  11
ATOM     10  C   UNL     1       0.787   9.565  21.943  0.00  0.00    +0.000 C 
ATOM     11  C   UNL     1      -0.194  10.470  22.071  0.00  0.00    +0.000 C 
ENDBRANCH   9  11
ENDBRANCH   8   9
ENDBRANCH   6   8
ENDBRANCH   3   6
ENDBRANCH   1   4
BRANCH   2  12
ATOM     12  C   UNL     1       2.874   6.696  18.312  0.00  0.00    +0.000 C 
BRANCH  12  13
ATOM     13  C   UNL     1       3.263   5.934  19.597  0.00  0.00    +0.000 C 
ATOM     14  C   UNL     1       2.025   5.483  20.386  0.00  0.00    +0.000 C 
BRANCH  13  15
ATOM     15  C   UNL     1       4.151   4.715  19.282  0.00  0.00    +0.000 C 
BRANCH  15  16
ATOM     16  C   UNL     1       5.612   5.042  18.946  0.00  0.00    +0.000 C 
BRANCH  16  17
ATOM     17  C   UNL     1       6.049   4.591  17.542  0.00  0.00    +0.000 C 
BRANCH  17  18
ATOM     18  C   UNL     1       6.480   5.756  16.611  0.00  0.00    +0.000 C 
ATOM     19  C   UNL     1       5.242   6.239  15.837  0.00  0.00    +0.000 C 
ATOM     20  C   UNL     1       7.064   6.910  17.439  0.00  0.00    +0.000 C 
BRANCH  18  21
ATOM     21  O   UNL     1       7.454   5.193  15.719  0.00  0.00    +0.000 OA
ATOM     22  C   UNL     1       6.997   4.754  14.449  0.00  0.00    +0.000 C 
ENDBRANCH  18  21
ENDBRANCH  17  18
ENDBRANCH  16  17
ENDBRANCH  15  16
ENDBRANCH  13  15
ENDBRANCH  12  13
ENDBRANCH   2  12
TORSDOF 12
ENDMDL
MODEL 8
REMARK VINA RESULT:      -5.9      2.357      3.592
REMARK  Name = 
REMARK  17 active torsions:
REMARK  status: ('A' for Active; 'I' for Inactive)
REMARK    1  A    between atoms: C_2  and  C_3
REMARK    2  A    between atoms: C_3  and  O_4
REMARK    3  A    between atoms: O_4  and  C_5
REMARK    4  A    between atoms: C_5  and  C_7
REMARK    5  A    between atoms: C_8  and  C_9
REMARK    6  A    between atoms: C_8  and  C_10
REMARK    7  A    between atoms: C_11  and  C_12
REMARK    8  A    between atoms: C_12  and  C_13
REMARK    9  A    between atoms: C_13  and  C_14
REMARK   10  A    between atoms: C_13  and  C_15
REMARK   11  A    between atoms: C_15  and  C_16
REMARK   12  A    between atoms: C_16  and  C_17
REMARK   13  A    between atoms: C_17  and  C_18
REMARK   14  A    between atoms: C_18  and  C_19
REMARK   15  A    between atoms: C_18  and  C_20
REMARK   16  A    between atoms: C_18  and  O_21
REMARK   17  A    between atoms: O_21  and  C_22
REMARK                            x       y       z     vdW  Elec       q    Type
REMARK                         _______ _______ _______ _____ _____    ______ ____
ROOT
ATOM      1  C   UNL     1       4.585   6.615  17.652  0.00  0.00    +0.000 C 
ATOM      2  C   UNL     1       3.364   6.767  17.106  0.00  0.00    +0.000 C 
ENDROOT
BRANCH   1   4
ATOM      3  C   UNL     1       5.719   5.426  15.861  0.00  0.00    +0.000 C 
ATOM      4  C   UNL     1       5.794   6.289  16.896  0.00  0.00    +0.000 C 
ATOM      5  C   UNL     1       7.057   7.009  17.327  0.00  0.00    +0.000 C 
BRANCH   3   6
ATOM      6  C   UNL     1       6.866   5.048  15.000  0.00  0.00    +0.000 C 
ATOM      7  O   UNL     1       7.874   5.706  14.820  0.00  0.00    +0.000 OA
BRANCH   6   8
ATOM      8  O   UNL     1       6.552   3.886  14.363  0.00  0.00    +0.000 OA
BRANCH   8   9
ATOM      9  C   UNL     1       5.349   3.949  13.584  0.00  0.00    +0.000 C 
BRANCH   9  11
ATOM     10  C   UNL     1       4.499   3.060  11.405  0.00  0.00    +0.000 C 
ATOM     11  C   UNL     1       5.519   3.311  12.240  0.00  0.00    +0.000 C 
ENDBRANCH   9  11
ENDBRANCH   8   9
ENDBRANCH   6   8
ENDBRANCH   3   6
ENDBRANCH   1   4
BRANCH   2  12
ATOM     12  C   UNL     1       2.095   7.040  17.851  0.00  0.00    +0.000 C 
BRANCH  12  13
ATOM     13  C   UNL     1       2.329   8.035  19.008  0.00  0.00    +0.000 C 
ATOM     14  C   UNL     1       1.434   9.277  18.879  0.00  0.00    +0.000 C 
BRANCH  13  15
ATOM     15  C   UNL     1       2.102   7.370  20.378  0.00  0.00    +0.000 C 
BRANCH  15  16
ATOM     16  C   UNL     1       1.524   5.950  20.326  0.00  0.00    +0.000 C 
BRANCH  16  17
ATOM     17  C   UNL     1       2.446   4.875  20.926  0.00  0.00    +0.000 C 
BRANCH  17  18
ATOM     18  C   UNL     1       2.673   3.651  19.999  0.00  0.00    +0.000 C 
ATOM     19  C   UNL     1       1.584   3.656  18.914  0.00  0.00    +0.000 C 
ATOM     20  C   UNL     1       4.062   3.728  19.347  0.00  0.00    +0.000 C 
BRANCH  18  21
ATOM     21  O   UNL     1       2.546   2.499  20.847  0.00  0.00    +0.000 OA
ATOM     22  C   UNL     1       1.468   2.486  21.770  0.00  0.00    +0.000 C 
ENDBRANCH  18  21
ENDBRANCH  17  18
ENDBRANCH  16  17
ENDBRANCH  15  16
ENDBRANCH  13  15
ENDBRANCH  12  13
ENDBRANCH   2  12
TORSDOF 12
ENDMDL
MODEL 9
REMARK VINA RESULT:      -5.9      4.974      8.298
REMARK  Name = 
REMARK  17 active torsions:
REMARK  status: ('A' for Active; 'I' for Inactive)
REMARK    1  A    between atoms: C_2  and  C_3
REMARK    2  A    between atoms: C_3  and  O_4
REMARK    3  A    between atoms: O_4  and  C_5
REMARK    4  A    between atoms: C_5  and  C_7
REMARK    5  A    between atoms: C_8  and  C_9
REMARK    6  A    between atoms: C_8  and  C_10
REMARK    7  A    between atoms: C_11  and  C_12
REMARK    8  A    between atoms: C_12  and  C_13
REMARK    9  A    between atoms: C_13  and  C_14
REMARK   10  A    between atoms: C_13  and  C_15
REMARK   11  A    between atoms: C_15  and  C_16
REMARK   12  A    between atoms: C_16  and  C_17
REMARK   13  A    between atoms: C_17  and  C_18
REMARK   14  A    between atoms: C_18  and  C_19
REMARK   15  A    between atoms: C_18  and  C_20
REMARK   16  A    between atoms: C_18  and  O_21
REMARK   17  A    between atoms: O_21  and  C_22
REMARK                            x       y       z     vdW  Elec       q    Type
REMARK                         _______ _______ _______ _____ _____    ______ ____
ROOT
ATOM      1  C   UNL     1       1.991   7.434  19.869  0.00  0.00    +0.000 C 
ATOM      2  C   UNL     1       2.683   6.480  19.219  0.00  0.00    +0.000 C 
ENDROOT
BRANCH   1   4
ATOM      3  C   UNL     1       1.150   9.706  20.075  0.00  0.00    +0.000 C 
ATOM      4  C   UNL     1       1.590   8.711  19.276  0.00  0.00    +0.000 C 
ATOM      5  C   UNL     1       1.753   8.821  17.773  0.00  0.00    +0.000 C 
BRANCH   3   6
ATOM      6  C   UNL     1       0.751  11.051  19.595  0.00  0.00    +0.000 C 
ATOM      7  O   UNL     1       1.506  11.958  19.298  0.00  0.00    +0.000 OA
BRANCH   6   8
ATOM      8  O   UNL     1      -0.607  11.133  19.645  0.00  0.00    +0.000 OA
BRANCH   8   9
ATOM      9  C   UNL     1      -1.237  11.251  18.362  0.00  0.00    +0.000 C 
BRANCH   9  11
ATOM     10  C   UNL     1      -2.391   9.721  16.753  0.00  0.00    +0.000 C 
ATOM     11  C   UNL     1      -2.013  10.020  18.004  0.00  0.00    +0.000 C 
ENDBRANCH   9  11
ENDBRANCH   8   9
ENDBRANCH   6   8
ENDBRANCH   3   6
ENDBRANCH   1   4
BRANCH   2  12
ATOM     12  C   UNL     1       3.164   5.189  19.806  0.00  0.00    +0.000 C 
BRANCH  12  13
ATOM     13  C   UNL     1       2.807   3.994  18.897  0.00  0.00    +0.000 C 
ATOM     14  C   UNL     1       1.287   3.809  18.772  0.00  0.00    +0.000 C 
BRANCH  13  15
ATOM     15  C   UNL     1       3.429   4.147  17.496  0.00  0.00    +0.000 C 
BRANCH  15  16
ATOM     16  C   UNL     1       4.903   3.733  17.388  0.00  0.00    +0.000 C 
BRANCH  16  17
ATOM     17  C   UNL     1       5.894   4.898  17.549  0.00  0.00    +0.000 C 
BRANCH  17  18
ATOM     18  C   UNL     1       6.224   5.633  16.223  0.00  0.00    +0.000 C 
ATOM     19  C   UNL     1       6.371   4.582  15.110  0.00  0.00    +0.000 C 
ATOM     20  C   UNL     1       5.101   6.619  15.867  0.00  0.00    +0.000 C 
BRANCH  18  21
ATOM     21  O   UNL     1       7.471   6.307  16.458  0.00  0.00    +0.000 OA
ATOM     22  C   UNL     1       7.505   7.267  17.503  0.00  0.00    +0.000 C 
ENDBRANCH  18  21
ENDBRANCH  17  18
ENDBRANCH  16  17
ENDBRANCH  15  16
ENDBRANCH  13  15
ENDBRANCH  12  13
ENDBRANCH   2  12
TORSDOF 12
ENDMDL
