MODEL 1
REMARK VINA RESULT:      -7.6      0.000      0.000
REMARK  Name = 
REMARK  7 active torsions:
REMARK  status: ('A' for Active; 'I' for Inactive)
REMARK    1  A    between atoms: C_2  and  C_3
REMARK    2  A    between atoms: C_3  and  O_4
REMARK    3  A    between atoms: O_4  and  C_5
REMARK    4  A    between atoms: C_5  and  C_7
REMARK    5  A    between atoms: C_8  and  C_9
REMARK    6  A    between atoms: C_12  and  C_13
REMARK    7  A    between atoms: N_19  and  C_20
REMARK                            x       y       z     vdW  Elec       q    Type
REMARK                         _______ _______ _______ _____ _____    ______ ____
ROOT
ATOM      1  C   UNL     1       6.317   5.959  17.651  0.00  0.00    +0.000 C 
ATOM      2  C   UNL     1       5.005   6.229  17.593  0.00  0.00    +0.000 C 
ENDROOT
BRANCH   2   3
ATOM      3  C   UNL     1       4.028   5.350  18.226  0.00  0.00    +0.000 A 
ATOM      4  C   UNL     1       2.675   5.467  17.898  0.00  0.00    +0.000 A 
ATOM      5  C   UNL     1       1.732   4.633  18.504  0.00  0.00    +0.000 A 
ATOM      6  C   UNL     1       2.128   3.674  19.449  0.00  0.00    +0.000 A 
ATOM      7  C   UNL     1       3.488   3.569  19.777  0.00  0.00    +0.000 A 
ATOM      8  C   UNL     1       4.432   4.401  19.170  0.00  0.00    +0.000 A 
BRANCH   6   9
ATOM      9  C   UNL     1       1.118   2.764  20.105  0.00  0.00    +0.000 C 
ATOM     10  F   UNL     1       1.606   1.524  20.387  0.00  0.00    +0.000 F 
ATOM     11  F   UNL     1       0.661   3.262  21.286  0.00  0.00    +0.000 F 
ATOM     12  F   UNL     1       0.017   2.565  19.331  0.00  0.00    +0.000 F 
ENDBRANCH   6   9
ENDBRANCH   2   3
BRANCH   1  13
ATOM     13  C   UNL     1       7.271   6.843  16.961  0.00  0.00    +0.000 C 
ATOM     14  O   UNL     1       7.430   8.032  17.187  0.00  0.00    +0.000 OA
BRANCH  13  15
ATOM     15  O   UNL     1       7.863   6.132  15.972  0.00  0.00    +0.000 OA
BRANCH  15  16
ATOM     16  C   UNL     1       7.153   4.951  15.593  0.00  0.00    +0.000 C 
BRANCH  16  18
ATOM     17  O   UNL     1       7.664   5.615  13.326  0.00  0.00    +0.000 OA
ATOM     18  C   UNL     1       7.053   4.851  14.070  0.00  0.00    +0.000 C 
ATOM     19  N   UNL     1       6.263   3.802  13.630  0.00  0.00    +0.000 N 
ATOM     20  H   UNL     1       6.037   3.085  14.321  0.00  0.00    +0.000 HD
BRANCH  19  21
ATOM     21  C   UNL     1       6.207   3.421  12.252  0.00  0.00    +0.000 C 
ATOM     22  C   UNL     1       5.627   2.087  11.865  0.00  0.00    +0.000 C 
ATOM     23  C   UNL     1       4.890   3.350  11.529  0.00  0.00    +0.000 C 
ENDBRANCH  19  21
ENDBRANCH  16  18
ENDBRANCH  15  16
ENDBRANCH  13  15
ENDBRANCH   1  13
TORSDOF 7
ENDMDL
MODEL 2
REMARK VINA RESULT:      -7.6      0.908      1.328
REMARK  Name = 
REMARK  7 active torsions:
REMARK  status: ('A' for Active; 'I' for Inactive)
REMARK    1  A    between atoms: C_2  and  C_3
REMARK    2  A    between atoms: C_3  and  O_4
REMARK    3  A    between atoms: O_4  and  C_5
REMARK    4  A    between atoms: C_5  and  C_7
REMARK    5  A    between atoms: C_8  and  C_9
REMARK    6  A    between atoms: C_12  and  C_13
REMARK    7  A    between atoms: N_19  and  C_20
REMARK                            x       y       z     vdW  Elec       q    Type
REMARK                         _______ _______ _______ _____ _____    ______ ____
ROOT
ATOM      1  C   UNL     1       6.160   6.161  17.574  0.00  0.00    +0.000 C 
ATOM      2  C   UNL     1       6.171   5.430  18.698  0.00  0.00    +0.000 C 
ENDROOT
BRANCH   2   3
ATOM      3  C   UNL     1       4.950   4.817  19.209  0.00  0.00    +0.000 A 
ATOM      4  C   UNL     1       4.847   3.426  19.277  0.00  0.00    +0.000 A 
ATOM      5  C   UNL     1       3.679   2.831  19.759  0.00  0.00    +0.000 A 
ATOM      6  C   UNL     1       2.595   3.619  20.176  0.00  0.00    +0.000 A 
ATOM      7  C   UNL     1       2.705   5.015  20.098  0.00  0.00    +0.000 A 
ATOM      8  C   UNL     1       3.874   5.611  19.617  0.00  0.00    +0.000 A 
BRANCH   6   9
ATOM      9  C   UNL     1       1.331   2.987  20.704  0.00  0.00    +0.000 C 
ATOM     10  F   UNL     1       1.385   2.690  22.033  0.00  0.00    +0.000 F 
ATOM     11  F   UNL     1       0.243   3.789  20.546  0.00  0.00    +0.000 F 
ATOM     12  F   UNL     1       1.030   1.819  20.074  0.00  0.00    +0.000 F 
ENDBRANCH   6   9
ENDBRANCH   2   3
BRANCH   1  13
ATOM     13  C   UNL     1       7.402   6.803  17.115  0.00  0.00    +0.000 C 
ATOM     14  O   UNL     1       7.947   7.760  17.644  0.00  0.00    +0.000 OA
BRANCH  13  15
ATOM     15  O   UNL     1       7.777   6.213  15.955  0.00  0.00    +0.000 OA
BRANCH  15  16
ATOM     16  C   UNL     1       6.949   5.117  15.562  0.00  0.00    +0.000 C 
BRANCH  16  18
ATOM     17  O   UNL     1       7.767   5.569  13.333  0.00  0.00    +0.000 OA
ATOM     18  C   UNL     1       7.012   4.913  14.048  0.00  0.00    +0.000 C 
ATOM     19  N   UNL     1       6.189   3.900  13.585  0.00  0.00    +0.000 N 
ATOM     20  H   UNL     1       5.826   3.256  14.290  0.00  0.00    +0.000 HD
BRANCH  19  21
ATOM     21  C   UNL     1       6.255   3.424  12.238  0.00  0.00    +0.000 C 
ATOM     22  C   UNL     1       5.570   2.137  11.862  0.00  0.00    +0.000 C 
ATOM     23  C   UNL     1       5.036   3.446  11.357  0.00  0.00    +0.000 C 
ENDBRANCH  19  21
ENDBRANCH  16  18
ENDBRANCH  15  16
ENDBRANCH  13  15
ENDBRANCH   1  13
TORSDOF 7
ENDMDL
MODEL 3
REMARK VINA RESULT:      -7.5      4.032      5.908
REMARK  Name = 
REMARK  7 active torsions:
REMARK  status: ('A' for Active; 'I' for Inactive)
REMARK    1  A    between atoms: C_2  and  C_3
REMARK    2  A    between atoms: C_3  and  O_4
REMARK    3  A    between atoms: O_4  and  C_5
REMARK    4  A    between atoms: C_5  and  C_7
REMARK    5  A    between atoms: C_8  and  C_9
REMARK    6  A    between atoms: C_12  and  C_13
REMARK    7  A    between atoms: N_19  and  C_20
REMARK                            x       y       z     vdW  Elec       q    Type
REMARK                         _______ _______ _______ _____ _____    ______ ____
ROOT
ATOM      1  C   UNL     1       4.372   6.510  17.754  0.00  0.00    +0.000 C 
ATOM      2  C   UNL     1       3.214   7.149  17.531  0.00  0.00    +0.000 C 
ENDROOT
BRANCH   2   3
ATOM      3  C   UNL     1       2.424   7.681  18.637  0.00  0.00    +0.000 A 
ATOM      4  C   UNL     1       1.791   8.919  18.505  0.00  0.00    +0.000 A 
ATOM      5  C   UNL     1       1.038   9.438  19.560  0.00  0.00    +0.000 A 
ATOM      6  C   UNL     1       0.908   8.727  20.763  0.00  0.00    +0.000 A 
ATOM      7  C   UNL     1       1.553   7.488  20.888  0.00  0.00    +0.000 A 
ATOM      8  C   UNL     1       2.305   6.967  19.833  0.00  0.00    +0.000 A 
BRANCH   6   9
ATOM      9  C   UNL     1       0.092   9.276  21.907  0.00  0.00    +0.000 C 
ATOM     10  F   UNL     1      -0.496  10.474  21.631  0.00  0.00    +0.000 F 
ATOM     11  F   UNL     1      -0.920   8.440  22.271  0.00  0.00    +0.000 F 
ATOM     12  F   UNL     1       0.835   9.475  23.030  0.00  0.00    +0.000 F 
ENDBRANCH   6   9
ENDBRANCH   2   3
BRANCH   1  13
ATOM     13  C   UNL     1       5.119   5.946  16.618  0.00  0.00    +0.000 C 
ATOM     14  O   UNL     1       6.053   6.483  16.044  0.00  0.00    +0.000 OA
BRANCH  13  15
ATOM     15  O   UNL     1       4.527   4.781  16.262  0.00  0.00    +0.000 OA
BRANCH  15  16
ATOM     16  C   UNL     1       4.612   3.755  17.253  0.00  0.00    +0.000 C 
BRANCH  16  18
ATOM     17  O   UNL     1       2.318   3.055  16.956  0.00  0.00    +0.000 OA
ATOM     18  C   UNL     1       3.216   3.360  17.738  0.00  0.00    +0.000 C 
ATOM     19  N   UNL     1       3.091   3.331  19.116  0.00  0.00    +0.000 N 
ATOM     20  H   UNL     1       3.962   3.334  19.650  0.00  0.00    +0.000 HD
BRANCH  19  21
ATOM     21  C   UNL     1       1.932   2.795  19.762  0.00  0.00    +0.000 C 
ATOM     22  C   UNL     1       1.882   2.709  21.264  0.00  0.00    +0.000 C 
ATOM     23  C   UNL     1       1.006   3.689  20.540  0.00  0.00    +0.000 C 
ENDBRANCH  19  21
ENDBRANCH  16  18
ENDBRANCH  15  16
ENDBRANCH  13  15
ENDBRANCH   1  13
TORSDOF 7
ENDMDL
MODEL 4
REMARK VINA RESULT:      -7.4      1.353      2.030
REMARK  Name = 
REMARK  7 active torsions:
REMARK  status: ('A' for Active; 'I' for Inactive)
REMARK    1  A    between atoms: C_2  and  C_3
REMARK    2  A    between atoms: C_3  and  O_4
REMARK    3  A    between atoms: O_4  and  C_5
REMARK    4  A    between atoms: C_5  and  C_7
REMARK    5  A    between atoms: C_8  and  C_9
REMARK    6  A    between atoms: C_12  and  C_13
REMARK    7  A    between atoms: N_19  and  C_20
REMARK                            x       y       z     vdW  Elec       q    Type
REMARK                         _______ _______ _______ _____ _____    ______ ____
ROOT
ATOM      1  C   UNL     1       5.790   5.139  16.189  0.00  0.00    +0.000 C 
ATOM      2  C   UNL     1       5.754   4.956  17.517  0.00  0.00    +0.000 C 
ENDROOT
BRANCH   2   3
ATOM      3  C   UNL     1       4.531   4.524  18.184  0.00  0.00    +0.000 A 
ATOM      4  C   UNL     1       3.966   3.287  17.866  0.00  0.00    +0.000 A 
ATOM      5  C   UNL     1       2.792   2.869  18.496  0.00  0.00    +0.000 A 
ATOM      6  C   UNL     1       2.164   3.684  19.451  0.00  0.00    +0.000 A 
ATOM      7  C   UNL     1       2.735   4.927  19.759  0.00  0.00    +0.000 A 
ATOM      8  C   UNL     1       3.910   5.346  19.131  0.00  0.00    +0.000 A 
BRANCH   6   9
ATOM      9  C   UNL     1       0.898   3.239  20.142  0.00  0.00    +0.000 C 
ATOM     10  F   UNL     1       0.118   4.273  20.568  0.00  0.00    +0.000 F 
ATOM     11  F   UNL     1       0.105   2.482  19.336  0.00  0.00    +0.000 F 
ATOM     12  F   UNL     1       1.145   2.480  21.244  0.00  0.00    +0.000 F 
ENDBRANCH   6   9
ENDBRANCH   2   3
BRANCH   1  13
ATOM     13  C   UNL     1       7.029   5.620  15.557  0.00  0.00    +0.000 C 
ATOM     14  O   UNL     1       7.828   6.397  16.057  0.00  0.00    +0.000 OA
BRANCH  13  15
ATOM     15  O   UNL     1       7.074   5.131  14.294  0.00  0.00    +0.000 OA
BRANCH  15  16
ATOM     16  C   UNL     1       6.352   3.912  14.113  0.00  0.00    +0.000 C 
BRANCH  16  18
ATOM     17  O   UNL     1       6.993   3.560  11.809  0.00  0.00    +0.000 OA
ATOM     18  C   UNL     1       6.082   3.664  12.628  0.00  0.00    +0.000 C 
ATOM     19  N   UNL     1       4.740   3.520  12.320  0.00  0.00    +0.000 N 
ATOM     20  H   UNL     1       4.111   3.354  13.108  0.00  0.00    +0.000 HD
BRANCH  19  21
ATOM     21  C   UNL     1       4.299   3.086  11.030  0.00  0.00    +0.000 C 
ATOM     22  C   UNL     1       2.840   2.803  10.792  0.00  0.00    +0.000 C 
ATOM     23  C   UNL     1       3.486   3.996  10.151  0.00  0.00    +0.000 C 
ENDBRANCH  19  21
ENDBRANCH  16  18
ENDBRANCH  15  16
ENDBRANCH  13  15
ENDBRANCH   1  13
TORSDOF 7
ENDMDL
MODEL 5
REMARK VINA RESULT:      -7.4      6.900      8.720
REMARK  Name = 
REMARK  7 active torsions:
REMARK  status: ('A' for Active; 'I' for Inactive)
REMARK    1  A    between atoms: C_2  and  C_3
REMARK    2  A    between atoms: C_3  and  O_4
REMARK    3  A    between atoms: O_4  and  C_5
REMARK    4  A    between atoms: C_5  and  C_7
REMARK    5  A    between atoms: C_8  and  C_9
REMARK    6  A    between atoms: C_12  and  C_13
REMARK    7  A    between atoms: N_19  and  C_20
REMARK                            x       y       z     vdW  Elec       q    Type
REMARK                         _______ _______ _______ _____ _____    ______ ____
ROOT
ATOM      1  C   UNL     1       7.881   8.654  17.810  0.00  0.00    +0.000 C 
ATOM      2  C   UNL     1       8.753   8.935  18.789  0.00  0.00    +0.000 C 
ENDROOT
BRANCH   2   3
ATOM      3  C   UNL     1       9.269  10.288  18.972  0.00  0.00    +0.000 A 
ATOM      4  C   UNL     1       9.352  10.831  20.255  0.00  0.00    +0.000 A 
ATOM      5  C   UNL     1       9.839  12.127  20.439  0.00  0.00    +0.000 A 
ATOM      6  C   UNL     1      10.247  12.899  19.340  0.00  0.00    +0.000 A 
ATOM      7  C   UNL     1      10.153  12.347  18.054  0.00  0.00    +0.000 A 
ATOM      8  C   UNL     1       9.668  11.050  17.870  0.00  0.00    +0.000 A 
BRANCH   6   9
ATOM      9  C   UNL     1      10.780  14.298  19.527  0.00  0.00    +0.000 C 
ATOM     10  F   UNL     1       9.882  15.271  19.206  0.00  0.00    +0.000 F 
ATOM     11  F   UNL     1      11.153  14.545  20.813  0.00  0.00    +0.000 F 
ATOM     12  F   UNL     1      11.882  14.542  18.765  0.00  0.00    +0.000 F 
ENDBRANCH   6   9
ENDBRANCH   2   3
BRANCH   1  13
ATOM     13  C   UNL     1       7.418   7.269  17.626  0.00  0.00    +0.000 C 
ATOM     14  O   UNL     1       7.725   6.317  18.328  0.00  0.00    +0.000 OA
BRANCH  13  15
ATOM     15  O   UNL     1       6.679   7.219  16.493  0.00  0.00    +0.000 OA
BRANCH  15  16
ATOM     16  C   UNL     1       5.925   6.015  16.339  0.00  0.00    +0.000 C 
BRANCH  16  18
ATOM     17  O   UNL     1       7.779   4.800  15.378  0.00  0.00    +0.000 OA
ATOM     18  C   UNL     1       6.588   5.094  15.314  0.00  0.00    +0.000 C 
ATOM     19  N   UNL     1       5.715   4.596  14.361  0.00  0.00    +0.000 N 
ATOM     20  H   UNL     1       4.719   4.688  14.569  0.00  0.00    +0.000 HD
BRANCH  19  21
ATOM     21  C   UNL     1       6.098   3.568  13.444  0.00  0.00    +0.000 C 
ATOM     22  C   UNL     1       5.348   3.399  12.149  0.00  0.00    +0.000 C 
ATOM     23  C   UNL     1       6.758   3.912  12.137  0.00  0.00    +0.000 C 
ENDBRANCH  19  21
ENDBRANCH  16  18
ENDBRANCH  15  16
ENDBRANCH  13  15
ENDBRANCH   1  13
TORSDOF 7
ENDMDL
MODEL 6
REMARK VINA RESULT:      -7.4      3.776      4.425
REMARK  Name = 
REMARK  7 active torsions:
REMARK  status: ('A' for Active; 'I' for Inactive)
REMARK    1  A    between atoms: C_2  and  C_3
REMARK    2  A    between atoms: C_3  and  O_4
REMARK    3  A    between atoms: O_4  and  C_5
REMARK    4  A    between atoms: C_5  and  C_7
REMARK    5  A    between atoms: C_8  and  C_9
REMARK    6  A    between atoms: C_12  and  C_13
REMARK    7  A    between atoms: N_19  and  C_20
REMARK                            x       y       z     vdW  Elec       q    Type
REMARK                         _______ _______ _______ _____ _____    ______ ____
ROOT
ATOM      1  C   UNL     1       5.076   6.078  18.247  0.00  0.00    +0.000 C 
ATOM      2  C   UNL     1       3.744   5.942  18.309  0.00  0.00    +0.000 C 
ENDROOT
BRANCH   2   3
ATOM      3  C   UNL     1       2.882   7.089  18.578  0.00  0.00    +0.000 A 
ATOM      4  C   UNL     1       2.729   8.083  17.610  0.00  0.00    +0.000 A 
ATOM      5  C   UNL     1       1.912   9.188  17.861  0.00  0.00    +0.000 A 
ATOM      6  C   UNL     1       1.238   9.314  19.086  0.00  0.00    +0.000 A 
ATOM      7  C   UNL     1       1.403   8.313  20.055  0.00  0.00    +0.000 A 
ATOM      8  C   UNL     1       2.220   7.208  19.803  0.00  0.00    +0.000 A 
BRANCH   6   9
ATOM      9  C   UNL     1       0.347  10.499  19.366  0.00  0.00    +0.000 C 
ATOM     10  F   UNL     1       0.538  11.045  20.599  0.00  0.00    +0.000 F 
ATOM     11  F   UNL     1       0.536  11.513  18.477  0.00  0.00    +0.000 F 
ATOM     12  F   UNL     1      -0.976  10.184  19.299  0.00  0.00    +0.000 F 
ENDBRANCH   6   9
ENDBRANCH   2   3
BRANCH   1  13
ATOM     13  C   UNL     1       5.916   4.891  18.021  0.00  0.00    +0.000 C 
ATOM     14  O   UNL     1       6.725   4.430  18.812  0.00  0.00    +0.000 OA
BRANCH  13  15
ATOM     15  O   UNL     1       5.706   4.462  16.754  0.00  0.00    +0.000 OA
BRANCH  15  16
ATOM     16  C   UNL     1       6.903   4.191  16.022  0.00  0.00    +0.000 C 
BRANCH  16  18
ATOM     17  O   UNL     1       7.047   5.560  14.036  0.00  0.00    +0.000 OA
ATOM     18  C   UNL     1       6.703   4.492  14.536  0.00  0.00    +0.000 C 
ATOM     19  N   UNL     1       6.156   3.439  13.821  0.00  0.00    +0.000 N 
ATOM     20  H   UNL     1       6.168   2.527  14.280  0.00  0.00    +0.000 HD
BRANCH  19  21
ATOM     21  C   UNL     1       6.078   3.451  12.392  0.00  0.00    +0.000 C 
ATOM     22  C   UNL     1       5.666   2.206  11.653  0.00  0.00    +0.000 C 
ATOM     23  C   UNL     1       4.747   3.392  11.696  0.00  0.00    +0.000 C 
ENDBRANCH  19  21
ENDBRANCH  16  18
ENDBRANCH  15  16
ENDBRANCH  13  15
ENDBRANCH   1  13
TORSDOF 7
ENDMDL
MODEL 7
REMARK VINA RESULT:      -7.3      3.848      4.584
REMARK  Name = 
REMARK  7 active torsions:
REMARK  status: ('A' for Active; 'I' for Inactive)
REMARK    1  A    between atoms: C_2  and  C_3
REMARK    2  A    between atoms: C_3  and  O_4
REMARK    3  A    between atoms: O_4  and  C_5
REMARK    4  A    between atoms: C_5  and  C_7
REMARK    5  A    between atoms: C_8  and  C_9
REMARK    6  A    between atoms: C_12  and  C_13
REMARK    7  A    between atoms: N_19  and  C_20
REMARK                            x       y       z     vdW  Elec       q    Type
REMARK                         _______ _______ _______ _____ _____    ______ ____
ROOT
ATOM      1  C   UNL     1       4.430   6.237  17.583  0.00  0.00    +0.000 C 
ATOM      2  C   UNL     1       3.211   6.091  18.122  0.00  0.00    +0.000 C 
ENDROOT
BRANCH   2   3
ATOM      3  C   UNL     1       2.488   7.236  18.667  0.00  0.00    +0.000 A 
ATOM      4  C   UNL     1       2.078   7.226  20.002  0.00  0.00    +0.000 A 
ATOM      5  C   UNL     1       1.380   8.315  20.530  0.00  0.00    +0.000 A 
ATOM      6  C   UNL     1       1.081   9.428  19.729  0.00  0.00    +0.000 A 
ATOM      7  C   UNL     1       1.491   9.426  18.388  0.00  0.00    +0.000 A 
ATOM      8  C   UNL     1       2.190   8.338  17.859  0.00  0.00    +0.000 A 
BRANCH   6   9
ATOM      9  C   UNL     1       0.333  10.612  20.291  0.00  0.00    +0.000 C 
ATOM     10  F   UNL     1       0.125  10.537  21.635  0.00  0.00    +0.000 F 
ATOM     11  F   UNL     1       0.987  11.787  20.080  0.00  0.00    +0.000 F 
ATOM     12  F   UNL     1      -0.899  10.764  19.732  0.00  0.00    +0.000 F 
ENDBRANCH   6   9
ENDBRANCH   2   3
BRANCH   1  13
ATOM     13  C   UNL     1       5.148   5.052  17.086  0.00  0.00    +0.000 C 
ATOM     14  O   UNL     1       4.733   3.904  17.115  0.00  0.00    +0.000 OA
BRANCH  13  15
ATOM     15  O   UNL     1       6.380   5.445  16.685  0.00  0.00    +0.000 OA
BRANCH  15  16
ATOM     16  C   UNL     1       7.129   4.430  16.013  0.00  0.00    +0.000 C 
BRANCH  16  18
ATOM     17  O   UNL     1       7.756   5.449  13.914  0.00  0.00    +0.000 OA
ATOM     18  C   UNL     1       7.058   4.624  14.498  0.00  0.00    +0.000 C 
ATOM     19  N   UNL     1       6.184   3.756  13.864  0.00  0.00    +0.000 N 
ATOM     20  H   UNL     1       5.875   2.949  14.408  0.00  0.00    +0.000 HD
BRANCH  19  21
ATOM     21  C   UNL     1       6.127   3.645  12.439  0.00  0.00    +0.000 C 
ATOM     22  C   UNL     1       6.121   2.285  11.792  0.00  0.00    +0.000 C 
ATOM     23  C   UNL     1       4.886   3.136  11.759  0.00  0.00    +0.000 C 
ENDBRANCH  19  21
ENDBRANCH  16  18
ENDBRANCH  15  16
ENDBRANCH  13  15
ENDBRANCH   1  13
TORSDOF 7
ENDMDL
MODEL 8
REMARK VINA RESULT:      -7.3      4.091      6.037
REMARK  Name = 
REMARK  7 active torsions:
REMARK  status: ('A' for Active; 'I' for Inactive)
REMARK    1  A    between atoms: C_2  and  C_3
REMARK    2  A    between atoms: C_3  and  O_4
REMARK    3  A    between atoms: O_4  and  C_5
REMARK    4  A    between atoms: C_5  and  C_7
REMARK    5  A    between atoms: C_8  and  C_9
REMARK    6  A    between atoms: C_12  and  C_13
REMARK    7  A    between atoms: N_19  and  C_20
REMARK                            x       y       z     vdW  Elec       q    Type
REMARK                         _______ _______ _______ _____ _____    ______ ____
ROOT
ATOM      1  C   UNL     1       4.673   6.794  17.527  0.00  0.00    +0.000 C 
ATOM      2  C   UNL     1       3.387   7.051  17.253  0.00  0.00    +0.000 C 
ENDROOT
BRANCH   2   3
ATOM      3  C   UNL     1       2.556   7.809  18.184  0.00  0.00    +0.000 A 
ATOM      4  C   UNL     1       1.971   9.008  17.774  0.00  0.00    +0.000 A 
ATOM      5  C   UNL     1       1.180   9.743  18.660  0.00  0.00    +0.000 A 
ATOM      6  C   UNL     1       0.965   9.288  19.971  0.00  0.00    +0.000 A 
ATOM      7  C   UNL     1       1.563   8.086  20.376  0.00  0.00    +0.000 A 
ATOM      8  C   UNL     1       2.353   7.350  19.489  0.00  0.00    +0.000 A 
BRANCH   6   9
ATOM      9  C   UNL     1       0.107  10.070  20.935  0.00  0.00    +0.000 C 
ATOM     10  F   UNL     1       0.758  11.117  21.517  0.00  0.00    +0.000 F 
ATOM     11  F   UNL     1      -0.994  10.602  20.337  0.00  0.00    +0.000 F 
ATOM     12  F   UNL     1      -0.357   9.304  21.959  0.00  0.00    +0.000 F 
ENDBRANCH   6   9
ENDBRANCH   2   3
BRANCH   1  13
ATOM     13  C   UNL     1       5.468   5.987  16.587  0.00  0.00    +0.000 C 
ATOM     14  O   UNL     1       5.682   6.264  15.416  0.00  0.00    +0.000 OA
BRANCH  13  15
ATOM     15  O   UNL     1       5.832   4.844  17.216  0.00  0.00    +0.000 OA
BRANCH  15  16
ATOM     16  C   UNL     1       4.824   3.832  17.222  0.00  0.00    +0.000 C 
BRANCH  16  18
ATOM     17  O   UNL     1       5.165   3.163  19.518  0.00  0.00    +0.000 OA
ATOM     18  C   UNL     1       4.374   3.530  18.652  0.00  0.00    +0.000 C 
ATOM     19  N   UNL     1       3.028   3.761  18.876  0.00  0.00    +0.000 N 
ATOM     20  H   UNL     1       2.541   4.316  18.170  0.00  0.00    +0.000 HD
BRANCH  19  21
ATOM     21  C   UNL     1       2.460   3.731  20.189  0.00  0.00    +0.000 C 
ATOM     22  C   UNL     1       1.000   4.042  20.382  0.00  0.00    +0.000 C 
ATOM     23  C   UNL     1       1.501   2.642  20.585  0.00  0.00    +0.000 C 
ENDBRANCH  19  21
ENDBRANCH  16  18
ENDBRANCH  15  16
ENDBRANCH  13  15
ENDBRANCH   1  13
TORSDOF 7
ENDMDL
MODEL 9
REMARK VINA RESULT:      -7.3      4.339      6.307
REMARK  Name = 
REMARK  7 active torsions:
REMARK  status: ('A' for Active; 'I' for Inactive)
REMARK    1  A    between atoms: C_2  and  C_3
REMARK    2  A    between atoms: C_3  and  O_4
REMARK    3  A    between atoms: O_4  and  C_5
REMARK    4  A    between atoms: C_5  and  C_7
REMARK    5  A    between atoms: C_8  and  C_9
REMARK    6  A    between atoms: C_12  and  C_13
REMARK    7  A    between atoms: N_19  and  C_20
REMARK                            x       y       z     vdW  Elec       q    Type
REMARK                         _______ _______ _______ _____ _____    ______ ____
ROOT
ATOM      1  C   UNL     1       4.409   6.899  17.596  0.00  0.00    +0.000 C 
ATOM      2  C   UNL     1       3.069   6.903  17.566  0.00  0.00    +0.000 C 
ENDROOT
BRANCH   2   3
ATOM      3  C   UNL     1       2.300   7.799  18.423  0.00  0.00    +0.000 A 
ATOM      4  C   UNL     1       2.119   7.483  19.771  0.00  0.00    +0.000 A 
ATOM      5  C   UNL     1       1.380   8.332  20.598  0.00  0.00    +0.000 A 
ATOM      6  C   UNL     1       0.808   9.507  20.087  0.00  0.00    +0.000 A 
ATOM      7  C   UNL     1       0.990   9.813  18.730  0.00  0.00    +0.000 A 
ATOM      8  C   UNL     1       1.730   8.965  17.903  0.00  0.00    +0.000 A 
BRANCH   6   9
ATOM      9  C   UNL     1       0.012  10.435  20.972  0.00  0.00    +0.000 C 
ATOM     10  F   UNL     1      -0.435   9.845  22.116  0.00  0.00    +0.000 F 
ATOM     11  F   UNL     1       0.732  11.519  21.369  0.00  0.00    +0.000 F 
ATOM     12  F   UNL     1      -1.094  10.927  20.350  0.00  0.00    +0.000 F 
ENDBRANCH   6   9
ENDBRANCH   2   3
BRANCH   1  13
ATOM     13  C   UNL     1       5.151   5.948  16.751  0.00  0.00    +0.000 C 
ATOM     14  O   UNL     1       5.789   6.235  15.750  0.00  0.00    +0.000 OA
BRANCH  13  15
ATOM     15  O   UNL     1       4.918   4.699  17.219  0.00  0.00    +0.000 OA
BRANCH  15  16
ATOM     16  C   UNL     1       5.552   4.414  18.467  0.00  0.00    +0.000 C 
BRANCH  16  18
ATOM     17  O   UNL     1       5.020   2.532  19.886  0.00  0.00    +0.000 OA
ATOM     18  C   UNL     1       4.635   3.571  19.354  0.00  0.00    +0.000 C 
ATOM     19  N   UNL     1       3.375   4.115  19.534  0.00  0.00    +0.000 N 
ATOM     20  H   UNL     1       3.265   5.097  19.274  0.00  0.00    +0.000 HD
BRANCH  19  21
ATOM     21  C   UNL     1       2.447   3.584  20.484  0.00  0.00    +0.000 C 
ATOM     22  C   UNL     1       1.011   4.038  20.466  0.00  0.00    +0.000 C 
ATOM     23  C   UNL     1       1.361   2.639  20.050  0.00  0.00    +0.000 C 
ENDBRANCH  19  21
ENDBRANCH  16  18
ENDBRANCH  15  16
ENDBRANCH  13  15
ENDBRANCH   1  13
TORSDOF 7
ENDMDL
