MODEL 1
REMARK VINA RESULT:      -5.9      0.000      0.000
REMARK  Name = 
REMARK  12 active torsions:
REMARK  status: ('A' for Active; 'I' for Inactive)
REMARK    1  A    between atoms: C_1  and  O_2
REMARK    2  A    between atoms: O_2  and  C_3
REMARK    3  A    between atoms: C_3  and  C_5
REMARK    4  A    between atoms: C_5  and  C_6
REMARK    5  A    between atoms: C_6  and  O_8
REMARK    6  A    between atoms: O_8  and  C_9
REMARK    7  A    between atoms: C_11  and  C_12
REMARK    8  A    between atoms: N_17  and  C_18
REMARK    9  A    between atoms: C_18  and  C_19
REMARK   10  A    between atoms: C_24  and  O_25
REMARK   11  A    between atoms: O_25  and  C_26
REMARK   12  A    between atoms: C_27  and  C_28
REMARK                            x       y       z     vdW  Elec       q    Type
REMARK                         _______ _______ _______ _____ _____    ______ ____
ROOT
ATOM      1  C   UNL     1      -1.393  14.019  21.426  0.00  0.00    +0.000 C 
ATOM      2  C   UNL     1      -2.358  12.972  22.033  0.00  0.00    +0.000 C 
ATOM      3  C   UNL     1      -2.127  11.701  21.219  0.00  0.00    +0.000 C 
ATOM      4  N   UNL     1      -1.899  12.202  19.844  0.00  0.00    +0.000 NA
ATOM      5  C   UNL     1      -1.270  13.564  19.941  0.00  0.00    +0.000 C 
ENDROOT
BRANCH   5   6
ATOM      6  C   UNL     1       0.114  13.636  19.289  0.00  0.00    +0.000 A 
ATOM      7  C   UNL     1       0.798  12.483  18.866  0.00  0.00    +0.000 A 
ATOM      8  C   UNL     1       2.106  12.539  18.381  0.00  0.00    +0.000 A 
ATOM      9  C   UNL     1       2.739  13.764  18.288  0.00  0.00    +0.000 A 
ATOM     10  F   UNL     1       4.005  13.824  17.855  0.00  0.00    +0.000 F 
ATOM     11  C   UNL     1       2.073  14.933  18.631  0.00  0.00    +0.000 A 
ATOM     12  C   UNL     1       0.760  14.873  19.113  0.00  0.00    +0.000 A 
ENDBRANCH   5   6
BRANCH   3  13
ATOM     13  C   UNL     1      -1.006  10.830  21.769  0.00  0.00    +0.000 A 
ATOM     14  C   UNL     1      -0.766  10.440  23.080  0.00  0.00    +0.000 A 
ATOM     15  C   UNL     1       0.428   9.678  23.226  0.00  0.00    +0.000 A 
ATOM     16  C   UNL     1       1.029   9.433  22.015  0.00  0.00    +0.000 A 
ATOM     17  S   UNL     1       0.090  10.019  20.716  0.00  0.00    +0.000 S 
ENDBRANCH   3  13
BRANCH   1  18
ATOM     18  C   UNL     1      -0.122  14.024  22.273  0.00  0.00    +0.000 C 
ATOM     19  O   UNL     1       0.860  13.309  22.140  0.00  0.00    +0.000 OA
BRANCH  18  21
ATOM     20  C   UNL     1       0.755  15.991  23.198  0.00  0.00    +0.000 C 
ATOM     21  O   UNL     1      -0.221  14.945  23.286  0.00  0.00    +0.000 OA
ENDBRANCH  18  21
ENDBRANCH   1  18
BRANCH   1  22
ATOM     22  C   UNL     1      -2.079  15.379  21.430  0.00  0.00    +0.000 C 
ATOM     23  O   UNL     1      -1.692  16.342  20.770  0.00  0.00    +0.000 OA
BRANCH  22  24
ATOM     24  O   UNL     1      -3.133  15.433  22.280  0.00  0.00    +0.000 OA
ATOM     25  C   UNL     1      -4.134  16.396  21.910  0.00  0.00    +0.000 C 
ENDBRANCH  22  24
ENDBRANCH   1  22
BRANCH   4  26
ATOM     26  C   UNL     1      -3.173  12.209  19.086  0.00  0.00    +0.000 C 
BRANCH  26  27
ATOM     27  C   UNL     1      -3.195  11.461  17.765  0.00  0.00    +0.000 A 
ATOM     28  C   UNL     1      -2.100  10.609  17.501  0.00  0.00    +0.000 A 
ATOM     29  C   UNL     1      -2.060   9.792  16.365  0.00  0.00    +0.000 A 
ATOM     30  C   UNL     1      -3.119   9.810  15.474  0.00  0.00    +0.000 A 
ATOM     31  C   UNL     1      -4.190  10.679  15.690  0.00  0.00    +0.000 A 
ATOM     32  C   UNL     1      -4.217  11.530  16.804  0.00  0.00    +0.000 A 
BRANCH  32  33
ATOM     33  O   UNL     1      -5.352  12.283  16.928  0.00  0.00    +0.000 OA
ATOM     34  C   UNL     1      -6.372  11.684  17.719  0.00  0.00    +0.000 C 
ENDBRANCH  32  33
ENDBRANCH  26  27
ENDBRANCH   4  26
TORSDOF 9
ENDMDL
MODEL 2
REMARK VINA RESULT:      -5.9      2.612      5.161
REMARK  Name = 
REMARK  12 active torsions:
REMARK  status: ('A' for Active; 'I' for Inactive)
REMARK    1  A    between atoms: C_1  and  O_2
REMARK    2  A    between atoms: O_2  and  C_3
REMARK    3  A    between atoms: C_3  and  C_5
REMARK    4  A    between atoms: C_5  and  C_6
REMARK    5  A    between atoms: C_6  and  O_8
REMARK    6  A    between atoms: O_8  and  C_9
REMARK    7  A    between atoms: C_11  and  C_12
REMARK    8  A    between atoms: N_17  and  C_18
REMARK    9  A    between atoms: C_18  and  C_19
REMARK   10  A    between atoms: C_24  and  O_25
REMARK   11  A    between atoms: O_25  and  C_26
REMARK   12  A    between atoms: C_27  and  C_28
REMARK                            x       y       z     vdW  Elec       q    Type
REMARK                         _______ _______ _______ _____ _____    ______ ____
ROOT
ATOM      1  C   UNL     1       0.510  12.100  20.623  0.00  0.00    +0.000 C 
ATOM      2  C   UNL     1       1.078  12.244  19.190  0.00  0.00    +0.000 C 
ATOM      3  C   UNL     1       0.068  13.117  18.449  0.00  0.00    +0.000 C 
ATOM      4  N   UNL     1      -1.239  12.676  18.990  0.00  0.00    +0.000 NA
ATOM      5  C   UNL     1      -1.027  12.214  20.404  0.00  0.00    +0.000 C 
ENDROOT
BRANCH   5   6
ATOM      6  C   UNL     1      -1.832  13.021  21.428  0.00  0.00    +0.000 A 
ATOM      7  C   UNL     1      -2.259  14.335  21.170  0.00  0.00    +0.000 A 
ATOM      8  C   UNL     1      -2.888  15.110  22.145  0.00  0.00    +0.000 A 
ATOM      9  C   UNL     1      -3.123  14.564  23.393  0.00  0.00    +0.000 A 
ATOM     10  F   UNL     1      -3.696  15.312  24.346  0.00  0.00    +0.000 F 
ATOM     11  C   UNL     1      -2.778  13.247  23.666  0.00  0.00    +0.000 A 
ATOM     12  C   UNL     1      -2.151  12.472  22.683  0.00  0.00    +0.000 A 
ENDBRANCH   5   6
BRANCH   3  13
ATOM     13  C   UNL     1       0.342  14.607  18.593  0.00  0.00    +0.000 A 
ATOM     14  C   UNL     1      -0.520  15.619  18.997  0.00  0.00    +0.000 A 
ATOM     15  C   UNL     1       0.073  16.913  18.942  0.00  0.00    +0.000 A 
ATOM     16  C   UNL     1       1.396  16.853  18.577  0.00  0.00    +0.000 A 
ATOM     17  S   UNL     1       1.935  15.241  18.423  0.00  0.00    +0.000 S 
ENDBRANCH   3  13
BRANCH   1  18
ATOM     18  C   UNL     1       1.183  13.158  21.496  0.00  0.00    +0.000 C 
ATOM     19  O   UNL     1       0.642  13.931  22.272  0.00  0.00    +0.000 OA
BRANCH  18  21
ATOM     20  C   UNL     1       3.162  14.401  21.675  0.00  0.00    +0.000 C 
ATOM     21  O   UNL     1       2.537  13.174  21.276  0.00  0.00    +0.000 OA
ENDBRANCH  18  21
ENDBRANCH   1  18
BRANCH   1  22
ATOM     22  C   UNL     1       0.796  10.690  21.124  0.00  0.00    +0.000 C 
ATOM     23  O   UNL     1       1.029   9.736  20.383  0.00  0.00    +0.000 OA
BRANCH  22  24
ATOM     24  O   UNL     1       0.713  10.584  22.472  0.00  0.00    +0.000 OA
ATOM     25  C   UNL     1      -0.025   9.436  22.925  0.00  0.00    +0.000 C 
ENDBRANCH  22  24
ENDBRANCH   1  22
BRANCH   4  26
ATOM     26  C   UNL     1      -1.821  11.626  18.121  0.00  0.00    +0.000 C 
BRANCH  26  27
ATOM     27  C   UNL     1      -3.325  11.656  17.913  0.00  0.00    +0.000 A 
ATOM     28  C   UNL     1      -4.117  11.913  19.054  0.00  0.00    +0.000 A 
ATOM     29  C   UNL     1      -5.506  12.067  18.966  0.00  0.00    +0.000 A 
ATOM     30  C   UNL     1      -6.127  11.970  17.733  0.00  0.00    +0.000 A 
ATOM     31  C   UNL     1      -5.370  11.669  16.599  0.00  0.00    +0.000 A 
ATOM     32  C   UNL     1      -3.985  11.472  16.687  0.00  0.00    +0.000 A 
BRANCH  32  33
ATOM     33  O   UNL     1      -3.357  11.245  15.493  0.00  0.00    +0.000 OA
ATOM     34  C   UNL     1      -3.065   9.876  15.233  0.00  0.00    +0.000 C 
ENDBRANCH  32  33
ENDBRANCH  26  27
ENDBRANCH   4  26
TORSDOF 9
ENDMDL
MODEL 3
REMARK VINA RESULT:      -5.8      3.200      5.697
REMARK  Name = 
REMARK  12 active torsions:
REMARK  status: ('A' for Active; 'I' for Inactive)
REMARK    1  A    between atoms: C_1  and  O_2
REMARK    2  A    between atoms: O_2  and  C_3
REMARK    3  A    between atoms: C_3  and  C_5
REMARK    4  A    between atoms: C_5  and  C_6
REMARK    5  A    between atoms: C_6  and  O_8
REMARK    6  A    between atoms: O_8  and  C_9
REMARK    7  A    between atoms: C_11  and  C_12
REMARK    8  A    between atoms: N_17  and  C_18
REMARK    9  A    between atoms: C_18  and  C_19
REMARK   10  A    between atoms: C_24  and  O_25
REMARK   11  A    between atoms: O_25  and  C_26
REMARK   12  A    between atoms: C_27  and  C_28
REMARK                            x       y       z     vdW  Elec       q    Type
REMARK                         _______ _______ _______ _____ _____    ______ ____
ROOT
ATOM      1  C   UNL     1      -0.986  12.067  21.405  0.00  0.00    +0.000 C 
ATOM      2  C   UNL     1       0.495  12.070  21.854  0.00  0.00    +0.000 C 
ATOM      3  C   UNL     1       1.280  11.587  20.637  0.00  0.00    +0.000 C 
ATOM      4  N   UNL     1       0.397  10.559  20.037  0.00  0.00    +0.000 NA
ATOM      5  C   UNL     1      -1.026  10.932  20.338  0.00  0.00    +0.000 C 
ENDROOT
BRANCH   5   6
ATOM      6  C   UNL     1      -1.865  11.172  19.079  0.00  0.00    +0.000 A 
ATOM      7  C   UNL     1      -3.219  11.545  19.146  0.00  0.00    +0.000 A 
ATOM      8  C   UNL     1      -4.012  11.647  18.003  0.00  0.00    +0.000 A 
ATOM      9  C   UNL     1      -3.447  11.402  16.766  0.00  0.00    +0.000 A 
ATOM     10  F   UNL     1      -4.209  11.466  15.665  0.00  0.00    +0.000 F 
ATOM     11  C   UNL     1      -2.098  11.099  16.651  0.00  0.00    +0.000 A 
ATOM     12  C   UNL     1      -1.304  11.001  17.801  0.00  0.00    +0.000 A 
ENDBRANCH   5   6
BRANCH   3  13
ATOM     13  C   UNL     1       1.674  12.713  19.690  0.00  0.00    +0.000 A 
ATOM     14  C   UNL     1       1.651  12.735  18.302  0.00  0.00    +0.000 A 
ATOM     15  C   UNL     1       2.163  13.946  17.754  0.00  0.00    +0.000 A 
ATOM     16  C   UNL     1       2.489  14.852  18.734  0.00  0.00    +0.000 A 
ATOM     17  S   UNL     1       2.065  14.282  20.285  0.00  0.00    +0.000 S 
ENDBRANCH   3  13
BRANCH   1  18
ATOM     18  C   UNL     1      -1.336  13.482  20.949  0.00  0.00    +0.000 C 
ATOM     19  O   UNL     1      -1.628  13.845  19.820  0.00  0.00    +0.000 OA
BRANCH  18  21
ATOM     20  C   UNL     1      -1.544  15.715  21.630  0.00  0.00    +0.000 C 
ATOM     21  O   UNL     1      -1.245  14.363  21.997  0.00  0.00    +0.000 OA
ENDBRANCH  18  21
ENDBRANCH   1  18
BRANCH   1  22
ATOM     22  C   UNL     1      -1.852  11.621  22.577  0.00  0.00    +0.000 C 
ATOM     23  O   UNL     1      -1.495  10.795  23.415  0.00  0.00    +0.000 OA
BRANCH  22  24
ATOM     24  O   UNL     1      -3.080  12.192  22.569  0.00  0.00    +0.000 OA
ATOM     25  C   UNL     1      -3.606  12.467  23.879  0.00  0.00    +0.000 C 
ENDBRANCH  22  24
ENDBRANCH   1  22
BRANCH   4  26
ATOM     26  C   UNL     1       0.762   9.216  20.547  0.00  0.00    +0.000 C 
BRANCH  26  27
ATOM     27  C   UNL     1       1.589   8.330  19.631  0.00  0.00    +0.000 A 
ATOM     28  C   UNL     1       2.034   8.909  18.422  0.00  0.00    +0.000 A 
ATOM     29  C   UNL     1       2.887   8.226  17.548  0.00  0.00    +0.000 A 
ATOM     30  C   UNL     1       3.315   6.950  17.871  0.00  0.00    +0.000 A 
ATOM     31  C   UNL     1       2.850   6.339  19.038  0.00  0.00    +0.000 A 
ATOM     32  C   UNL     1       1.962   7.002  19.896  0.00  0.00    +0.000 A 
BRANCH  32  33
ATOM     33  O   UNL     1       1.635   6.315  21.033  0.00  0.00    +0.000 OA
ATOM     34  C   UNL     1       1.984   4.936  21.007  0.00  0.00    +0.000 C 
ENDBRANCH  32  33
ENDBRANCH  26  27
ENDBRANCH   4  26
TORSDOF 9
ENDMDL
MODEL 4
REMARK VINA RESULT:      -5.7      2.756      5.250
REMARK  Name = 
REMARK  12 active torsions:
REMARK  status: ('A' for Active; 'I' for Inactive)
REMARK    1  A    between atoms: C_1  and  O_2
REMARK    2  A    between atoms: O_2  and  C_3
REMARK    3  A    between atoms: C_3  and  C_5
REMARK    4  A    between atoms: C_5  and  C_6
REMARK    5  A    between atoms: C_6  and  O_8
REMARK    6  A    between atoms: O_8  and  C_9
REMARK    7  A    between atoms: C_11  and  C_12
REMARK    8  A    between atoms: N_17  and  C_18
REMARK    9  A    between atoms: C_18  and  C_19
REMARK   10  A    between atoms: C_24  and  O_25
REMARK   11  A    between atoms: O_25  and  C_26
REMARK   12  A    between atoms: C_27  and  C_28
REMARK                            x       y       z     vdW  Elec       q    Type
REMARK                         _______ _______ _______ _____ _____    ______ ____
ROOT
ATOM      1  C   UNL     1       0.618  12.313  20.449  0.00  0.00    +0.000 C 
ATOM      2  C   UNL     1       1.038  12.719  19.015  0.00  0.00    +0.000 C 
ATOM      3  C   UNL     1      -0.099  13.601  18.504  0.00  0.00    +0.000 C 
ATOM      4  N   UNL     1      -1.314  12.971  19.072  0.00  0.00    +0.000 NA
ATOM      5  C   UNL     1      -0.938  12.323  20.374  0.00  0.00    +0.000 C 
ENDROOT
BRANCH   5   6
ATOM      6  C   UNL     1      -1.701  12.894  21.573  0.00  0.00    +0.000 A 
ATOM      7  C   UNL     1      -1.949  12.134  22.729  0.00  0.00    +0.000 A 
ATOM      8  C   UNL     1      -2.744  12.613  23.770  0.00  0.00    +0.000 A 
ATOM      9  C   UNL     1      -3.284  13.882  23.677  0.00  0.00    +0.000 A 
ATOM     10  F   UNL     1      -4.076  14.339  24.657  0.00  0.00    +0.000 F 
ATOM     11  C   UNL     1      -3.007  14.691  22.584  0.00  0.00    +0.000 A 
ATOM     12  C   UNL     1      -2.205  14.207  21.543  0.00  0.00    +0.000 A 
ENDBRANCH   5   6
BRANCH   3  13
ATOM     13  C   UNL     1       0.075  15.071  18.858  0.00  0.00    +0.000 A 
ATOM     14  C   UNL     1      -0.835  15.944  19.439  0.00  0.00    +0.000 A 
ATOM     15  C   UNL     1      -0.339  17.274  19.554  0.00  0.00    +0.000 A 
ATOM     16  C   UNL     1       0.966  17.370  19.136  0.00  0.00    +0.000 A 
ATOM     17  S   UNL     1       1.610  15.844  18.724  0.00  0.00    +0.000 S 
ENDBRANCH   3  13
BRANCH   1  18
ATOM     18  C   UNL     1       1.288  13.283  21.420  0.00  0.00    +0.000 C 
ATOM     19  O   UNL     1       0.745  13.977  22.266  0.00  0.00    +0.000 OA
BRANCH  18  21
ATOM     20  C   UNL     1       3.263  14.510  21.713  0.00  0.00    +0.000 C 
ATOM     21  O   UNL     1       2.643  13.323  21.204  0.00  0.00    +0.000 OA
ENDBRANCH  18  21
ENDBRANCH   1  18
BRANCH   1  22
ATOM     22  C   UNL     1       1.053  10.874  20.698  0.00  0.00    +0.000 C 
ATOM     23  O   UNL     1       1.211  10.044  19.804  0.00  0.00    +0.000 OA
BRANCH  22  24
ATOM     24  O   UNL     1       1.198  10.589  22.014  0.00  0.00    +0.000 OA
ATOM     25  C   UNL     1       0.629   9.327  22.405  0.00  0.00    +0.000 C 
ENDBRANCH  22  24
ENDBRANCH   1  22
BRANCH   4  26
ATOM     26  C   UNL     1      -1.894  12.015  18.099  0.00  0.00    +0.000 C 
BRANCH  26  27
ATOM     27  C   UNL     1      -3.354  11.641  18.284  0.00  0.00    +0.000 A 
ATOM     28  C   UNL     1      -4.079  12.377  19.246  0.00  0.00    +0.000 A 
ATOM     29  C   UNL     1      -5.454  12.192  19.432  0.00  0.00    +0.000 A 
ATOM     30  C   UNL     1      -6.129  11.268  18.654  0.00  0.00    +0.000 A 
ATOM     31  C   UNL     1      -5.424  10.495  17.730  0.00  0.00    +0.000 A 
ATOM     32  C   UNL     1      -4.040  10.646  17.568  0.00  0.00    +0.000 A 
BRANCH  32  33
ATOM     33  O   UNL     1      -3.484   9.871  16.587  0.00  0.00    +0.000 OA
ATOM     34  C   UNL     1      -3.581  10.421  15.278  0.00  0.00    +0.000 C 
ENDBRANCH  32  33
ENDBRANCH  26  27
ENDBRANCH   4  26
TORSDOF 9
ENDMDL
MODEL 5
REMARK VINA RESULT:      -5.7      2.495      4.803
REMARK  Name = 
REMARK  12 active torsions:
REMARK  status: ('A' for Active; 'I' for Inactive)
REMARK    1  A    between atoms: C_1  and  O_2
REMARK    2  A    between atoms: O_2  and  C_3
REMARK    3  A    between atoms: C_3  and  C_5
REMARK    4  A    between atoms: C_5  and  C_6
REMARK    5  A    between atoms: C_6  and  O_8
REMARK    6  A    between atoms: O_8  and  C_9
REMARK    7  A    between atoms: C_11  and  C_12
REMARK    8  A    between atoms: N_17  and  C_18
REMARK    9  A    between atoms: C_18  and  C_19
REMARK   10  A    between atoms: C_24  and  O_25
REMARK   11  A    between atoms: O_25  and  C_26
REMARK   12  A    between atoms: C_27  and  C_28
REMARK                            x       y       z     vdW  Elec       q    Type
REMARK                         _______ _______ _______ _____ _____    ______ ____
ROOT
ATOM      1  C   UNL     1      -0.621  12.216  21.826  0.00  0.00    +0.000 C 
ATOM      2  C   UNL     1       0.510  11.856  20.833  0.00  0.00    +0.000 C 
ATOM      3  C   UNL     1       0.034  12.382  19.481  0.00  0.00    +0.000 C 
ATOM      4  N   UNL     1      -1.425  12.127  19.501  0.00  0.00    +0.000 NA
ATOM      5  C   UNL     1      -1.893  12.203  20.927  0.00  0.00    +0.000 C 
ENDROOT
BRANCH   5   6
ATOM      6  C   UNL     1      -2.938  13.299  21.159  0.00  0.00    +0.000 A 
ATOM      7  C   UNL     1      -2.801  14.587  20.612  0.00  0.00    +0.000 A 
ATOM      8  C   UNL     1      -3.690  15.617  20.920  0.00  0.00    +0.000 A 
ATOM      9  C   UNL     1      -4.752  15.361  21.766  0.00  0.00    +0.000 A 
ATOM     10  F   UNL     1      -5.592  16.352  22.094  0.00  0.00    +0.000 F 
ATOM     11  C   UNL     1      -4.962  14.086  22.273  0.00  0.00    +0.000 A 
ATOM     12  C   UNL     1      -4.069  13.054  21.958  0.00  0.00    +0.000 A 
ENDBRANCH   5   6
BRANCH   3  13
ATOM     13  C   UNL     1       0.419  13.833  19.231  0.00  0.00    +0.000 A 
ATOM     14  C   UNL     1      -0.403  14.925  18.982  0.00  0.00    +0.000 A 
ATOM     15  C   UNL     1       0.323  16.123  18.723  0.00  0.00    +0.000 A 
ATOM     16  C   UNL     1       1.677  15.939  18.860  0.00  0.00    +0.000 A 
ATOM     17  S   UNL     1       2.048  14.367  19.411  0.00  0.00    +0.000 S 
ENDBRANCH   3  13
BRANCH   1  18
ATOM     18  C   UNL     1      -0.244  13.533  22.502  0.00  0.00    +0.000 C 
ATOM     19  O   UNL     1       0.692  14.267  22.224  0.00  0.00    +0.000 OA
BRANCH  18  21
ATOM     20  C   UNL     1      -1.134  15.188  23.903  0.00  0.00    +0.000 C 
ATOM     21  O   UNL     1      -1.098  13.802  23.543  0.00  0.00    +0.000 OA
ENDBRANCH  18  21
ENDBRANCH   1  18
BRANCH   1  22
ATOM     22  C   UNL     1      -0.766  11.084  22.835  0.00  0.00    +0.000 C 
ATOM     23  O   UNL     1      -1.819  10.811  23.410  0.00  0.00    +0.000 OA
BRANCH  22  24
ATOM     24  O   UNL     1       0.402  10.441  23.075  0.00  0.00    +0.000 OA
ATOM     25  C   UNL     1       0.247   9.170  23.729  0.00  0.00    +0.000 C 
ENDBRANCH  22  24
ENDBRANCH   1  22
BRANCH   4  26
ATOM     26  C   UNL     1      -1.722  10.821  18.866  0.00  0.00    +0.000 C 
BRANCH  26  27
ATOM     27  C   UNL     1      -2.571  10.842  17.607  0.00  0.00    +0.000 A 
ATOM     28  C   UNL     1      -2.033  10.200  16.469  0.00  0.00    +0.000 A 
ATOM     29  C   UNL     1      -2.766  10.066  15.284  0.00  0.00    +0.000 A 
ATOM     30  C   UNL     1      -4.054  10.568  15.218  0.00  0.00    +0.000 A 
ATOM     31  C   UNL     1      -4.589  11.248  16.314  0.00  0.00    +0.000 A 
ATOM     32  C   UNL     1      -3.844  11.423  17.489  0.00  0.00    +0.000 A 
BRANCH  32  33
ATOM     33  O   UNL     1      -4.509  12.052  18.506  0.00  0.00    +0.000 OA
ATOM     34  C   UNL     1      -5.791  12.555  18.148  0.00  0.00    +0.000 C 
ENDBRANCH  32  33
ENDBRANCH  26  27
ENDBRANCH   4  26
TORSDOF 9
ENDMDL
MODEL 6
REMARK VINA RESULT:      -5.7      0.621      1.163
REMARK  Name = 
REMARK  12 active torsions:
REMARK  status: ('A' for Active; 'I' for Inactive)
REMARK    1  A    between atoms: C_1  and  O_2
REMARK    2  A    between atoms: O_2  and  C_3
REMARK    3  A    between atoms: C_3  and  C_5
REMARK    4  A    between atoms: C_5  and  C_6
REMARK    5  A    between atoms: C_6  and  O_8
REMARK    6  A    between atoms: O_8  and  C_9
REMARK    7  A    between atoms: C_11  and  C_12
REMARK    8  A    between atoms: N_17  and  C_18
REMARK    9  A    between atoms: C_18  and  C_19
REMARK   10  A    between atoms: C_24  and  O_25
REMARK   11  A    between atoms: O_25  and  C_26
REMARK   12  A    between atoms: C_27  and  C_28
REMARK                            x       y       z     vdW  Elec       q    Type
REMARK                         _______ _______ _______ _____ _____    ______ ____
ROOT
ATOM      1  C   UNL     1      -1.709  14.014  21.701  0.00  0.00    +0.000 C 
ATOM      2  C   UNL     1      -2.647  12.884  22.190  0.00  0.00    +0.000 C 
ATOM      3  C   UNL     1      -2.305  11.679  21.318  0.00  0.00    +0.000 C 
ATOM      4  N   UNL     1      -2.031  12.274  19.989  0.00  0.00    +0.000 NA
ATOM      5  C   UNL     1      -1.483  13.657  20.201  0.00  0.00    +0.000 C 
ENDROOT
BRANCH   5   6
ATOM      6  C   UNL     1      -0.073  13.839  19.633  0.00  0.00    +0.000 A 
ATOM      7  C   UNL     1       0.492  15.111  19.433  0.00  0.00    +0.000 A 
ATOM      8  C   UNL     1       1.727  15.278  18.807  0.00  0.00    +0.000 A 
ATOM      9  C   UNL     1       2.432  14.163  18.394  0.00  0.00    +0.000 A 
ATOM     10  F   UNL     1       3.603  14.316  17.763  0.00  0.00    +0.000 F 
ATOM     11  C   UNL     1       1.941  12.887  18.635  0.00  0.00    +0.000 A 
ATOM     12  C   UNL     1       0.702  12.723  19.267  0.00  0.00    +0.000 A 
ENDBRANCH   5   6
BRANCH   3  13
ATOM     13  C   UNL     1      -1.169  10.834  21.879  0.00  0.00    +0.000 A 
ATOM     14  C   UNL     1      -0.936  10.443  23.191  0.00  0.00    +0.000 A 
ATOM     15  C   UNL     1       0.275   9.710  23.349  0.00  0.00    +0.000 A 
ATOM     16  C   UNL     1       0.898   9.489  22.145  0.00  0.00    +0.000 A 
ATOM     17  S   UNL     1      -0.037  10.058  20.836  0.00  0.00    +0.000 S 
ENDBRANCH   3  13
BRANCH   1  18
ATOM     18  C   UNL     1      -0.486  14.032  22.617  0.00  0.00    +0.000 C 
ATOM     19  O   UNL     1       0.676  13.823  22.305  0.00  0.00    +0.000 OA
BRANCH  18  21
ATOM     20  C   UNL     1      -0.462  15.582  24.374  0.00  0.00    +0.000 C 
ATOM     21  O   UNL     1      -0.859  14.285  23.913  0.00  0.00    +0.000 OA
ENDBRANCH  18  21
ENDBRANCH   1  18
BRANCH   1  22
ATOM     22  C   UNL     1      -2.467  15.335  21.745  0.00  0.00    +0.000 C 
ATOM     23  O   UNL     1      -3.626  15.444  22.142  0.00  0.00    +0.000 OA
BRANCH  22  24
ATOM     24  O   UNL     1      -1.748  16.371  21.252  0.00  0.00    +0.000 OA
ATOM     25  C   UNL     1      -2.388  17.650  21.398  0.00  0.00    +0.000 C 
ENDBRANCH  22  24
ENDBRANCH   1  22
BRANCH   4  26
ATOM     26  C   UNL     1      -3.262  12.262  19.164  0.00  0.00    +0.000 C 
BRANCH  26  27
ATOM     27  C   UNL     1      -3.208  11.496  17.853  0.00  0.00    +0.000 A 
ATOM     28  C   UNL     1      -2.088  10.658  17.656  0.00  0.00    +0.000 A 
ATOM     29  C   UNL     1      -1.980   9.827  16.535  0.00  0.00    +0.000 A 
ATOM     30  C   UNL     1      -2.993   9.816  15.593  0.00  0.00    +0.000 A 
ATOM     31  C   UNL     1      -4.086  10.672  15.743  0.00  0.00    +0.000 A 
ATOM     32  C   UNL     1      -4.181  11.537  16.841  0.00  0.00    +0.000 A 
BRANCH  32  33
ATOM     33  O   UNL     1      -5.331  12.275  16.898  0.00  0.00    +0.000 OA
ATOM     34  C   UNL     1      -6.378  11.676  17.655  0.00  0.00    +0.000 C 
ENDBRANCH  32  33
ENDBRANCH  26  27
ENDBRANCH   4  26
TORSDOF 9
ENDMDL
MODEL 7
REMARK VINA RESULT:      -5.7      2.793      4.607
REMARK  Name = 
REMARK  12 active torsions:
REMARK  status: ('A' for Active; 'I' for Inactive)
REMARK    1  A    between atoms: C_1  and  O_2
REMARK    2  A    between atoms: O_2  and  C_3
REMARK    3  A    between atoms: C_3  and  C_5
REMARK    4  A    between atoms: C_5  and  C_6
REMARK    5  A    between atoms: C_6  and  O_8
REMARK    6  A    between atoms: O_8  and  C_9
REMARK    7  A    between atoms: C_11  and  C_12
REMARK    8  A    between atoms: N_17  and  C_18
REMARK    9  A    between atoms: C_18  and  C_19
REMARK   10  A    between atoms: C_24  and  O_25
REMARK   11  A    between atoms: O_25  and  C_26
REMARK   12  A    between atoms: C_27  and  C_28
REMARK                            x       y       z     vdW  Elec       q    Type
REMARK                         _______ _______ _______ _____ _____    ______ ____
ROOT
ATOM      1  C   UNL     1      -1.092  14.783  20.621  0.00  0.00    +0.000 C 
ATOM      2  C   UNL     1      -2.064  15.961  20.870  0.00  0.00    +0.000 C 
ATOM      3  C   UNL     1      -3.201  15.370  21.699  0.00  0.00    +0.000 C 
ATOM      4  N   UNL     1      -3.370  14.008  21.139  0.00  0.00    +0.000 NA
ATOM      5  C   UNL     1      -2.035  13.543  20.632  0.00  0.00    +0.000 C 
ENDROOT
BRANCH   5   6
ATOM      6  C   UNL     1      -1.533  12.276  21.331  0.00  0.00    +0.000 A 
ATOM      7  C   UNL     1      -1.954  11.923  22.625  0.00  0.00    +0.000 A 
ATOM      8  C   UNL     1      -1.408  10.834  23.306  0.00  0.00    +0.000 A 
ATOM      9  C   UNL     1      -0.446  10.063  22.683  0.00  0.00    +0.000 A 
ATOM     10  F   UNL     1       0.108   9.035  23.341  0.00  0.00    +0.000 F 
ATOM     11  C   UNL     1      -0.052  10.336  21.380  0.00  0.00    +0.000 A 
ATOM     12  C   UNL     1      -0.606  11.427  20.699  0.00  0.00    +0.000 A 
ENDBRANCH   5   6
BRANCH   3  13
ATOM     13  C   UNL     1      -2.937  15.409  23.198  0.00  0.00    +0.000 A 
ATOM     14  C   UNL     1      -3.020  14.380  24.127  0.00  0.00    +0.000 A 
ATOM     15  C   UNL     1      -2.768  14.811  25.461  0.00  0.00    +0.000 A 
ATOM     16  C   UNL     1      -2.418  16.138  25.511  0.00  0.00    +0.000 A 
ATOM     17  S   UNL     1      -2.283  16.814  23.951  0.00  0.00    +0.000 S 
ENDBRANCH   3  13
BRANCH   1  18
ATOM     18  C   UNL     1       0.002  14.850  21.685  0.00  0.00    +0.000 C 
ATOM     19  O   UNL     1       0.504  13.917  22.293  0.00  0.00    +0.000 OA
BRANCH  18  21
ATOM     20  C   UNL     1       1.771  16.343  22.054  0.00  0.00    +0.000 C 
ATOM     21  O   UNL     1       0.356  16.154  21.930  0.00  0.00    +0.000 OA
ENDBRANCH  18  21
ENDBRANCH   1  18
BRANCH   1  22
ATOM     22  C   UNL     1      -0.520  14.908  19.215  0.00  0.00    +0.000 C 
ATOM     23  O   UNL     1      -0.007  13.974  18.600  0.00  0.00    +0.000 OA
BRANCH  22  24
ATOM     24  O   UNL     1      -0.586  16.171  18.731  0.00  0.00    +0.000 OA
ATOM     25  C   UNL     1       0.697  16.765  18.467  0.00  0.00    +0.000 C 
ENDBRANCH  22  24
ENDBRANCH   1  22
BRANCH   4  26
ATOM     26  C   UNL     1      -4.416  14.016  20.089  0.00  0.00    +0.000 C 
BRANCH  26  27
ATOM     27  C   UNL     1      -5.208  12.736  19.893  0.00  0.00    +0.000 A 
ATOM     28  C   UNL     1      -6.192  12.445  20.863  0.00  0.00    +0.000 A 
ATOM     29  C   UNL     1      -7.053  11.349  20.734  0.00  0.00    +0.000 A 
ATOM     30  C   UNL     1      -6.948  10.526  19.626  0.00  0.00    +0.000 A 
ATOM     31  C   UNL     1      -5.951  10.766  18.678  0.00  0.00    +0.000 A 
ATOM     32  C   UNL     1      -5.059  11.837  18.823  0.00  0.00    +0.000 A 
BRANCH  32  33
ATOM     33  O   UNL     1      -4.173  11.996  17.793  0.00  0.00    +0.000 OA
ATOM     34  C   UNL     1      -4.302  11.032  16.754  0.00  0.00    +0.000 C 
ENDBRANCH  32  33
ENDBRANCH  26  27
ENDBRANCH   4  26
TORSDOF 9
ENDMDL
MODEL 8
REMARK VINA RESULT:      -5.6      2.885      6.060
REMARK  Name = 
REMARK  12 active torsions:
REMARK  status: ('A' for Active; 'I' for Inactive)
REMARK    1  A    between atoms: C_1  and  O_2
REMARK    2  A    between atoms: O_2  and  C_3
REMARK    3  A    between atoms: C_3  and  C_5
REMARK    4  A    between atoms: C_5  and  C_6
REMARK    5  A    between atoms: C_6  and  O_8
REMARK    6  A    between atoms: O_8  and  C_9
REMARK    7  A    between atoms: C_11  and  C_12
REMARK    8  A    between atoms: N_17  and  C_18
REMARK    9  A    between atoms: C_18  and  C_19
REMARK   10  A    between atoms: C_24  and  O_25
REMARK   11  A    between atoms: O_25  and  C_26
REMARK   12  A    between atoms: C_27  and  C_28
REMARK                            x       y       z     vdW  Elec       q    Type
REMARK                         _______ _______ _______ _____ _____    ______ ____
ROOT
ATOM      1  C   UNL     1      -4.385  13.894  22.024  0.00  0.00    +0.000 C 
ATOM      2  C   UNL     1      -3.568  14.869  22.907  0.00  0.00    +0.000 C 
ATOM      3  C   UNL     1      -2.179  14.907  22.276  0.00  0.00    +0.000 C 
ATOM      4  N   UNL     1      -1.961  13.512  21.825  0.00  0.00    +0.000 NA
ATOM      5  C   UNL     1      -3.298  12.919  21.482  0.00  0.00    +0.000 C 
ENDROOT
BRANCH   5   6
ATOM      6  C   UNL     1      -3.404  12.480  20.019  0.00  0.00    +0.000 A 
ATOM      7  C   UNL     1      -4.630  12.106  19.440  0.00  0.00    +0.000 A 
ATOM      8  C   UNL     1      -4.707  11.595  18.145  0.00  0.00    +0.000 A 
ATOM      9  C   UNL     1      -3.552  11.477  17.395  0.00  0.00    +0.000 A 
ATOM     10  F   UNL     1      -3.612  10.956  16.162  0.00  0.00    +0.000 F 
ATOM     11  C   UNL     1      -2.331  11.899  17.905  0.00  0.00    +0.000 A 
ATOM     12  C   UNL     1      -2.259  12.415  19.204  0.00  0.00    +0.000 A 
ENDBRANCH   5   6
BRANCH   3  13
ATOM     13  C   UNL     1      -2.044  15.955  21.180  0.00  0.00    +0.000 A 
ATOM     14  C   UNL     1      -1.452  15.840  19.929  0.00  0.00    +0.000 A 
ATOM     15  C   UNL     1      -1.453  17.061  19.196  0.00  0.00    +0.000 A 
ATOM     16  C   UNL     1      -2.117  18.058  19.867  0.00  0.00    +0.000 A 
ATOM     17  S   UNL     1      -2.829  17.484  21.308  0.00  0.00    +0.000 S 
ENDBRANCH   3  13
BRANCH   1  18
ATOM     18  C   UNL     1      -5.159  14.729  21.006  0.00  0.00    +0.000 C 
ATOM     19  O   UNL     1      -4.819  15.010  19.867  0.00  0.00    +0.000 OA
BRANCH  18  21
ATOM     20  C   UNL     1      -7.293  15.594  20.570  0.00  0.00    +0.000 C 
ATOM     21  O   UNL     1      -6.331  15.189  21.552  0.00  0.00    +0.000 OA
ENDBRANCH  18  21
ENDBRANCH   1  18
BRANCH   1  22
ATOM     22  C   UNL     1      -5.317  13.087  22.918  0.00  0.00    +0.000 C 
ATOM     23  O   UNL     1      -6.170  12.310  22.492  0.00  0.00    +0.000 OA
BRANCH  22  24
ATOM     24  O   UNL     1      -5.144  13.354  24.235  0.00  0.00    +0.000 OA
ATOM     25  C   UNL     1      -4.515  12.291  24.970  0.00  0.00    +0.000 C 
ENDBRANCH  22  24
ENDBRANCH   1  22
BRANCH   4  26
ATOM     26  C   UNL     1      -1.240  12.747  22.869  0.00  0.00    +0.000 C 
BRANCH  26  27
ATOM     27  C   UNL     1      -0.564  11.457  22.438  0.00  0.00    +0.000 A 
ATOM     28  C   UNL     1      -0.954  10.280  23.114  0.00  0.00    +0.000 A 
ATOM     29  C   UNL     1      -0.478   9.020  22.734  0.00  0.00    +0.000 A 
ATOM     30  C   UNL     1       0.397   8.915  21.666  0.00  0.00    +0.000 A 
ATOM     31  C   UNL     1       0.834  10.069  21.014  0.00  0.00    +0.000 A 
ATOM     32  C   UNL     1       0.392  11.337  21.416  0.00  0.00    +0.000 A 
BRANCH  32  33
ATOM     33  O   UNL     1       0.849  12.377  20.653  0.00  0.00    +0.000 OA
ATOM     34  C   UNL     1       1.441  11.985  19.419  0.00  0.00    +0.000 C 
ENDBRANCH  32  33
ENDBRANCH  26  27
ENDBRANCH   4  26
TORSDOF 9
ENDMDL
MODEL 9
REMARK VINA RESULT:      -5.6      3.064      4.914
REMARK  Name = 
REMARK  12 active torsions:
REMARK  status: ('A' for Active; 'I' for Inactive)
REMARK    1  A    between atoms: C_1  and  O_2
REMARK    2  A    between atoms: O_2  and  C_3
REMARK    3  A    between atoms: C_3  and  C_5
REMARK    4  A    between atoms: C_5  and  C_6
REMARK    5  A    between atoms: C_6  and  O_8
REMARK    6  A    between atoms: O_8  and  C_9
REMARK    7  A    between atoms: C_11  and  C_12
REMARK    8  A    between atoms: N_17  and  C_18
REMARK    9  A    between atoms: C_18  and  C_19
REMARK   10  A    between atoms: C_24  and  O_25
REMARK   11  A    between atoms: O_25  and  C_26
REMARK   12  A    between atoms: C_27  and  C_28
REMARK                            x       y       z     vdW  Elec       q    Type
REMARK                         _______ _______ _______ _____ _____    ______ ____
ROOT
ATOM      1  C   UNL     1      -0.933  15.191  20.847  0.00  0.00    +0.000 C 
ATOM      2  C   UNL     1      -1.864  16.365  21.239  0.00  0.00    +0.000 C 
ATOM      3  C   UNL     1      -2.902  15.752  22.175  0.00  0.00    +0.000 C 
ATOM      4  N   UNL     1      -3.142  14.407  21.601  0.00  0.00    +0.000 NA
ATOM      5  C   UNL     1      -1.876  13.954  20.930  0.00  0.00    +0.000 C 
ENDROOT
BRANCH   5   6
ATOM      6  C   UNL     1      -1.305  12.666  21.532  0.00  0.00    +0.000 A 
ATOM      7  C   UNL     1      -0.301  11.924  20.886  0.00  0.00    +0.000 A 
ATOM      8  C   UNL     1       0.134  10.691  21.374  0.00  0.00    +0.000 A 
ATOM      9  C   UNL     1      -0.415  10.196  22.542  0.00  0.00    +0.000 A 
ATOM     10  F   UNL     1      -0.028   8.999  23.001  0.00  0.00    +0.000 F 
ATOM     11  C   UNL     1      -1.359  10.931  23.247  0.00  0.00    +0.000 A 
ATOM     12  C   UNL     1      -1.790  12.169  22.755  0.00  0.00    +0.000 A 
ENDBRANCH   5   6
BRANCH   3  13
ATOM     13  C   UNL     1      -2.468  15.748  23.635  0.00  0.00    +0.000 A 
ATOM     14  C   UNL     1      -2.569  14.730  24.574  0.00  0.00    +0.000 A 
ATOM     15  C   UNL     1      -2.118  15.117  25.868  0.00  0.00    +0.000 A 
ATOM     16  C   UNL     1      -1.608  16.392  25.870  0.00  0.00    +0.000 A 
ATOM     17  S   UNL     1      -1.569  17.059  24.300  0.00  0.00    +0.000 S 
ENDBRANCH   3  13
BRANCH   1  18
ATOM     18  C   UNL     1       0.275  15.226  21.780  0.00  0.00    +0.000 C 
ATOM     19  O   UNL     1       0.544  14.438  22.674  0.00  0.00    +0.000 OA
BRANCH  18  21
ATOM     20  C   UNL     1       2.457  16.032  21.495  0.00  0.00    +0.000 C 
ATOM     21  O   UNL     1       1.055  16.325  21.519  0.00  0.00    +0.000 OA
ENDBRANCH  18  21
ENDBRANCH   1  18
BRANCH   1  22
ATOM     22  C   UNL     1      -0.525  15.355  19.389  0.00  0.00    +0.000 C 
ATOM     23  O   UNL     1       0.161  14.539  18.775  0.00  0.00    +0.000 OA
BRANCH  22  24
ATOM     24  O   UNL     1      -0.952  16.523  18.851  0.00  0.00    +0.000 OA
ATOM     25  C   UNL     1       0.063  17.241  18.128  0.00  0.00    +0.000 C 
ENDBRANCH  22  24
ENDBRANCH   1  22
BRANCH   4  26
ATOM     26  C   UNL     1      -4.301  14.448  20.677  0.00  0.00    +0.000 C 
BRANCH  26  27
ATOM     27  C   UNL     1      -5.396  13.420  20.898  0.00  0.00    +0.000 A 
ATOM     28  C   UNL     1      -5.949  13.352  22.196  0.00  0.00    +0.000 A 
ATOM     29  C   UNL     1      -7.033  12.517  22.492  0.00  0.00    +0.000 A 
ATOM     30  C   UNL     1      -7.586  11.736  21.491  0.00  0.00    +0.000 A 
ATOM     31  C   UNL     1      -7.025  11.751  20.213  0.00  0.00    +0.000 A 
ATOM     32  C   UNL     1      -5.913  12.554  19.921  0.00  0.00    +0.000 A 
BRANCH  32  33
ATOM     33  O   UNL     1      -5.503  12.520  18.616  0.00  0.00    +0.000 OA
ATOM     34  C   UNL     1      -5.221  11.216  18.122  0.00  0.00    +0.000 C 
ENDBRANCH  32  33
ENDBRANCH  26  27
ENDBRANCH   4  26
TORSDOF 9
ENDMDL
