MODEL 1
REMARK VINA RESULT:      -7.7      0.000      0.000
REMARK  Name = 
REMARK  6 active torsions:
REMARK  status: ('A' for Active; 'I' for Inactive)
REMARK    1  A    between atoms: C_1  and  N_2
REMARK    2  A    between atoms: N_2  and  C_3
REMARK    3  A    between atoms: N_2  and  C_10
REMARK    4  A    between atoms: C_3  and  C_4
REMARK    5  A    between atoms: C_10  and  C_11
REMARK    6  A    between atoms: C_21  and  C_23
REMARK                            x       y       z     vdW  Elec       q    Type
REMARK                         _______ _______ _______ _____ _____    ______ ____
ROOT
ATOM      1  C   UNL     1       0.420  10.068  19.580  0.00  0.00    +0.000 A 
ATOM      2  C   UNL     1      -0.318  10.016  20.699  0.00  0.00    +0.000 A 
ATOM      3  C   UNL     1      -0.052   8.936  21.644  0.00  0.00    +0.000 A 
ATOM      4  O   UNL     1      -0.581   8.904  22.749  0.00  0.00    +0.000 OA
ATOM      5  N   UNL     1       0.815   7.988  21.204  0.00  0.00    +0.000 N 
ATOM      6  C   UNL     1       1.510   8.084  20.028  0.00  0.00    +0.000 A 
ATOM      7  N   UNL     1       2.391   7.063  19.747  0.00  0.00    +0.000 N 
ATOM      8  C   UNL     1       2.170   5.656  20.141  0.00  0.00    +0.000 C 
ATOM      9  C   UNL     1       2.071   4.729  18.913  0.00  0.00    +0.000 C 
ATOM     10  N   UNL     1       3.191   4.940  17.998  0.00  0.00    +0.000 N 
ATOM     11  C   UNL     1       3.952   3.850  17.573  0.00  0.00    +0.000 C 
ATOM     12  O   UNL     1       3.601   2.701  17.855  0.00  0.00    +0.000 OA
ATOM     13  C   UNL     1       3.323   6.340  17.566  0.00  0.00    +0.000 C 
ATOM     14  C   UNL     1       3.494   7.258  18.783  0.00  0.00    +0.000 C 
ATOM     15  N   UNL     1       1.346   9.105  19.237  0.00  0.00    +0.000 NA
ATOM     16  H   UNL     1       1.046   7.271  21.866  0.00  0.00    +0.000 HD
ENDROOT
BRANCH  11  17
ATOM     17  C   UNL     1       5.151   4.081  16.785  0.00  0.00    +0.000 A 
ATOM     18  C   UNL     1       5.343   4.027  15.415  0.00  0.00    +0.000 A 
ATOM     19  C   UNL     1       6.701   4.349  15.176  0.00  0.00    +0.000 A 
ATOM     20  C   UNL     1       7.274   4.521  16.413  0.00  0.00    +0.000 A 
ATOM     21  O   UNL     1       6.356   4.328  17.393  0.00  0.00    +0.000 OA
ENDBRANCH  11  17
BRANCH   1  22
ATOM     22  C   UNL     1       0.162  11.176  18.566  0.00  0.00    +0.000 C 
BRANCH  22  24
ATOM     23  C   UNL     1      -0.550  13.452  18.761  0.00  0.00    +0.000 C 
ATOM     24  N   UNL     1      -1.004  12.055  18.820  0.00  0.00    +0.000 NA
BRANCH  24  25
ATOM     25  C   UNL     1      -2.088  11.813  17.845  0.00  0.00    +0.000 C 
BRANCH  25  26
ATOM     26  C   UNL     1      -3.469  11.714  18.459  0.00  0.00    +0.000 A 
ATOM     27  C   UNL     1      -4.452  10.902  17.874  0.00  0.00    +0.000 A 
ATOM     28  C   UNL     1      -5.732  10.838  18.426  0.00  0.00    +0.000 A 
ATOM     29  C   UNL     1      -6.040  11.576  19.570  0.00  0.00    +0.000 A 
ATOM     30  C   UNL     1      -5.064  12.369  20.169  0.00  0.00    +0.000 A 
ATOM     31  C   UNL     1      -3.783  12.434  19.621  0.00  0.00    +0.000 A 
ENDBRANCH  25  26
ENDBRANCH  24  25
ENDBRANCH  22  24
ENDBRANCH   1  22
TORSDOF 5
ENDMDL
MODEL 2
REMARK VINA RESULT:      -7.5      1.614      2.123
REMARK  Name = 
REMARK  6 active torsions:
REMARK  status: ('A' for Active; 'I' for Inactive)
REMARK    1  A    between atoms: C_1  and  N_2
REMARK    2  A    between atoms: N_2  and  C_3
REMARK    3  A    between atoms: N_2  and  C_10
REMARK    4  A    between atoms: C_3  and  C_4
REMARK    5  A    between atoms: C_10  and  C_11
REMARK    6  A    between atoms: C_21  and  C_23
REMARK                            x       y       z     vdW  Elec       q    Type
REMARK                         _______ _______ _______ _____ _____    ______ ____
ROOT
ATOM      1  C   UNL     1       0.533  10.072  19.726  0.00  0.00    +0.000 A 
ATOM      2  C   UNL     1      -0.223   9.972  20.829  0.00  0.00    +0.000 A 
ATOM      3  C   UNL     1      -0.005   8.828  21.708  0.00  0.00    +0.000 A 
ATOM      4  O   UNL     1      -0.551   8.743  22.801  0.00  0.00    +0.000 OA
ATOM      5  N   UNL     1       0.841   7.883  21.221  0.00  0.00    +0.000 N 
ATOM      6  C   UNL     1       1.557   8.031  20.063  0.00  0.00    +0.000 A 
ATOM      7  N   UNL     1       2.411   7.004  19.731  0.00  0.00    +0.000 N 
ATOM      8  C   UNL     1       2.143   5.583  20.032  0.00  0.00    +0.000 C 
ATOM      9  C   UNL     1       2.036   4.738  18.747  0.00  0.00    +0.000 C 
ATOM     10  N   UNL     1       3.176   4.971  17.863  0.00  0.00    +0.000 N 
ATOM     11  C   UNL     1       3.911   3.887  17.380  0.00  0.00    +0.000 C 
ATOM     12  O   UNL     1       3.522   2.734  17.584  0.00  0.00    +0.000 OA
ATOM     13  C   UNL     1       3.355   6.391  17.521  0.00  0.00    +0.000 C 
ATOM     14  C   UNL     1       3.535   7.226  18.796  0.00  0.00    +0.000 C 
ATOM     15  N   UNL     1       1.435   9.105  19.336  0.00  0.00    +0.000 NA
ATOM     16  H   UNL     1       1.041   7.120  21.840  0.00  0.00    +0.000 HD
ENDROOT
BRANCH  11  17
ATOM     17  C   UNL     1       5.129   4.131  16.625  0.00  0.00    +0.000 A 
ATOM     18  C   UNL     1       5.354   4.097  15.259  0.00  0.00    +0.000 A 
ATOM     19  C   UNL     1       6.716   4.423  15.057  0.00  0.00    +0.000 A 
ATOM     20  C   UNL     1       7.259   4.578  16.310  0.00  0.00    +0.000 A 
ATOM     21  O   UNL     1       6.318   4.369  17.264  0.00  0.00    +0.000 OA
ENDBRANCH  11  17
BRANCH   1  22
ATOM     22  C   UNL     1       0.323  11.249  18.780  0.00  0.00    +0.000 C 
BRANCH  22  24
ATOM     23  C   UNL     1       1.685  13.167  18.338  0.00  0.00    +0.000 C 
ATOM     24  N   UNL     1       0.717  12.586  19.282  0.00  0.00    +0.000 NA
BRANCH  24  25
ATOM     25  C   UNL     1      -0.454  13.472  19.445  0.00  0.00    +0.000 C 
BRANCH  25  26
ATOM     26  C   UNL     1      -1.212  13.273  20.741  0.00  0.00    +0.000 A 
ATOM     27  C   UNL     1      -2.567  12.914  20.725  0.00  0.00    +0.000 A 
ATOM     28  C   UNL     1      -3.269  12.763  21.922  0.00  0.00    +0.000 A 
ATOM     29  C   UNL     1      -2.624  12.960  23.143  0.00  0.00    +0.000 A 
ATOM     30  C   UNL     1      -1.272  13.298  23.168  0.00  0.00    +0.000 A 
ATOM     31  C   UNL     1      -0.567  13.448  21.974  0.00  0.00    +0.000 A 
ENDBRANCH  25  26
ENDBRANCH  24  25
ENDBRANCH  22  24
ENDBRANCH   1  22
TORSDOF 5
ENDMDL
MODEL 3
REMARK VINA RESULT:      -7.5      0.774      1.387
REMARK  Name = 
REMARK  6 active torsions:
REMARK  status: ('A' for Active; 'I' for Inactive)
REMARK    1  A    between atoms: C_1  and  N_2
REMARK    2  A    between atoms: N_2  and  C_3
REMARK    3  A    between atoms: N_2  and  C_10
REMARK    4  A    between atoms: C_3  and  C_4
REMARK    5  A    between atoms: C_10  and  C_11
REMARK    6  A    between atoms: C_21  and  C_23
REMARK                            x       y       z     vdW  Elec       q    Type
REMARK                         _______ _______ _______ _____ _____    ______ ____
ROOT
ATOM      1  C   UNL     1       0.795  10.095  19.913  0.00  0.00    +0.000 A 
ATOM      2  C   UNL     1      -0.090   9.954  20.910  0.00  0.00    +0.000 A 
ATOM      3  C   UNL     1      -0.077   8.707  21.668  0.00  0.00    +0.000 A 
ATOM      4  O   UNL     1      -0.753   8.562  22.679  0.00  0.00    +0.000 OA
ATOM      5  N   UNL     1       0.735   7.740  21.166  0.00  0.00    +0.000 N 
ATOM      6  C   UNL     1       1.591   7.938  20.116  0.00  0.00    +0.000 A 
ATOM      7  N   UNL     1       2.386   6.872  19.759  0.00  0.00    +0.000 N 
ATOM      8  C   UNL     1       1.962   5.460  19.863  0.00  0.00    +0.000 C 
ATOM      9  C   UNL     1       1.933   4.771  18.484  0.00  0.00    +0.000 C 
ATOM     10  N   UNL     1       3.184   4.983  17.759  0.00  0.00    +0.000 N 
ATOM     11  C   UNL     1       3.873   3.888  17.235  0.00  0.00    +0.000 C 
ATOM     12  O   UNL     1       3.364   2.765  17.260  0.00  0.00    +0.000 OA
ATOM     13  C   UNL     1       3.525   6.405  17.606  0.00  0.00    +0.000 C 
ATOM     14  C   UNL     1       3.626   7.078  18.982  0.00  0.00    +0.000 C 
ATOM     15  N   UNL     1       1.650   9.089  19.511  0.00  0.00    +0.000 NA
ATOM     16  H   UNL     1       0.794   6.899  21.709  0.00  0.00    +0.000 HD
ENDROOT
BRANCH  11  17
ATOM     17  C   UNL     1       5.188   4.088  16.647  0.00  0.00    +0.000 A 
ATOM     18  C   UNL     1       5.596   4.009  15.326  0.00  0.00    +0.000 A 
ATOM     19  C   UNL     1       6.980   4.305  15.304  0.00  0.00    +0.000 A 
ATOM     20  C   UNL     1       7.350   4.489  16.615  0.00  0.00    +0.000 A 
ATOM     21  O   UNL     1       6.283   4.326  17.436  0.00  0.00    +0.000 OA
ENDBRANCH  11  17
BRANCH   1  22
ATOM     22  C   UNL     1       0.802  11.380  19.094  0.00  0.00    +0.000 C 
BRANCH  22  24
ATOM     23  C   UNL     1       0.449  13.585  19.956  0.00  0.00    +0.000 C 
ATOM     24  N   UNL     1      -0.229  12.390  19.430  0.00  0.00    +0.000 NA
BRANCH  24  25
ATOM     25  C   UNL     1      -1.059  12.732  18.255  0.00  0.00    +0.000 C 
BRANCH  25  26
ATOM     26  C   UNL     1      -2.199  11.769  17.995  0.00  0.00    +0.000 A 
ATOM     27  C   UNL     1      -3.473  12.014  18.526  0.00  0.00    +0.000 A 
ATOM     28  C   UNL     1      -4.512  11.108  18.310  0.00  0.00    +0.000 A 
ATOM     29  C   UNL     1      -4.291   9.955  17.556  0.00  0.00    +0.000 A 
ATOM     30  C   UNL     1      -3.033   9.713  17.008  0.00  0.00    +0.000 A 
ATOM     31  C   UNL     1      -1.993  10.618  17.220  0.00  0.00    +0.000 A 
ENDBRANCH  25  26
ENDBRANCH  24  25
ENDBRANCH  22  24
ENDBRANCH   1  22
TORSDOF 5
ENDMDL
MODEL 4
REMARK VINA RESULT:      -7.4      1.284      1.886
REMARK  Name = 
REMARK  6 active torsions:
REMARK  status: ('A' for Active; 'I' for Inactive)
REMARK    1  A    between atoms: C_1  and  N_2
REMARK    2  A    between atoms: N_2  and  C_3
REMARK    3  A    between atoms: N_2  and  C_10
REMARK    4  A    between atoms: C_3  and  C_4
REMARK    5  A    between atoms: C_10  and  C_11
REMARK    6  A    between atoms: C_21  and  C_23
REMARK                            x       y       z     vdW  Elec       q    Type
REMARK                         _______ _______ _______ _____ _____    ______ ____
ROOT
ATOM      1  C   UNL     1       0.495   9.989  19.662  0.00  0.00    +0.000 A 
ATOM      2  C   UNL     1      -0.225   9.902  20.790  0.00  0.00    +0.000 A 
ATOM      3  C   UNL     1       0.051   8.790  21.694  0.00  0.00    +0.000 A 
ATOM      4  O   UNL     1      -0.460   8.723  22.805  0.00  0.00    +0.000 OA
ATOM      5  N   UNL     1       0.908   7.855  21.208  0.00  0.00    +0.000 N 
ATOM      6  C   UNL     1       1.585   7.988  20.025  0.00  0.00    +0.000 A 
ATOM      7  N   UNL     1       2.457   6.974  19.697  0.00  0.00    +0.000 N 
ATOM      8  C   UNL     1       2.238   5.556  20.047  0.00  0.00    +0.000 C 
ATOM      9  C   UNL     1       2.116   4.671  18.790  0.00  0.00    +0.000 C 
ATOM     10  N   UNL     1       3.222   4.909  17.865  0.00  0.00    +0.000 N 
ATOM     11  C   UNL     1       3.973   3.831  17.392  0.00  0.00    +0.000 C 
ATOM     12  O   UNL     1       3.622   2.675  17.641  0.00  0.00    +0.000 OA
ATOM     13  C   UNL     1       3.352   6.322  17.478  0.00  0.00    +0.000 C 
ATOM     14  C   UNL     1       3.546   7.199  18.722  0.00  0.00    +0.000 C 
ATOM     15  N   UNL     1       1.412   9.035  19.272  0.00  0.00    +0.000 NA
ATOM     16  H   UNL     1       1.148   7.116  21.842  0.00  0.00    +0.000 HD
ENDROOT
BRANCH  11  17
ATOM     17  C   UNL     1       5.160   4.085  16.593  0.00  0.00    +0.000 A 
ATOM     18  C   UNL     1       5.347   4.009  15.223  0.00  0.00    +0.000 A 
ATOM     19  C   UNL     1       6.693   4.370  14.970  0.00  0.00    +0.000 A 
ATOM     20  C   UNL     1       7.266   4.586  16.201  0.00  0.00    +0.000 A 
ATOM     21  O   UNL     1       6.358   4.383  17.189  0.00  0.00    +0.000 OA
ENDBRANCH  11  17
BRANCH   1  22
ATOM     22  C   UNL     1       0.225  11.132  18.689  0.00  0.00    +0.000 C 
BRANCH  22  24
ATOM     23  C   UNL     1       1.040  13.379  18.576  0.00  0.00    +0.000 C 
ATOM     24  N   UNL     1       0.099  12.488  19.272  0.00  0.00    +0.000 NA
BRANCH  24  25
ATOM     25  C   UNL     1      -1.284  12.999  19.166  0.00  0.00    +0.000 C 
BRANCH  25  26
ATOM     26  C   UNL     1      -2.057  12.980  20.469  0.00  0.00    +0.000 A 
ATOM     27  C   UNL     1      -1.394  13.142  21.693  0.00  0.00    +0.000 A 
ATOM     28  C   UNL     1      -2.107  13.092  22.892  0.00  0.00    +0.000 A 
ATOM     29  C   UNL     1      -3.487  12.889  22.878  0.00  0.00    +0.000 A 
ATOM     30  C   UNL     1      -4.157  12.747  21.665  0.00  0.00    +0.000 A 
ATOM     31  C   UNL     1      -3.448  12.798  20.465  0.00  0.00    +0.000 A 
ENDBRANCH  25  26
ENDBRANCH  24  25
ENDBRANCH  22  24
ENDBRANCH   1  22
TORSDOF 5
ENDMDL
MODEL 5
REMARK VINA RESULT:      -7.4      1.073      1.624
REMARK  Name = 
REMARK  6 active torsions:
REMARK  status: ('A' for Active; 'I' for Inactive)
REMARK    1  A    between atoms: C_1  and  N_2
REMARK    2  A    between atoms: N_2  and  C_3
REMARK    3  A    between atoms: N_2  and  C_10
REMARK    4  A    between atoms: C_3  and  C_4
REMARK    5  A    between atoms: C_10  and  C_11
REMARK    6  A    between atoms: C_21  and  C_23
REMARK                            x       y       z     vdW  Elec       q    Type
REMARK                         _______ _______ _______ _____ _____    ______ ____
ROOT
ATOM      1  C   UNL     1       0.629   9.935  19.709  0.00  0.00    +0.000 A 
ATOM      2  C   UNL     1      -0.009   9.861  20.886  0.00  0.00    +0.000 A 
ATOM      3  C   UNL     1       0.352   8.776  21.793  0.00  0.00    +0.000 A 
ATOM      4  O   UNL     1      -0.080   8.726  22.938  0.00  0.00    +0.000 OA
ATOM      5  N   UNL     1       1.192   7.846  21.270  0.00  0.00    +0.000 N 
ATOM      6  C   UNL     1       1.783   7.964  20.041  0.00  0.00    +0.000 A 
ATOM      7  N   UNL     1       2.651   6.960  19.675  0.00  0.00    +0.000 N 
ATOM      8  C   UNL     1       2.486   5.546  20.072  0.00  0.00    +0.000 C 
ATOM      9  C   UNL     1       2.296   4.629  18.847  0.00  0.00    +0.000 C 
ATOM     10  N   UNL     1       3.331   4.866  17.842  0.00  0.00    +0.000 N 
ATOM     11  C   UNL     1       4.069   3.792  17.342  0.00  0.00    +0.000 C 
ATOM     12  O   UNL     1       3.760   2.635  17.641  0.00  0.00    +0.000 OA
ATOM     13  C   UNL     1       3.404   6.272  17.415  0.00  0.00    +0.000 C 
ATOM     14  C   UNL     1       3.665   7.181  18.623  0.00  0.00    +0.000 C 
ATOM     15  N   UNL     1       1.537   8.990  19.278  0.00  0.00    +0.000 NA
ATOM     16  H   UNL     1       1.490   7.127  21.903  0.00  0.00    +0.000 HD
ENDROOT
BRANCH  11  17
ATOM     17  C   UNL     1       5.193   4.049  16.457  0.00  0.00    +0.000 A 
ATOM     18  C   UNL     1       5.277   3.977  15.077  0.00  0.00    +0.000 A 
ATOM     19  C   UNL     1       6.600   4.340  14.725  0.00  0.00    +0.000 A 
ATOM     20  C   UNL     1       7.263   4.554  15.910  0.00  0.00    +0.000 A 
ATOM     21  O   UNL     1       6.432   4.348  16.962  0.00  0.00    +0.000 OA
ENDBRANCH  11  17
BRANCH   1  22
ATOM     22  C   UNL     1       0.269  11.048  18.732  0.00  0.00    +0.000 C 
BRANCH  22  24
ATOM     23  C   UNL     1      -0.701  13.187  18.272  0.00  0.00    +0.000 C 
ATOM     24  N   UNL     1      -0.734  12.038  19.189  0.00  0.00    +0.000 NA
BRANCH  24  25
ATOM     25  C   UNL     1      -2.089  11.451  19.247  0.00  0.00    +0.000 C 
BRANCH  25  26
ATOM     26  C   UNL     1      -2.661  11.067  17.898  0.00  0.00    +0.000 A 
ATOM     27  C   UNL     1      -2.021  10.108  17.100  0.00  0.00    +0.000 A 
ATOM     28  C   UNL     1      -2.535   9.781  15.845  0.00  0.00    +0.000 A 
ATOM     29  C   UNL     1      -3.694  10.401  15.378  0.00  0.00    +0.000 A 
ATOM     30  C   UNL     1      -4.347  11.341  16.172  0.00  0.00    +0.000 A 
ATOM     31  C   UNL     1      -3.838  11.669  17.429  0.00  0.00    +0.000 A 
ENDBRANCH  25  26
ENDBRANCH  24  25
ENDBRANCH  22  24
ENDBRANCH   1  22
TORSDOF 5
ENDMDL
MODEL 6
REMARK VINA RESULT:      -7.4      4.725      9.430
REMARK  Name = 
REMARK  6 active torsions:
REMARK  status: ('A' for Active; 'I' for Inactive)
REMARK    1  A    between atoms: C_1  and  N_2
REMARK    2  A    between atoms: N_2  and  C_3
REMARK    3  A    between atoms: N_2  and  C_10
REMARK    4  A    between atoms: C_3  and  C_4
REMARK    5  A    between atoms: C_10  and  C_11
REMARK    6  A    between atoms: C_21  and  C_23
REMARK                            x       y       z     vdW  Elec       q    Type
REMARK                         _______ _______ _______ _____ _____    ______ ____
ROOT
ATOM      1  C   UNL     1       0.656  10.368  19.112  0.00  0.00    +0.000 A 
ATOM      2  C   UNL     1      -0.620  10.293  18.706  0.00  0.00    +0.000 A 
ATOM      3  C   UNL     1      -1.212  11.473  18.086  0.00  0.00    +0.000 A 
ATOM      4  O   UNL     1      -2.319  11.437  17.562  0.00  0.00    +0.000 OA
ATOM      5  N   UNL     1      -0.446  12.594  18.138  0.00  0.00    +0.000 N 
ATOM      6  C   UNL     1       0.842  12.611  18.602  0.00  0.00    +0.000 A 
ATOM      7  N   UNL     1       1.503  13.817  18.541  0.00  0.00    +0.000 N 
ATOM      8  C   UNL     1       0.841  15.127  18.712  0.00  0.00    +0.000 C 
ATOM      9  C   UNL     1       1.388  15.887  19.937  0.00  0.00    +0.000 C 
ATOM     10  N   UNL     1       2.848  15.937  19.921  0.00  0.00    +0.000 N 
ATOM     11  C   UNL     1       3.500  17.164  20.059  0.00  0.00    +0.000 C 
ATOM     12  O   UNL     1       2.856  18.181  20.330  0.00  0.00    +0.000 OA
ATOM     13  C   UNL     1       3.467  14.606  19.835  0.00  0.00    +0.000 C 
ATOM     14  C   UNL     1       2.980  13.874  18.577  0.00  0.00    +0.000 C 
ATOM     15  N   UNL     1       1.401  11.527  19.058  0.00  0.00    +0.000 NA
ATOM     16  H   UNL     1      -0.820  13.396  17.667  0.00  0.00    +0.000 HD
ENDROOT
BRANCH  11  17
ATOM     17  C   UNL     1       4.942  17.228  19.893  0.00  0.00    +0.000 A 
ATOM     18  C   UNL     1       5.943  17.383  20.838  0.00  0.00    +0.000 A 
ATOM     19  C   UNL     1       7.175  17.367  20.140  0.00  0.00    +0.000 A 
ATOM     20  C   UNL     1       6.855  17.264  18.807  0.00  0.00    +0.000 A 
ATOM     21  O   UNL     1       5.509  17.214  18.645  0.00  0.00    +0.000 OA
ENDBRANCH  11  17
BRANCH   1  22
ATOM     22  C   UNL     1       1.303   9.157  19.774  0.00  0.00    +0.000 C 
BRANCH  22  24
ATOM     23  C   UNL     1       2.472   8.623  17.756  0.00  0.00    +0.000 C 
ATOM     24  N   UNL     1       1.717   8.050  18.880  0.00  0.00    +0.000 NA
BRANCH  24  25
ATOM     25  C   UNL     1       2.526   7.044  19.599  0.00  0.00    +0.000 C 
BRANCH  25  26
ATOM     26  C   UNL     1       2.026   5.622  19.456  0.00  0.00    +0.000 A 
ATOM     27  C   UNL     1       2.050   4.980  18.210  0.00  0.00    +0.000 A 
ATOM     28  C   UNL     1       1.558   3.681  18.077  0.00  0.00    +0.000 A 
ATOM     29  C   UNL     1       1.047   3.008  19.188  0.00  0.00    +0.000 A 
ATOM     30  C   UNL     1       1.038   3.631  20.434  0.00  0.00    +0.000 A 
ATOM     31  C   UNL     1       1.530   4.929  20.571  0.00  0.00    +0.000 A 
ENDBRANCH  25  26
ENDBRANCH  24  25
ENDBRANCH  22  24
ENDBRANCH   1  22
TORSDOF 5
ENDMDL
MODEL 7
REMARK VINA RESULT:      -7.2      2.206      9.789
REMARK  Name = 
REMARK  6 active torsions:
REMARK  status: ('A' for Active; 'I' for Inactive)
REMARK    1  A    between atoms: C_1  and  N_2
REMARK    2  A    between atoms: N_2  and  C_3
REMARK    3  A    between atoms: N_2  and  C_10
REMARK    4  A    between atoms: C_3  and  C_4
REMARK    5  A    between atoms: C_10  and  C_11
REMARK    6  A    between atoms: C_21  and  C_23
REMARK                            x       y       z     vdW  Elec       q    Type
REMARK                         _______ _______ _______ _____ _____    ______ ____
ROOT
ATOM      1  C   UNL     1       5.563   5.775  18.157  0.00  0.00    +0.000 A 
ATOM      2  C   UNL     1       5.766   4.609  18.787  0.00  0.00    +0.000 A 
ATOM      3  C   UNL     1       4.662   4.047  19.560  0.00  0.00    +0.000 A 
ATOM      4  O   UNL     1       4.722   2.923  20.041  0.00  0.00    +0.000 OA
ATOM      5  N   UNL     1       3.585   4.863  19.696  0.00  0.00    +0.000 N 
ATOM      6  C   UNL     1       3.456   6.064  19.053  0.00  0.00    +0.000 A 
ATOM      7  N   UNL     1       2.279   6.749  19.255  0.00  0.00    +0.000 N 
ATOM      8  C   UNL     1       1.519   6.722  20.522  0.00  0.00    +0.000 C 
ATOM      9  C   UNL     1       1.422   8.122  21.158  0.00  0.00    +0.000 C 
ATOM     10  N   UNL     1       0.959   9.114  20.189  0.00  0.00    +0.000 N 
ATOM     11  C   UNL     1      -0.124   9.935  20.504  0.00  0.00    +0.000 C 
ATOM     12  O   UNL     1      -0.603   9.923  21.641  0.00  0.00    +0.000 OA
ATOM     13  C   UNL     1       1.794   9.166  18.979  0.00  0.00    +0.000 C 
ATOM     14  C   UNL     1       1.835   7.789  18.302  0.00  0.00    +0.000 C 
ATOM     15  N   UNL     1       4.403   6.511  18.279  0.00  0.00    +0.000 NA
ATOM     16  H   UNL     1       2.800   4.466  20.178  0.00  0.00    +0.000 HD
ENDROOT
BRANCH  11  17
ATOM     17  C   UNL     1      -0.673  10.814  19.484  0.00  0.00    +0.000 A 
ATOM     18  C   UNL     1      -1.599  10.557  18.487  0.00  0.00    +0.000 A 
ATOM     19  C   UNL     1      -1.788  11.767  17.777  0.00  0.00    +0.000 A 
ATOM     20  C   UNL     1      -0.925  12.676  18.340  0.00  0.00    +0.000 A 
ATOM     21  O   UNL     1      -0.222  12.102  19.348  0.00  0.00    +0.000 OA
ENDBRANCH  11  17
BRANCH   1  22
ATOM     22  C   UNL     1       6.698   6.396  17.349  0.00  0.00    +0.000 C 
BRANCH  22  24
ATOM     23  C   UNL     1       7.629   4.388  16.440  0.00  0.00    +0.000 C 
ATOM     24  N   UNL     1       7.077   5.706  16.094  0.00  0.00    +0.000 NA
BRANCH  24  25
ATOM     25  C   UNL     1       5.924   5.569  15.180  0.00  0.00    +0.000 C 
BRANCH  25  26
ATOM     26  C   UNL     1       6.220   4.794  13.913  0.00  0.00    +0.000 A 
ATOM     27  C   UNL     1       7.355   5.092  13.145  0.00  0.00    +0.000 A 
ATOM     28  C   UNL     1       7.606   4.395  11.962  0.00  0.00    +0.000 A 
ATOM     29  C   UNL     1       6.734   3.391  11.540  0.00  0.00    +0.000 A 
ATOM     30  C   UNL     1       5.615   3.075  12.308  0.00  0.00    +0.000 A 
ATOM     31  C   UNL     1       5.362   3.767  13.492  0.00  0.00    +0.000 A 
ENDBRANCH  25  26
ENDBRANCH  24  25
ENDBRANCH  22  24
ENDBRANCH   1  22
TORSDOF 5
ENDMDL
MODEL 8
REMARK VINA RESULT:      -7.2      4.497      9.462
REMARK  Name = 
REMARK  6 active torsions:
REMARK  status: ('A' for Active; 'I' for Inactive)
REMARK    1  A    between atoms: C_1  and  N_2
REMARK    2  A    between atoms: N_2  and  C_3
REMARK    3  A    between atoms: N_2  and  C_10
REMARK    4  A    between atoms: C_3  and  C_4
REMARK    5  A    between atoms: C_10  and  C_11
REMARK    6  A    between atoms: C_21  and  C_23
REMARK                            x       y       z     vdW  Elec       q    Type
REMARK                         _______ _______ _______ _____ _____    ______ ____
ROOT
ATOM      1  C   UNL     1       0.845   9.948  19.143  0.00  0.00    +0.000 A 
ATOM      2  C   UNL     1      -0.421   9.754  18.745  0.00  0.00    +0.000 A 
ATOM      3  C   UNL     1      -1.134  10.883  18.155  0.00  0.00    +0.000 A 
ATOM      4  O   UNL     1      -2.236  10.747  17.639  0.00  0.00    +0.000 OA
ATOM      5  N   UNL     1      -0.482  12.073  18.225  0.00  0.00    +0.000 N 
ATOM      6  C   UNL     1       0.802  12.209  18.680  0.00  0.00    +0.000 A 
ATOM      7  N   UNL     1       1.339  13.476  18.640  0.00  0.00    +0.000 N 
ATOM      8  C   UNL     1       0.552  14.709  18.844  0.00  0.00    +0.000 C 
ATOM      9  C   UNL     1       1.032  15.494  20.081  0.00  0.00    +0.000 C 
ATOM     10  N   UNL     1       2.480  15.690  20.054  0.00  0.00    +0.000 N 
ATOM     11  C   UNL     1       3.008  16.973  20.213  0.00  0.00    +0.000 C 
ATOM     12  O   UNL     1       2.269  17.915  20.512  0.00  0.00    +0.000 OA
ATOM     13  C   UNL     1       3.227  14.429  19.935  0.00  0.00    +0.000 C 
ATOM     14  C   UNL     1       2.804  13.678  18.665  0.00  0.00    +0.000 C 
ATOM     15  N   UNL     1       1.471  11.177  19.108  0.00  0.00    +0.000 NA
ATOM     16  H   UNL     1      -0.939  12.843  17.774  0.00  0.00    +0.000 HD
ENDROOT
BRANCH  11  17
ATOM     17  C   UNL     1       4.435  17.184  20.038  0.00  0.00    +0.000 A 
ATOM     18  C   UNL     1       5.415  17.478  20.971  0.00  0.00    +0.000 A 
ATOM     19  C   UNL     1       6.640  17.568  20.268  0.00  0.00    +0.000 A 
ATOM     20  C   UNL     1       6.331  17.384  18.942  0.00  0.00    +0.000 A 
ATOM     21  O   UNL     1       4.998  17.185  18.788  0.00  0.00    +0.000 OA
ENDBRANCH  11  17
BRANCH   1  22
ATOM     22  C   UNL     1       1.616   8.794  19.774  0.00  0.00    +0.000 C 
BRANCH  22  24
ATOM     23  C   UNL     1       2.851   8.193  17.815  0.00  0.00    +0.000 C 
ATOM     24  N   UNL     1       1.983   7.670  18.880  0.00  0.00    +0.000 NA
BRANCH  24  25
ATOM     25  C   UNL     1       2.657   6.584  19.622  0.00  0.00    +0.000 C 
BRANCH  25  26
ATOM     26  C   UNL     1       2.018   5.222  19.453  0.00  0.00    +0.000 A 
ATOM     27  C   UNL     1       1.518   4.527  20.564  0.00  0.00    +0.000 A 
ATOM     28  C   UNL     1       0.958   3.258  20.407  0.00  0.00    +0.000 A 
ATOM     29  C   UNL     1       0.884   2.676  19.141  0.00  0.00    +0.000 A 
ATOM     30  C   UNL     1       1.360   3.368  18.029  0.00  0.00    +0.000 A 
ATOM     31  C   UNL     1       1.918   4.637  18.182  0.00  0.00    +0.000 A 
ENDBRANCH  25  26
ENDBRANCH  24  25
ENDBRANCH  22  24
ENDBRANCH   1  22
TORSDOF 5
ENDMDL
MODEL 9
REMARK VINA RESULT:      -7.1      1.402      1.736
REMARK  Name = 
REMARK  6 active torsions:
REMARK  status: ('A' for Active; 'I' for Inactive)
REMARK    1  A    between atoms: C_1  and  N_2
REMARK    2  A    between atoms: N_2  and  C_3
REMARK    3  A    between atoms: N_2  and  C_10
REMARK    4  A    between atoms: C_3  and  C_4
REMARK    5  A    between atoms: C_10  and  C_11
REMARK    6  A    between atoms: C_21  and  C_23
REMARK                            x       y       z     vdW  Elec       q    Type
REMARK                         _______ _______ _______ _____ _____    ______ ____
ROOT
ATOM      1  C   UNL     1       0.729  10.084  19.793  0.00  0.00    +0.000 A 
ATOM      2  C   UNL     1      -0.040   9.987  20.888  0.00  0.00    +0.000 A 
ATOM      3  C   UNL     1       0.123   8.812  21.738  0.00  0.00    +0.000 A 
ATOM      4  O   UNL     1      -0.435   8.723  22.824  0.00  0.00    +0.000 OA
ATOM      5  N   UNL     1       0.933   7.846  21.232  0.00  0.00    +0.000 N 
ATOM      6  C   UNL     1       1.664   7.994  20.083  0.00  0.00    +0.000 A 
ATOM      7  N   UNL     1       2.477   6.940  19.730  0.00  0.00    +0.000 N 
ATOM      8  C   UNL     1       2.147   5.524  19.992  0.00  0.00    +0.000 C 
ATOM      9  C   UNL     1       2.015   4.718  18.685  0.00  0.00    +0.000 C 
ATOM     10  N   UNL     1       3.171   4.926  17.815  0.00  0.00    +0.000 N 
ATOM     11  C   UNL     1       3.863   3.825  17.310  0.00  0.00    +0.000 C 
ATOM     12  O   UNL     1       3.425   2.684  17.480  0.00  0.00    +0.000 OA
ATOM     13  C   UNL     1       3.412   6.345  17.512  0.00  0.00    +0.000 C 
ATOM     14  C   UNL     1       3.616   7.138  18.810  0.00  0.00    +0.000 C 
ATOM     15  N   UNL     1       1.593   9.090  19.384  0.00  0.00    +0.000 NA
ATOM     16  H   UNL     1       1.095   7.059  21.832  0.00  0.00    +0.000 HD
ENDROOT
BRANCH  11  17
ATOM     17  C   UNL     1       5.096   4.036  16.570  0.00  0.00    +0.000 A 
ATOM     18  C   UNL     1       6.372   4.328  17.024  0.00  0.00    +0.000 A 
ATOM     19  C   UNL     1       7.205   4.419  15.883  0.00  0.00    +0.000 A 
ATOM     20  C   UNL     1       6.382   4.239  14.796  0.00  0.00    +0.000 A 
ATOM     21  O   UNL     1       5.102   4.041  15.198  0.00  0.00    +0.000 OA
ENDBRANCH  11  17
BRANCH   1  22
ATOM     22  C   UNL     1       0.578  11.293  18.877  0.00  0.00    +0.000 C 
BRANCH  22  24
ATOM     23  C   UNL     1       0.202  13.453  19.836  0.00  0.00    +0.000 C 
ATOM     24  N   UNL     1      -0.463  12.282  19.245  0.00  0.00    +0.000 NA
BRANCH  24  25
ATOM     25  C   UNL     1      -1.277  12.675  18.075  0.00  0.00    +0.000 C 
BRANCH  25  26
ATOM     26  C   UNL     1      -2.082  11.545  17.467  0.00  0.00    +0.000 A 
ATOM     27  C   UNL     1      -2.297  11.489  16.083  0.00  0.00    +0.000 A 
ATOM     28  C   UNL     1      -3.065  10.463  15.531  0.00  0.00    +0.000 A 
ATOM     29  C   UNL     1      -3.618   9.481  16.354  0.00  0.00    +0.000 A 
ATOM     30  C   UNL     1      -3.393   9.518  17.728  0.00  0.00    +0.000 A 
ATOM     31  C   UNL     1      -2.623  10.540  18.283  0.00  0.00    +0.000 A 
ENDBRANCH  25  26
ENDBRANCH  24  25
ENDBRANCH  22  24
ENDBRANCH   1  22
TORSDOF 5
ENDMDL
