MODEL 1
REMARK VINA RESULT:      -8.1      0.000      0.000
REMARK  Name = 
REMARK  8 active torsions:
REMARK  status: ('A' for Active; 'I' for Inactive)
REMARK    1  A    between atoms: C_1  and  O_2
REMARK    2  A    between atoms: O_2  and  C_3
REMARK    3  A    between atoms: C_5  and  C_6
REMARK    4  A    between atoms: C_11  and  O_12
REMARK    5  A    between atoms: C_13  and  O_14
REMARK    6  A    between atoms: C_15  and  O_16
REMARK    7  A    between atoms: O_16  and  C_17
REMARK    8  A    between atoms: C_23  and  O_24
REMARK                            x       y       z     vdW  Elec       q    Type
REMARK                         _______ _______ _______ _____ _____    ______ ____
ROOT
ATOM      1  C   UNL     1       2.427   7.041  19.038  0.00  0.00    +0.000 A 
ATOM      2  C   UNL     1       2.363   5.875  19.703  0.00  0.00    +0.000 A 
ATOM      3  C   UNL     1       3.072   4.739  19.170  0.00  0.00    +0.000 A 
ATOM      4  O   UNL     1       2.828   3.591  19.516  0.00  0.00    +0.000 OA
ATOM      5  C   UNL     1       4.174   5.080  18.305  0.00  0.00    +0.000 A 
ATOM      6  C   UNL     1       5.340   4.348  18.378  0.00  0.00    +0.000 A 
ATOM      7  C   UNL     1       6.360   4.637  17.494  0.00  0.00    +0.000 A 
ATOM      8  C   UNL     1       6.197   5.605  16.488  0.00  0.00    +0.000 A 
ATOM      9  C   UNL     1       5.059   6.439  16.523  0.00  0.00    +0.000 A 
ATOM     10  C   UNL     1       4.083   6.226  17.516  0.00  0.00    +0.000 A 
ATOM     11  O   UNL     1       3.123   7.200  17.816  0.00  0.00    +0.000 OA
ENDROOT
BRANCH   1  14
ATOM     12  C   UNL     1       0.922  10.515  19.720  0.00  0.00    +0.000 A 
ATOM     13  C   UNL     1       1.447   9.403  19.016  0.00  0.00    +0.000 A 
ATOM     14  C   UNL     1       1.742   8.199  19.673  0.00  0.00    +0.000 A 
ATOM     15  C   UNL     1       1.482   8.141  21.057  0.00  0.00    +0.000 A 
ATOM     16  C   UNL     1       0.997   9.232  21.770  0.00  0.00    +0.000 A 
ATOM     17  C   UNL     1       0.700  10.415  21.104  0.00  0.00    +0.000 A 
BRANCH  12  19
ATOM     18  C   UNL     1       1.827  12.453  18.641  0.00  0.00    +0.000 C 
ATOM     19  O   UNL     1       0.706  11.620  18.930  0.00  0.00    +0.000 OA
ENDBRANCH  12  19
BRANCH  17  20
ATOM     20  O   UNL     1       0.221  11.447  21.843  0.00  0.00    +0.000 OA
ATOM     21  H   UNL     1       0.520  12.302  21.451  0.00  0.00    +0.000 HD
ENDBRANCH  17  20
ENDBRANCH   1  14
BRANCH   6  22
ATOM     22  O   UNL     1       5.594   3.433  19.370  0.00  0.00    +0.000 OA
ATOM     23  H   UNL     1       5.684   2.547  18.958  0.00  0.00    +0.000 HD
ENDBRANCH   6  22
BRANCH   7  24
ATOM     24  O   UNL     1       7.551   3.977  17.654  0.00  0.00    +0.000 OA
ATOM     25  H   UNL     1       7.697   3.521  16.801  0.00  0.00    +0.000 HD
ENDBRANCH   7  24
BRANCH   8  26
ATOM     26  O   UNL     1       7.247   5.669  15.619  0.00  0.00    +0.000 OA
ATOM     27  C   UNL     1       7.176   5.040  14.355  0.00  0.00    +0.000 C 
ENDBRANCH   8  26
TORSDOF 6
ENDMDL
MODEL 2
REMARK VINA RESULT:      -8.1      0.839      1.810
REMARK  Name = 
REMARK  8 active torsions:
REMARK  status: ('A' for Active; 'I' for Inactive)
REMARK    1  A    between atoms: C_1  and  O_2
REMARK    2  A    between atoms: O_2  and  C_3
REMARK    3  A    between atoms: C_5  and  C_6
REMARK    4  A    between atoms: C_11  and  O_12
REMARK    5  A    between atoms: C_13  and  O_14
REMARK    6  A    between atoms: C_15  and  O_16
REMARK    7  A    between atoms: O_16  and  C_17
REMARK    8  A    between atoms: C_23  and  O_24
REMARK                            x       y       z     vdW  Elec       q    Type
REMARK                         _______ _______ _______ _____ _____    ______ ____
ROOT
ATOM      1  C   UNL     1       2.539   7.227  18.688  0.00  0.00    +0.000 A 
ATOM      2  C   UNL     1       2.464   6.130  19.460  0.00  0.00    +0.000 A 
ATOM      3  C   UNL     1       3.174   4.946  19.043  0.00  0.00    +0.000 A 
ATOM      4  O   UNL     1       2.922   3.837  19.494  0.00  0.00    +0.000 OA
ATOM      5  C   UNL     1       4.284   5.200  18.159  0.00  0.00    +0.000 A 
ATOM      6  C   UNL     1       5.446   4.473  18.311  0.00  0.00    +0.000 A 
ATOM      7  C   UNL     1       6.475   4.674  17.413  0.00  0.00    +0.000 A 
ATOM      8  C   UNL     1       6.324   5.543  16.318  0.00  0.00    +0.000 A 
ATOM      9  C   UNL     1       5.190   6.380  16.264  0.00  0.00    +0.000 A 
ATOM     10  C   UNL     1       4.204   6.266  17.264  0.00  0.00    +0.000 A 
ATOM     11  O   UNL     1       3.246   7.267  17.462  0.00  0.00    +0.000 OA
ENDROOT
BRANCH   1  14
ATOM     12  C   UNL     1       0.869   9.827  20.979  0.00  0.00    +0.000 A 
ATOM     13  C   UNL     1       1.653   8.722  20.564  0.00  0.00    +0.000 A 
ATOM     14  C   UNL     1       1.855   8.443  19.204  0.00  0.00    +0.000 A 
ATOM     15  C   UNL     1       1.256   9.316  18.272  0.00  0.00    +0.000 A 
ATOM     16  C   UNL     1       0.457  10.386  18.661  0.00  0.00    +0.000 A 
ATOM     17  C   UNL     1       0.274  10.655  20.013  0.00  0.00    +0.000 A 
BRANCH  12  19
ATOM     18  C   UNL     1      -0.399   9.386  22.964  0.00  0.00    +0.000 C 
ATOM     19  O   UNL     1       0.757   9.946  22.345  0.00  0.00    +0.000 OA
ENDBRANCH  12  19
BRANCH  17  20
ATOM     20  O   UNL     1      -0.506  11.716  20.339  0.00  0.00    +0.000 OA
ATOM     21  H   UNL     1      -0.144  12.533  19.921  0.00  0.00    +0.000 HD
ENDBRANCH  17  20
ENDBRANCH   1  14
BRANCH   6  22
ATOM     22  O   UNL     1       5.688   3.656  19.388  0.00  0.00    +0.000 OA
ATOM     23  H   UNL     1       6.240   2.903  19.086  0.00  0.00    +0.000 HD
ENDBRANCH   6  22
BRANCH   7  24
ATOM     24  O   UNL     1       7.661   4.028  17.645  0.00  0.00    +0.000 OA
ATOM     25  H   UNL     1       8.220   4.693  18.096  0.00  0.00    +0.000 HD
ENDBRANCH   7  24
BRANCH   8  26
ATOM     26  O   UNL     1       7.382   5.520  15.456  0.00  0.00    +0.000 OA
ATOM     27  C   UNL     1       7.261   4.917  14.183  0.00  0.00    +0.000 C 
ENDBRANCH   8  26
TORSDOF 6
ENDMDL
MODEL 3
REMARK VINA RESULT:      -7.7      1.694      7.858
REMARK  Name = 
REMARK  8 active torsions:
REMARK  status: ('A' for Active; 'I' for Inactive)
REMARK    1  A    between atoms: C_1  and  O_2
REMARK    2  A    between atoms: O_2  and  C_3
REMARK    3  A    between atoms: C_5  and  C_6
REMARK    4  A    between atoms: C_11  and  O_12
REMARK    5  A    between atoms: C_13  and  O_14
REMARK    6  A    between atoms: C_15  and  O_16
REMARK    7  A    between atoms: O_16  and  C_17
REMARK    8  A    between atoms: C_23  and  O_24
REMARK                            x       y       z     vdW  Elec       q    Type
REMARK                         _______ _______ _______ _____ _____    ______ ____
ROOT
ATOM      1  C   UNL     1       2.251   6.796  19.653  0.00  0.00    +0.000 A 
ATOM      2  C   UNL     1       2.421   7.566  18.564  0.00  0.00    +0.000 A 
ATOM      3  C   UNL     1       1.669   8.792  18.463  0.00  0.00    +0.000 A 
ATOM      4  O   UNL     1       1.518   9.385  17.404  0.00  0.00    +0.000 OA
ATOM      5  C   UNL     1       1.228   9.323  19.729  0.00  0.00    +0.000 A 
ATOM      6  C   UNL     1       1.266  10.686  19.938  0.00  0.00    +0.000 A 
ATOM      7  C   UNL     1       0.773  11.187  21.126  0.00  0.00    +0.000 A 
ATOM      8  C   UNL     1       0.175  10.344  22.078  0.00  0.00    +0.000 A 
ATOM      9  C   UNL     1       0.278   8.947  21.911  0.00  0.00    +0.000 A 
ATOM     10  C   UNL     1       0.907   8.438  20.757  0.00  0.00    +0.000 A 
ATOM     11  O   UNL     1       1.338   7.108  20.688  0.00  0.00    +0.000 OA
ENDROOT
BRANCH   1  14
ATOM     12  C   UNL     1       5.120   4.269  19.228  0.00  0.00    +0.000 A 
ATOM     13  C   UNL     1       4.413   5.498  19.233  0.00  0.00    +0.000 A 
ATOM     14  C   UNL     1       3.110   5.585  19.743  0.00  0.00    +0.000 A 
ATOM     15  C   UNL     1       2.541   4.403  20.260  0.00  0.00    +0.000 A 
ATOM     16  C   UNL     1       3.207   3.183  20.234  0.00  0.00    +0.000 A 
ATOM     17  C   UNL     1       4.502   3.114  19.734  0.00  0.00    +0.000 A 
BRANCH  12  19
ATOM     18  C   UNL     1       6.469   4.614  17.278  0.00  0.00    +0.000 C 
ATOM     19  O   UNL     1       6.378   4.355  18.677  0.00  0.00    +0.000 OA
ENDBRANCH  12  19
BRANCH  17  20
ATOM     20  O   UNL     1       5.111   1.902  19.740  0.00  0.00    +0.000 OA
ATOM     21  H   UNL     1       4.540   1.246  20.206  0.00  0.00    +0.000 HD
ENDBRANCH  17  20
ENDBRANCH   1  14
BRANCH   6  22
ATOM     22  O   UNL     1       1.889  11.561  19.084  0.00  0.00    +0.000 OA
ATOM     23  H   UNL     1       1.250  12.268  18.845  0.00  0.00    +0.000 HD
ENDBRANCH   6  22
BRANCH   7  24
ATOM     24  O   UNL     1       0.921  12.529  21.363  0.00  0.00    +0.000 OA
ATOM     25  H   UNL     1       0.272  12.958  20.770  0.00  0.00    +0.000 HD
ENDBRANCH   7  24
BRANCH   8  26
ATOM     26  O   UNL     1      -0.380  11.017  23.128  0.00  0.00    +0.000 OA
ATOM     27  C   UNL     1      -1.727  11.442  23.080  0.00  0.00    +0.000 C 
ENDBRANCH   8  26
TORSDOF 6
ENDMDL
MODEL 4
REMARK VINA RESULT:      -7.0      1.445      7.934
REMARK  Name = 
REMARK  8 active torsions:
REMARK  status: ('A' for Active; 'I' for Inactive)
REMARK    1  A    between atoms: C_1  and  O_2
REMARK    2  A    between atoms: O_2  and  C_3
REMARK    3  A    between atoms: C_5  and  C_6
REMARK    4  A    between atoms: C_11  and  O_12
REMARK    5  A    between atoms: C_13  and  O_14
REMARK    6  A    between atoms: C_15  and  O_16
REMARK    7  A    between atoms: O_16  and  C_17
REMARK    8  A    between atoms: C_23  and  O_24
REMARK                            x       y       z     vdW  Elec       q    Type
REMARK                         _______ _______ _______ _____ _____    ______ ____
ROOT
ATOM      1  C   UNL     1       2.803   7.197  18.777  0.00  0.00    +0.000 A 
ATOM      2  C   UNL     1       2.552   8.088  17.803  0.00  0.00    +0.000 A 
ATOM      3  C   UNL     1       1.532   9.082  18.025  0.00  0.00    +0.000 A 
ATOM      4  O   UNL     1       1.024   9.717  17.113  0.00  0.00    +0.000 OA
ATOM      5  C   UNL     1       1.264   9.355  19.416  0.00  0.00    +0.000 A 
ATOM      6  C   UNL     1       1.028  10.654  19.815  0.00  0.00    +0.000 A 
ATOM      7  C   UNL     1       0.700  10.892  21.134  0.00  0.00    +0.000 A 
ATOM      8  C   UNL     1       0.533   9.834  22.044  0.00  0.00    +0.000 A 
ATOM      9  C   UNL     1       0.919   8.533  21.655  0.00  0.00    +0.000 A 
ATOM     10  C   UNL     1       1.385   8.320  20.342  0.00  0.00    +0.000 A 
ATOM     11  O   UNL     1       2.088   7.159  19.997  0.00  0.00    +0.000 OA
ENDROOT
BRANCH   1  14
ATOM     12  C   UNL     1       5.231   4.221  18.994  0.00  0.00    +0.000 A 
ATOM     13  C   UNL     1       4.070   5.013  19.179  0.00  0.00    +0.000 A 
ATOM     14  C   UNL     1       3.918   6.244  18.526  0.00  0.00    +0.000 A 
ATOM     15  C   UNL     1       4.962   6.652  17.670  0.00  0.00    +0.000 A 
ATOM     16  C   UNL     1       6.121   5.903  17.501  0.00  0.00    +0.000 A 
ATOM     17  C   UNL     1       6.254   4.681  18.148  0.00  0.00    +0.000 A 
BRANCH  12  19
ATOM     18  C   UNL     1       3.964   2.526  20.118  0.00  0.00    +0.000 C 
ATOM     19  O   UNL     1       5.228   3.053  19.722  0.00  0.00    +0.000 OA
ENDBRANCH  12  19
BRANCH  17  20
ATOM     20  O   UNL     1       7.400   3.985  17.943  0.00  0.00    +0.000 OA
ATOM     21  H   UNL     1       7.639   4.016  16.986  0.00  0.00    +0.000 HD
ENDBRANCH  17  20
ENDBRANCH   1  14
BRANCH   6  22
ATOM     22  O   UNL     1       1.232  11.740  19.000  0.00  0.00    +0.000 OA
ATOM     23  H   UNL     1       1.951  11.522  18.368  0.00  0.00    +0.000 HD
ENDBRANCH   6  22
BRANCH   7  24
ATOM     24  O   UNL     1       0.580  12.197  21.537  0.00  0.00    +0.000 OA
ATOM     25  H   UNL     1       1.453  12.419  21.918  0.00  0.00    +0.000 HD
ENDBRANCH   7  24
BRANCH   8  26
ATOM     26  O   UNL     1       0.076  10.234  23.266  0.00  0.00    +0.000 OA
ATOM     27  C   UNL     1      -1.274  10.614  23.442  0.00  0.00    +0.000 C 
ENDBRANCH   8  26
TORSDOF 6
ENDMDL
MODEL 5
REMARK VINA RESULT:      -7.0      2.422      4.199
REMARK  Name = 
REMARK  8 active torsions:
REMARK  status: ('A' for Active; 'I' for Inactive)
REMARK    1  A    between atoms: C_1  and  O_2
REMARK    2  A    between atoms: O_2  and  C_3
REMARK    3  A    between atoms: C_5  and  C_6
REMARK    4  A    between atoms: C_11  and  O_12
REMARK    5  A    between atoms: C_13  and  O_14
REMARK    6  A    between atoms: C_15  and  O_16
REMARK    7  A    between atoms: O_16  and  C_17
REMARK    8  A    between atoms: C_23  and  O_24
REMARK                            x       y       z     vdW  Elec       q    Type
REMARK                         _______ _______ _______ _____ _____    ______ ____
ROOT
ATOM      1  C   UNL     1       1.892   8.438  18.796  0.00  0.00    +0.000 A 
ATOM      2  C   UNL     1       2.704   8.320  17.732  0.00  0.00    +0.000 A 
ATOM      3  C   UNL     1       3.640   7.224  17.698  0.00  0.00    +0.000 A 
ATOM      4  O   UNL     1       4.608   7.209  16.950  0.00  0.00    +0.000 OA
ATOM      5  C   UNL     1       3.265   6.098  18.518  0.00  0.00    +0.000 A 
ATOM      6  C   UNL     1       3.484   4.820  18.049  0.00  0.00    +0.000 A 
ATOM      7  C   UNL     1       3.188   3.753  18.872  0.00  0.00    +0.000 A 
ATOM      8  C   UNL     1       2.745   3.953  20.191  0.00  0.00    +0.000 A 
ATOM      9  C   UNL     1       2.391   5.257  20.600  0.00  0.00    +0.000 A 
ATOM     10  C   UNL     1       2.567   6.329  19.702  0.00  0.00    +0.000 A 
ATOM     11  O   UNL     1       1.938   7.563  19.907  0.00  0.00    +0.000 OA
ENDROOT
BRANCH   1  14
ATOM     12  C   UNL     1      -1.079  10.677  17.820  0.00  0.00    +0.000 A 
ATOM     13  C   UNL     1      -0.247   9.535  17.926  0.00  0.00    +0.000 A 
ATOM     14  C   UNL     1       0.893   9.538  18.743  0.00  0.00    +0.000 A 
ATOM     15  C   UNL     1       1.166  10.720  19.462  0.00  0.00    +0.000 A 
ATOM     16  C   UNL     1       0.379  11.860  19.346  0.00  0.00    +0.000 A 
ATOM     17  C   UNL     1      -0.753  11.839  18.540  0.00  0.00    +0.000 A 
BRANCH  12  19
ATOM     18  C   UNL     1      -3.309   9.872  17.478  0.00  0.00    +0.000 C 
ATOM     19  O   UNL     1      -2.143  10.512  16.964  0.00  0.00    +0.000 OA
ENDBRANCH  12  19
BRANCH  17  20
ATOM     20  O   UNL     1      -1.492  12.974  18.468  0.00  0.00    +0.000 OA
ATOM     21  H   UNL     1      -1.959  13.011  17.600  0.00  0.00    +0.000 HD
ENDBRANCH  17  20
ENDBRANCH   1  14
BRANCH   6  22
ATOM     22  O   UNL     1       3.854   4.546  16.755  0.00  0.00    +0.000 OA
ATOM     23  H   UNL     1       4.834   4.576  16.702  0.00  0.00    +0.000 HD
ENDBRANCH   6  22
BRANCH   7  24
ATOM     24  O   UNL     1       3.305   2.491  18.350  0.00  0.00    +0.000 OA
ATOM     25  H   UNL     1       2.498   2.025  18.648  0.00  0.00    +0.000 HD
ENDBRANCH   7  24
BRANCH   8  26
ATOM     26  O   UNL     1       2.632   2.798  20.909  0.00  0.00    +0.000 OA
ATOM     27  C   UNL     1       1.497   2.560  21.718  0.00  0.00    +0.000 C 
ENDBRANCH   8  26
TORSDOF 6
ENDMDL
MODEL 6
REMARK VINA RESULT:      -7.0      2.190      8.043
REMARK  Name = 
REMARK  8 active torsions:
REMARK  status: ('A' for Active; 'I' for Inactive)
REMARK    1  A    between atoms: C_1  and  O_2
REMARK    2  A    between atoms: O_2  and  C_3
REMARK    3  A    between atoms: C_5  and  C_6
REMARK    4  A    between atoms: C_11  and  O_12
REMARK    5  A    between atoms: C_13  and  O_14
REMARK    6  A    between atoms: C_15  and  O_16
REMARK    7  A    between atoms: O_16  and  C_17
REMARK    8  A    between atoms: C_23  and  O_24
REMARK                            x       y       z     vdW  Elec       q    Type
REMARK                         _______ _______ _______ _____ _____    ______ ____
ROOT
ATOM      1  C   UNL     1       1.950   7.288  19.414  0.00  0.00    +0.000 A 
ATOM      2  C   UNL     1       2.230   8.140  18.412  0.00  0.00    +0.000 A 
ATOM      3  C   UNL     1       1.570   9.421  18.393  0.00  0.00    +0.000 A 
ATOM      4  O   UNL     1       1.516  10.118  17.389  0.00  0.00    +0.000 OA
ATOM      5  C   UNL     1       1.100   9.865  19.682  0.00  0.00    +0.000 A 
ATOM      6  C   UNL     1       1.219  11.197  20.021  0.00  0.00    +0.000 A 
ATOM      7  C   UNL     1       0.700  11.622  21.227  0.00  0.00    +0.000 A 
ATOM      8  C   UNL     1      -0.004  10.742  22.066  0.00  0.00    +0.000 A 
ATOM      9  C   UNL     1       0.012   9.361  21.772  0.00  0.00    +0.000 A 
ATOM     10  C   UNL     1       0.665   8.916  20.606  0.00  0.00    +0.000 A 
ATOM     11  O   UNL     1       1.007   7.570  20.430  0.00  0.00    +0.000 OA
ENDROOT
BRANCH   1  14
ATOM     12  C   UNL     1       3.274   3.790  20.311  0.00  0.00    +0.000 A 
ATOM     13  C   UNL     1       2.417   4.917  20.247  0.00  0.00    +0.000 A 
ATOM     14  C   UNL     1       2.718   6.014  19.428  0.00  0.00    +0.000 A 
ATOM     15  C   UNL     1       3.900   5.941  18.663  0.00  0.00    +0.000 A 
ATOM     16  C   UNL     1       4.769   4.858  18.738  0.00  0.00    +0.000 A 
ATOM     17  C   UNL     1       4.453   3.774  19.548  0.00  0.00    +0.000 A 
BRANCH  12  19
ATOM     18  C   UNL     1       1.439   2.719  21.419  0.00  0.00    +0.000 C 
ATOM     19  O   UNL     1       2.841   2.811  21.176  0.00  0.00    +0.000 OA
ENDBRANCH  12  19
BRANCH  17  20
ATOM     20  O   UNL     1       5.329   2.738  19.578  0.00  0.00    +0.000 OA
ATOM     21  H   UNL     1       6.099   2.973  20.149  0.00  0.00    +0.000 HD
ENDBRANCH  17  20
ENDBRANCH   1  14
BRANCH   6  22
ATOM     22  O   UNL     1       1.945  12.099  19.283  0.00  0.00    +0.000 OA
ATOM     23  H   UNL     1       2.877  11.791  19.248  0.00  0.00    +0.000 HD
ENDBRANCH   6  22
BRANCH   7  24
ATOM     24  O   UNL     1       0.926  12.922  21.597  0.00  0.00    +0.000 OA
ATOM     25  H   UNL     1       1.409  12.857  22.445  0.00  0.00    +0.000 HD
ENDBRANCH   7  24
BRANCH   8  26
ATOM     26  O   UNL     1      -0.567  11.354  23.148  0.00  0.00    +0.000 OA
ATOM     27  C   UNL     1      -1.950  11.645  23.173  0.00  0.00    +0.000 C 
ENDBRANCH   8  26
TORSDOF 6
ENDMDL
MODEL 7
REMARK VINA RESULT:      -7.0      2.305      4.133
REMARK  Name = 
REMARK  8 active torsions:
REMARK  status: ('A' for Active; 'I' for Inactive)
REMARK    1  A    between atoms: C_1  and  O_2
REMARK    2  A    between atoms: O_2  and  C_3
REMARK    3  A    between atoms: C_5  and  C_6
REMARK    4  A    between atoms: C_11  and  O_12
REMARK    5  A    between atoms: C_13  and  O_14
REMARK    6  A    between atoms: C_15  and  O_16
REMARK    7  A    between atoms: O_16  and  C_17
REMARK    8  A    between atoms: C_23  and  O_24
REMARK                            x       y       z     vdW  Elec       q    Type
REMARK                         _______ _______ _______ _____ _____    ______ ____
ROOT
ATOM      1  C   UNL     1       1.891   8.413  18.912  0.00  0.00    +0.000 A 
ATOM      2  C   UNL     1       2.692   8.309  17.838  0.00  0.00    +0.000 A 
ATOM      3  C   UNL     1       3.600   7.191  17.761  0.00  0.00    +0.000 A 
ATOM      4  O   UNL     1       4.561   7.177  17.005  0.00  0.00    +0.000 OA
ATOM      5  C   UNL     1       3.202   6.050  18.547  0.00  0.00    +0.000 A 
ATOM      6  C   UNL     1       3.384   4.782  18.035  0.00  0.00    +0.000 A 
ATOM      7  C   UNL     1       3.068   3.696  18.826  0.00  0.00    +0.000 A 
ATOM      8  C   UNL     1       2.639   3.865  20.154  0.00  0.00    +0.000 A 
ATOM      9  C   UNL     1       2.322   5.163  20.608  0.00  0.00    +0.000 A 
ATOM     10  C   UNL     1       2.518   6.259  19.744  0.00  0.00    +0.000 A 
ATOM     11  O   UNL     1       1.923   7.501  19.994  0.00  0.00    +0.000 OA
ENDROOT
BRANCH   1  14
ATOM     12  C   UNL     1      -0.209  11.480  19.900  0.00  0.00    +0.000 A 
ATOM     13  C   UNL     1       0.833  10.519  19.902  0.00  0.00    +0.000 A 
ATOM     14  C   UNL     1       0.920   9.539  18.902  0.00  0.00    +0.000 A 
ATOM     15  C   UNL     1      -0.063   9.562  17.891  0.00  0.00    +0.000 A 
ATOM     16  C   UNL     1      -1.109  10.478  17.891  0.00  0.00    +0.000 A 
ATOM     17  C   UNL     1      -1.178  11.448  18.884  0.00  0.00    +0.000 A 
BRANCH  12  19
ATOM     18  C   UNL     1      -0.689  11.913  22.207  0.00  0.00    +0.000 C 
ATOM     19  O   UNL     1      -0.158  12.356  20.960  0.00  0.00    +0.000 OA
ENDBRANCH  12  19
BRANCH  17  20
ATOM     20  O   UNL     1      -2.213  12.323  18.833  0.00  0.00    +0.000 OA
ATOM     21  H   UNL     1      -2.964  11.919  18.337  0.00  0.00    +0.000 HD
ENDBRANCH  17  20
ENDBRANCH   1  14
BRANCH   6  22
ATOM     22  O   UNL     1       3.739   4.541  16.731  0.00  0.00    +0.000 OA
ATOM     23  H   UNL     1       3.017   4.031  16.303  0.00  0.00    +0.000 HD
ENDBRANCH   6  22
BRANCH   7  24
ATOM     24  O   UNL     1       3.148   2.450  18.263  0.00  0.00    +0.000 OA
ATOM     25  H   UNL     1       3.426   2.614  17.339  0.00  0.00    +0.000 HD
ENDBRANCH   7  24
BRANCH   8  26
ATOM     26  O   UNL     1       2.502   2.691  20.835  0.00  0.00    +0.000 OA
ATOM     27  C   UNL     1       1.475   2.528  21.793  0.00  0.00    +0.000 C 
ENDBRANCH   8  26
TORSDOF 6
ENDMDL
MODEL 8
REMARK VINA RESULT:      -6.9      2.325      4.026
REMARK  Name = 
REMARK  8 active torsions:
REMARK  status: ('A' for Active; 'I' for Inactive)
REMARK    1  A    between atoms: C_1  and  O_2
REMARK    2  A    between atoms: O_2  and  C_3
REMARK    3  A    between atoms: C_5  and  C_6
REMARK    4  A    between atoms: C_11  and  O_12
REMARK    5  A    between atoms: C_13  and  O_14
REMARK    6  A    between atoms: C_15  and  O_16
REMARK    7  A    between atoms: O_16  and  C_17
REMARK    8  A    between atoms: C_23  and  O_24
REMARK                            x       y       z     vdW  Elec       q    Type
REMARK                         _______ _______ _______ _____ _____    ______ ____
ROOT
ATOM      1  C   UNL     1       2.047   8.458  18.567  0.00  0.00    +0.000 A 
ATOM      2  C   UNL     1       2.898   8.272  17.544  0.00  0.00    +0.000 A 
ATOM      3  C   UNL     1       3.800   7.149  17.594  0.00  0.00    +0.000 A 
ATOM      4  O   UNL     1       4.796   7.075  16.889  0.00  0.00    +0.000 OA
ATOM      5  C   UNL     1       3.358   6.071  18.443  0.00  0.00    +0.000 A 
ATOM      6  C   UNL     1       3.556   4.768  18.036  0.00  0.00    +0.000 A 
ATOM      7  C   UNL     1       3.195   3.745  18.889  0.00  0.00    +0.000 A 
ATOM      8  C   UNL     1       2.704   4.014  20.178  0.00  0.00    +0.000 A 
ATOM      9  C   UNL     1       2.374   5.343  20.519  0.00  0.00    +0.000 A 
ATOM     10  C   UNL     1       2.619   6.371  19.586  0.00  0.00    +0.000 A 
ATOM     11  O   UNL     1       2.021   7.630  19.715  0.00  0.00    +0.000 OA
ENDROOT
BRANCH   1  14
ATOM     12  C   UNL     1       0.283  11.862  18.879  0.00  0.00    +0.000 A 
ATOM     13  C   UNL     1       1.301  10.878  18.924  0.00  0.00    +0.000 A 
ATOM     14  C   UNL     1       1.085   9.584  18.427  0.00  0.00    +0.000 A 
ATOM     15  C   UNL     1      -0.182   9.312  17.871  0.00  0.00    +0.000 A 
ATOM     16  C   UNL     1      -1.203  10.255  17.848  0.00  0.00    +0.000 A 
ATOM     17  C   UNL     1      -0.971  11.536  18.336  0.00  0.00    +0.000 A 
BRANCH  12  19
ATOM     18  C   UNL     1       1.575  13.870  18.686  0.00  0.00    +0.000 C 
ATOM     19  O   UNL     1       0.654  13.070  19.423  0.00  0.00    +0.000 OA
ENDBRANCH  12  19
BRANCH  17  20
ATOM     20  O   UNL     1      -1.997  12.422  18.281  0.00  0.00    +0.000 OA
ATOM     21  H   UNL     1      -1.903  13.081  19.009  0.00  0.00    +0.000 HD
ENDBRANCH  17  20
ENDBRANCH   1  14
BRANCH   6  22
ATOM     22  O   UNL     1       3.971   4.429  16.771  0.00  0.00    +0.000 OA
ATOM     23  H   UNL     1       3.178   4.350  16.197  0.00  0.00    +0.000 HD
ENDBRANCH   6  22
BRANCH   7  24
ATOM     24  O   UNL     1       3.294   2.460  18.424  0.00  0.00    +0.000 OA
ATOM     25  H   UNL     1       4.098   2.103  18.853  0.00  0.00    +0.000 HD
ENDBRANCH   7  24
BRANCH   8  26
ATOM     26  O   UNL     1       2.527   2.894  20.938  0.00  0.00    +0.000 OA
ATOM     27  C   UNL     1       1.332   2.699  21.667  0.00  0.00    +0.000 C 
ENDBRANCH   8  26
TORSDOF 6
ENDMDL
MODEL 9
REMARK VINA RESULT:      -6.8      2.378      7.873
REMARK  Name = 
REMARK  8 active torsions:
REMARK  status: ('A' for Active; 'I' for Inactive)
REMARK    1  A    between atoms: C_1  and  O_2
REMARK    2  A    between atoms: O_2  and  C_3
REMARK    3  A    between atoms: C_5  and  C_6
REMARK    4  A    between atoms: C_11  and  O_12
REMARK    5  A    between atoms: C_13  and  O_14
REMARK    6  A    between atoms: C_15  and  O_16
REMARK    7  A    between atoms: O_16  and  C_17
REMARK    8  A    between atoms: C_23  and  O_24
REMARK                            x       y       z     vdW  Elec       q    Type
REMARK                         _______ _______ _______ _____ _____    ______ ____
ROOT
ATOM      1  C   UNL     1       2.000   7.517  19.956  0.00  0.00    +0.000 A 
ATOM      2  C   UNL     1       1.889   7.785  21.268  0.00  0.00    +0.000 A 
ATOM      3  C   UNL     1       1.426   9.090  21.668  0.00  0.00    +0.000 A 
ATOM      4  O   UNL     1       1.587   9.526  22.799  0.00  0.00    +0.000 OA
ATOM      5  C   UNL     1       0.647   9.775  20.667  0.00  0.00    +0.000 A 
ATOM      6  C   UNL     1      -0.456  10.507  21.056  0.00  0.00    +0.000 A 
ATOM      7  C   UNL     1      -1.150  11.218  20.098  0.00  0.00    +0.000 A 
ATOM      8  C   UNL     1      -0.708  11.262  18.764  0.00  0.00    +0.000 A 
ATOM      9  C   UNL     1       0.330  10.396  18.361  0.00  0.00    +0.000 A 
ATOM     10  C   UNL     1       0.945   9.569  19.321  0.00  0.00    +0.000 A 
ATOM     11  O   UNL     1       1.725   8.469  18.945  0.00  0.00    +0.000 OA
ENDROOT
BRANCH   1  14
ATOM     12  C   UNL     1       2.922   3.787  20.119  0.00  0.00    +0.000 A 
ATOM     13  C   UNL     1       2.388   5.047  20.487  0.00  0.00    +0.000 A 
ATOM     14  C   UNL     1       2.405   6.132  19.598  0.00  0.00    +0.000 A 
ATOM     15  C   UNL     1       2.963   5.909  18.322  0.00  0.00    +0.000 A 
ATOM     16  C   UNL     1       3.519   4.689  17.955  0.00  0.00    +0.000 A 
ATOM     17  C   UNL     1       3.487   3.621  18.843  0.00  0.00    +0.000 A 
BRANCH  12  19
ATOM     18  C   UNL     1       1.557   2.574  21.670  0.00  0.00    +0.000 C 
ATOM     19  O   UNL     1       2.843   2.838  21.112  0.00  0.00    +0.000 OA
ENDBRANCH  12  19
BRANCH  17  20
ATOM     20  O   UNL     1       4.035   2.449  18.434  0.00  0.00    +0.000 OA
ATOM     21  H   UNL     1       3.893   1.758  19.124  0.00  0.00    +0.000 HD
ENDBRANCH  17  20
ENDBRANCH   1  14
BRANCH   6  22
ATOM     22  O   UNL     1      -0.980  10.462  22.324  0.00  0.00    +0.000 OA
ATOM     23  H   UNL     1      -1.273  11.366  22.570  0.00  0.00    +0.000 HD
ENDBRANCH   6  22
BRANCH   7  24
ATOM     24  O   UNL     1      -2.306  11.847  20.481  0.00  0.00    +0.000 OA
ATOM     25  H   UNL     1      -2.196  12.771  20.179  0.00  0.00    +0.000 HD
ENDBRANCH   7  24
BRANCH   8  26
ATOM     26  O   UNL     1      -1.428  12.118  17.981  0.00  0.00    +0.000 OA
ATOM     27  C   UNL     1      -2.350  11.623  17.030  0.00  0.00    +0.000 C 
ENDBRANCH   8  26
TORSDOF 6
ENDMDL
