MODEL 1
REMARK VINA RESULT:      -3.7      0.000      0.000
REMARK  Name = 
REMARK  1 active torsions:
REMARK  status: ('A' for Active; 'I' for Inactive)
REMARK    1  A    between atoms: C_2  and  C_3
REMARK                            x       y       z     vdW  Elec       q    Type
REMARK                         _______ _______ _______ _____ _____    ______ ____
ROOT
ATOM      1  C   UNL     1       6.655   4.575  16.549  0.00  0.00    +0.000 A 
ATOM      2  C   UNL     1       7.484   4.672  17.646  0.00  0.00    +0.000 A 
ATOM      3  N   UNL     1       6.853   4.618  18.876  0.00  0.00    +0.000 NA
ATOM      4  C   UNL     1       5.558   4.480  18.692  0.00  0.00    +0.000 A 
ATOM      5  S   UNL     1       5.031   4.417  17.060  0.00  0.00    +0.000 S 
ENDROOT
BRANCH   1   7
ATOM      6  O   UNL     1       7.733   5.424  14.628  0.00  0.00    +0.000 OA
ATOM      7  C   UNL     1       6.999   4.591  15.155  0.00  0.00    +0.000 C 
ENDBRANCH   1   7
TORSDOF 1
ENDMDL
MODEL 2
REMARK VINA RESULT:      -3.7      5.916      6.696
REMARK  Name = 
REMARK  1 active torsions:
REMARK  status: ('A' for Active; 'I' for Inactive)
REMARK    1  A    between atoms: C_2  and  C_3
REMARK                            x       y       z     vdW  Elec       q    Type
REMARK                         _______ _______ _______ _____ _____    ______ ____
ROOT
ATOM      1  C   UNL     1       1.545   3.305  20.067  0.00  0.00    +0.000 A 
ATOM      2  C   UNL     1       1.048   2.744  18.911  0.00  0.00    +0.000 A 
ATOM      3  N   UNL     1       1.254   3.477  17.756  0.00  0.00    +0.000 NA
ATOM      4  C   UNL     1       1.904   4.580  18.056  0.00  0.00    +0.000 A 
ATOM      5  S   UNL     1       2.292   4.802  19.712  0.00  0.00    +0.000 S 
ENDROOT
BRANCH   1   7
ATOM      6  O   UNL     1       2.442   2.817  22.196  0.00  0.00    +0.000 OA
ATOM      7  C   UNL     1       1.498   2.795  21.409  0.00  0.00    +0.000 C 
ENDBRANCH   1   7
TORSDOF 1
ENDMDL
MODEL 3
REMARK VINA RESULT:      -3.7      5.510      6.525
REMARK  Name = 
REMARK  1 active torsions:
REMARK  status: ('A' for Active; 'I' for Inactive)
REMARK    1  A    between atoms: C_2  and  C_3
REMARK                            x       y       z     vdW  Elec       q    Type
REMARK                         _______ _______ _______ _____ _____    ______ ____
ROOT
ATOM      1  C   UNL     1       2.030   2.551  19.959  0.00  0.00    +0.000 A 
ATOM      2  C   UNL     1       1.321   2.470  18.780  0.00  0.00    +0.000 A 
ATOM      3  N   UNL     1       2.083   2.338  17.634  0.00  0.00    +0.000 NA
ATOM      4  C   UNL     1       3.356   2.321  17.961  0.00  0.00    +0.000 A 
ATOM      5  S   UNL     1       3.707   2.467  19.634  0.00  0.00    +0.000 S 
ENDROOT
BRANCH   1   7
ATOM      6  O   UNL     1       2.177   3.161  22.235  0.00  0.00    +0.000 OA
ATOM      7  C   UNL     1       1.537   2.684  21.301  0.00  0.00    +0.000 C 
ENDBRANCH   1   7
TORSDOF 1
ENDMDL
MODEL 4
REMARK VINA RESULT:      -3.5      2.476      3.234
REMARK  Name = 
REMARK  1 active torsions:
REMARK  status: ('A' for Active; 'I' for Inactive)
REMARK    1  A    between atoms: C_2  and  C_3
REMARK                            x       y       z     vdW  Elec       q    Type
REMARK                         _______ _______ _______ _____ _____    ______ ____
ROOT
ATOM      1  C   UNL     1       6.054   4.567  17.897  0.00  0.00    +0.000 A 
ATOM      2  C   UNL     1       7.405   4.667  17.648  0.00  0.00    +0.000 A 
ATOM      3  N   UNL     1       7.774   4.580  16.317  0.00  0.00    +0.000 NA
ATOM      4  C   UNL     1       6.697   4.415  15.581  0.00  0.00    +0.000 A 
ATOM      5  S   UNL     1       5.206   4.349  16.428  0.00  0.00    +0.000 S 
ENDROOT
BRANCH   1   7
ATOM      6  O   UNL     1       4.550   5.493  19.464  0.00  0.00    +0.000 OA
ATOM      7  C   UNL     1       5.362   4.624  19.155  0.00  0.00    +0.000 C 
ENDBRANCH   1   7
TORSDOF 1
ENDMDL
MODEL 5
REMARK VINA RESULT:      -3.5      5.675      6.345
REMARK  Name = 
REMARK  1 active torsions:
REMARK  status: ('A' for Active; 'I' for Inactive)
REMARK    1  A    between atoms: C_2  and  C_3
REMARK                            x       y       z     vdW  Elec       q    Type
REMARK                         _______ _______ _______ _____ _____    ______ ____
ROOT
ATOM      1  C   UNL     1       2.129   2.463  20.008  0.00  0.00    +0.000 A 
ATOM      2  C   UNL     1       3.416   2.219  19.579  0.00  0.00    +0.000 A 
ATOM      3  N   UNL     1       3.579   2.117  18.210  0.00  0.00    +0.000 NA
ATOM      4  C   UNL     1       2.414   2.285  17.623  0.00  0.00    +0.000 A 
ATOM      5  S   UNL     1       1.078   2.564  18.664  0.00  0.00    +0.000 S 
ENDROOT
BRANCH   1   7
ATOM      6  O   UNL     1       2.194   3.302  22.215  0.00  0.00    +0.000 OA
ATOM      7  C   UNL     1       1.642   2.626  21.350  0.00  0.00    +0.000 C 
ENDBRANCH   1   7
TORSDOF 1
ENDMDL
MODEL 6
REMARK VINA RESULT:      -3.5      5.430      5.980
REMARK  Name = 
REMARK  1 active torsions:
REMARK  status: ('A' for Active; 'I' for Inactive)
REMARK    1  A    between atoms: C_2  and  C_3
REMARK                            x       y       z     vdW  Elec       q    Type
REMARK                         _______ _______ _______ _____ _____    ______ ____
ROOT
ATOM      1  C   UNL     1       3.181   2.531  20.216  0.00  0.00    +0.000 A 
ATOM      2  C   UNL     1       2.442   2.951  21.301  0.00  0.00    +0.000 A 
ATOM      3  N   UNL     1       1.112   3.229  21.044  0.00  0.00    +0.000 NA
ATOM      4  C   UNL     1       0.865   3.017  19.770  0.00  0.00    +0.000 A 
ATOM      5  S   UNL     1       2.192   2.486  18.822  0.00  0.00    +0.000 S 
ENDROOT
BRANCH   1   7
ATOM      6  O   UNL     1       5.197   1.666  21.089  0.00  0.00    +0.000 OA
ATOM      7  C   UNL     1       4.569   2.164  20.158  0.00  0.00    +0.000 C 
ENDBRANCH   1   7
TORSDOF 1
ENDMDL
MODEL 7
REMARK VINA RESULT:      -3.5      4.872      5.909
REMARK  Name = 
REMARK  1 active torsions:
REMARK  status: ('A' for Active; 'I' for Inactive)
REMARK    1  A    between atoms: C_2  and  C_3
REMARK                            x       y       z     vdW  Elec       q    Type
REMARK                         _______ _______ _______ _____ _____    ______ ____
ROOT
ATOM      1  C   UNL     1       2.842   3.411  20.449  0.00  0.00    +0.000 A 
ATOM      2  C   UNL     1       3.907   2.572  20.198  0.00  0.00    +0.000 A 
ATOM      3  N   UNL     1       4.951   3.132  19.485  0.00  0.00    +0.000 NA
ATOM      4  C   UNL     1       4.662   4.385  19.207  0.00  0.00    +0.000 A 
ATOM      5  S   UNL     1       3.143   4.951  19.769  0.00  0.00    +0.000 S 
ENDROOT
BRANCH   1   7
ATOM      6  O   UNL     1       1.556   2.468  22.190  0.00  0.00    +0.000 OA
ATOM      7  C   UNL     1       1.625   3.134  21.160  0.00  0.00    +0.000 C 
ENDBRANCH   1   7
TORSDOF 1
ENDMDL
MODEL 8
REMARK VINA RESULT:      -3.5      2.592      3.296
REMARK  Name = 
REMARK  1 active torsions:
REMARK  status: ('A' for Active; 'I' for Inactive)
REMARK    1  A    between atoms: C_2  and  C_3
REMARK                            x       y       z     vdW  Elec       q    Type
REMARK                         _______ _______ _______ _____ _____    ______ ____
ROOT
ATOM      1  C   UNL     1       6.189   5.022  17.537  0.00  0.00    +0.000 A 
ATOM      2  C   UNL     1       7.159   5.902  17.109  0.00  0.00    +0.000 A 
ATOM      3  N   UNL     1       7.449   5.857  15.758  0.00  0.00    +0.000 NA
ATOM      4  C   UNL     1       6.695   4.945  15.184  0.00  0.00    +0.000 A 
ATOM      5  S   UNL     1       5.618   4.098  16.216  0.00  0.00    +0.000 S 
ENDROOT
BRANCH   1   7
ATOM      6  O   UNL     1       5.458   3.735  19.378  0.00  0.00    +0.000 OA
ATOM      7  C   UNL     1       5.665   4.831  18.861  0.00  0.00    +0.000 C 
ENDBRANCH   1   7
TORSDOF 1
ENDMDL
MODEL 9
REMARK VINA RESULT:      -3.4      5.265      5.845
REMARK  Name = 
REMARK  1 active torsions:
REMARK  status: ('A' for Active; 'I' for Inactive)
REMARK    1  A    between atoms: C_2  and  C_3
REMARK                            x       y       z     vdW  Elec       q    Type
REMARK                         _______ _______ _______ _____ _____    ______ ____
ROOT
ATOM      1  C   UNL     1       3.071   2.730  19.750  0.00  0.00    +0.000 A 
ATOM      2  C   UNL     1       2.157   2.221  18.853  0.00  0.00    +0.000 A 
ATOM      3  N   UNL     1       0.841   2.584  19.073  0.00  0.00    +0.000 NA
ATOM      4  C   UNL     1       0.779   3.362  20.132  0.00  0.00    +0.000 A 
ATOM      5  S   UNL     1       2.269   3.691  20.915  0.00  0.00    +0.000 S 
ENDROOT
BRANCH   1   7
ATOM      6  O   UNL     1       5.078   1.781  20.554  0.00  0.00    +0.000 OA
ATOM      7  C   UNL     1       4.495   2.546  19.789  0.00  0.00    +0.000 C 
ENDBRANCH   1   7
TORSDOF 1
ENDMDL
