MODEL 1
REMARK VINA RESULT:      -8.2      0.000      0.000
REMARK  Name = 
REMARK  9 active torsions:
REMARK  status: ('A' for Active; 'I' for Inactive)
REMARK    1  A    between atoms: C_1  and  O_2
REMARK    2  A    between atoms: O_2  and  C_3
REMARK    3  A    between atoms: C_8  and  C_9
REMARK    4  A    between atoms: C_13  and  C_14
REMARK    5  A    between atoms: C_17  and  O_18
REMARK    6  A    between atoms: O_18  and  C_19
REMARK    7  A    between atoms: C_19  and  C_20
REMARK    8  A    between atoms: N_22  and  N_23
REMARK    9  A    between atoms: C_25  and  O_26
REMARK                            x       y       z     vdW  Elec       q    Type
REMARK                         _______ _______ _______ _____ _____    ______ ____
ROOT
ATOM      1  C   UNL     1       2.470   5.438  18.852  0.00  0.00    +0.000 A 
ATOM      2  C   UNL     1       2.417   6.313  17.754  0.00  0.00    +0.000 A 
ATOM      3  C   UNL     1       2.185   7.680  17.917  0.00  0.00    +0.000 A 
ATOM      4  C   UNL     1       1.894   8.195  19.173  0.00  0.00    +0.000 A 
ATOM      5  C   UNL     1       1.897   7.348  20.280  0.00  0.00    +0.000 A 
ATOM      6  C   UNL     1       2.202   5.987  20.122  0.00  0.00    +0.000 A 
ENDROOT
BRANCH   1  11
ATOM      7  C   UNL     1       3.858   3.422  17.841  0.00  0.00    +0.000 A 
ATOM      8  C   UNL     1       3.654   2.061  17.954  0.00  0.00    +0.000 A 
ATOM      9  N   UNL     1       2.554   1.896  18.736  0.00  0.00    +0.000 N 
ATOM     10  N   UNL     1       2.004   3.047  19.145  0.00  0.00    +0.000 NA
ATOM     11  C   UNL     1       2.792   4.010  18.632  0.00  0.00    +0.000 A 
ATOM     12  H   UNL     1       2.119   1.034  19.030  0.00  0.00    +0.000 HD
BRANCH   7  18
ATOM     13  C   UNL     1       6.150   4.495  17.613  0.00  0.00    +0.000 A 
ATOM     14  C   UNL     1       7.197   4.882  16.759  0.00  0.00    +0.000 A 
ATOM     15  C   UNL     1       7.066   4.790  15.373  0.00  0.00    +0.000 A 
ATOM     16  C   UNL     1       5.866   4.372  14.818  0.00  0.00    +0.000 A 
ATOM     17  C   UNL     1       4.802   4.031  15.651  0.00  0.00    +0.000 A 
ATOM     18  C   UNL     1       4.939   4.027  17.051  0.00  0.00    +0.000 A 
BRANCH  13  20
ATOM     19  C   UNL     1       7.154   5.505  19.540  0.00  0.00    +0.000 C 
ATOM     20  O   UNL     1       6.243   4.564  18.983  0.00  0.00    +0.000 OA
ENDBRANCH  13  20
ENDBRANCH   7  18
ENDBRANCH   1  11
BRANCH   6  21
ATOM     21  O   UNL     1       2.278   5.224  21.260  0.00  0.00    +0.000 OA
ATOM     22  H   UNL     1       1.695   5.592  21.935  0.00  0.00    +0.000 HD
ENDBRANCH   6  21
BRANCH   4  23
ATOM     23  O   UNL     1       1.686   9.544  19.223  0.00  0.00    +0.000 OA
BRANCH  23  24
ATOM     24  C   UNL     1       0.369   9.934  19.612  0.00  0.00    +0.000 C 
BRANCH  24  25
ATOM     25  C   UNL     1      -0.380  10.548  18.432  0.00  0.00    +0.000 C 
ATOM     26  O   UNL     1      -0.985   9.867  17.605  0.00  0.00    +0.000 OA
ATOM     27  N   UNL     1      -0.325  11.935  18.378  0.00  0.00    +0.000 N 
ATOM     28  H   UNL     1       0.072  12.434  19.176  0.00  0.00    +0.000 HD
BRANCH  27  29
ATOM     29  N   UNL     1      -1.066  12.634  17.405  0.00  0.00    +0.000 NA
ATOM     30  H   UNL     1      -1.798  13.157  17.904  0.00  0.00    +0.000 HD
ATOM     31  H   UNL     1      -1.584  11.946  16.850  0.00  0.00    +0.000 HD
ENDBRANCH  27  29
ENDBRANCH  24  25
ENDBRANCH  23  24
ENDBRANCH   4  23
TORSDOF 8
ENDMDL
MODEL 2
REMARK VINA RESULT:      -8.2      1.711      2.009
REMARK  Name = 
REMARK  9 active torsions:
REMARK  status: ('A' for Active; 'I' for Inactive)
REMARK    1  A    between atoms: C_1  and  O_2
REMARK    2  A    between atoms: O_2  and  C_3
REMARK    3  A    between atoms: C_8  and  C_9
REMARK    4  A    between atoms: C_13  and  C_14
REMARK    5  A    between atoms: C_17  and  O_18
REMARK    6  A    between atoms: O_18  and  C_19
REMARK    7  A    between atoms: C_19  and  C_20
REMARK    8  A    between atoms: N_22  and  N_23
REMARK    9  A    between atoms: C_25  and  O_26
REMARK                            x       y       z     vdW  Elec       q    Type
REMARK                         _______ _______ _______ _____ _____    ______ ____
ROOT
ATOM      1  C   UNL     1       2.504   5.222  18.941  0.00  0.00    +0.000 A 
ATOM      2  C   UNL     1       2.442   6.152  17.890  0.00  0.00    +0.000 A 
ATOM      3  C   UNL     1       2.207   7.508  18.124  0.00  0.00    +0.000 A 
ATOM      4  C   UNL     1       1.924   7.956  19.407  0.00  0.00    +0.000 A 
ATOM      5  C   UNL     1       1.936   7.054  20.469  0.00  0.00    +0.000 A 
ATOM      6  C   UNL     1       2.244   5.704  20.240  0.00  0.00    +0.000 A 
ENDROOT
BRANCH   1  11
ATOM      7  C   UNL     1       3.883   3.264  17.809  0.00  0.00    +0.000 A 
ATOM      8  C   UNL     1       3.687   1.898  17.859  0.00  0.00    +0.000 A 
ATOM      9  N   UNL     1       2.602   1.690  18.651  0.00  0.00    +0.000 N 
ATOM     10  N   UNL     1       2.054   2.817  19.125  0.00  0.00    +0.000 NA
ATOM     11  C   UNL     1       2.829   3.808  18.646  0.00  0.00    +0.000 A 
ATOM     12  H   UNL     1       2.175   0.812  18.910  0.00  0.00    +0.000 HD
BRANCH   7  18
ATOM     13  C   UNL     1       6.119   4.457  17.610  0.00  0.00    +0.000 A 
ATOM     14  C   UNL     1       7.162   4.884  16.772  0.00  0.00    +0.000 A 
ATOM     15  C   UNL     1       7.068   4.760  15.385  0.00  0.00    +0.000 A 
ATOM     16  C   UNL     1       5.906   4.267  14.812  0.00  0.00    +0.000 A 
ATOM     17  C   UNL     1       4.842   3.884  15.628  0.00  0.00    +0.000 A 
ATOM     18  C   UNL     1       4.948   3.913  17.031  0.00  0.00    +0.000 A 
BRANCH  13  20
ATOM     19  C   UNL     1       7.091   5.491  19.540  0.00  0.00    +0.000 C 
ATOM     20  O   UNL     1       6.177   4.555  18.980  0.00  0.00    +0.000 OA
ENDBRANCH  13  20
ENDBRANCH   7  18
ENDBRANCH   1  11
BRANCH   6  21
ATOM     21  O   UNL     1       2.330   4.883  21.336  0.00  0.00    +0.000 OA
ATOM     22  H   UNL     1       3.161   4.394  21.309  0.00  0.00    +0.000 HD
ENDBRANCH   6  21
BRANCH   4  23
ATOM     23  O   UNL     1       1.712   9.301  19.528  0.00  0.00    +0.000 OA
BRANCH  23  24
ATOM     24  C   UNL     1       0.409   9.665  19.985  0.00  0.00    +0.000 C 
BRANCH  24  25
ATOM     25  C   UNL     1       0.475  10.226  21.403  0.00  0.00    +0.000 C 
ATOM     26  O   UNL     1       0.877  11.363  21.647  0.00  0.00    +0.000 OA
ATOM     27  N   UNL     1       0.038   9.349  22.387  0.00  0.00    +0.000 N 
ATOM     28  H   UNL     1      -0.414   8.481  22.094  0.00  0.00    +0.000 HD
BRANCH  27  29
ATOM     29  N   UNL     1      -0.058   9.780  23.725  0.00  0.00    +0.000 NA
ATOM     30  H   UNL     1       0.440   9.086  24.300  0.00  0.00    +0.000 HD
ATOM     31  H   UNL     1      -1.036   9.689  24.015  0.00  0.00    +0.000 HD
ENDBRANCH  27  29
ENDBRANCH  24  25
ENDBRANCH  23  24
ENDBRANCH   4  23
TORSDOF 8
ENDMDL
MODEL 3
REMARK VINA RESULT:      -8.1      1.274      1.388
REMARK  Name = 
REMARK  9 active torsions:
REMARK  status: ('A' for Active; 'I' for Inactive)
REMARK    1  A    between atoms: C_1  and  O_2
REMARK    2  A    between atoms: O_2  and  C_3
REMARK    3  A    between atoms: C_8  and  C_9
REMARK    4  A    between atoms: C_13  and  C_14
REMARK    5  A    between atoms: C_17  and  O_18
REMARK    6  A    between atoms: O_18  and  C_19
REMARK    7  A    between atoms: C_19  and  C_20
REMARK    8  A    between atoms: N_22  and  N_23
REMARK    9  A    between atoms: C_25  and  O_26
REMARK                            x       y       z     vdW  Elec       q    Type
REMARK                         _______ _______ _______ _____ _____    ______ ____
ROOT
ATOM      1  C   UNL     1       2.494   5.285  18.933  0.00  0.00    +0.000 A 
ATOM      2  C   UNL     1       2.440   6.207  17.874  0.00  0.00    +0.000 A 
ATOM      3  C   UNL     1       2.190   7.563  18.095  0.00  0.00    +0.000 A 
ATOM      4  C   UNL     1       1.884   8.017  19.371  0.00  0.00    +0.000 A 
ATOM      5  C   UNL     1       1.888   7.123  20.439  0.00  0.00    +0.000 A 
ATOM      6  C   UNL     1       2.211   5.774  20.223  0.00  0.00    +0.000 A 
ENDROOT
BRANCH   1  11
ATOM      7  C   UNL     1       3.890   3.332  17.813  0.00  0.00    +0.000 A 
ATOM      8  C   UNL     1       3.713   1.965  17.880  0.00  0.00    +0.000 A 
ATOM      9  N   UNL     1       2.636   1.752  18.684  0.00  0.00    +0.000 N 
ATOM     10  N   UNL     1       2.078   2.877  19.148  0.00  0.00    +0.000 NA
ATOM     11  C   UNL     1       2.836   3.872  18.652  0.00  0.00    +0.000 A 
ATOM     12  H   UNL     1       2.224   0.872  18.957  0.00  0.00    +0.000 HD
BRANCH   7  18
ATOM     13  C   UNL     1       6.169   4.429  17.563  0.00  0.00    +0.000 A 
ATOM     14  C   UNL     1       7.183   4.867  16.694  0.00  0.00    +0.000 A 
ATOM     15  C   UNL     1       7.003   4.851  15.310  0.00  0.00    +0.000 A 
ATOM     16  C   UNL     1       5.786   4.456  14.777  0.00  0.00    +0.000 A 
ATOM     17  C   UNL     1       4.753   4.065  15.627  0.00  0.00    +0.000 A 
ATOM     18  C   UNL     1       4.940   3.986  17.019  0.00  0.00    +0.000 A 
BRANCH  13  20
ATOM     19  C   UNL     1       7.018   5.504  19.528  0.00  0.00    +0.000 C 
ATOM     20  O   UNL     1       6.312   4.423  18.930  0.00  0.00    +0.000 OA
ENDBRANCH  13  20
ENDBRANCH   7  18
ENDBRANCH   1  11
BRANCH   6  21
ATOM     21  O   UNL     1       2.287   4.961  21.327  0.00  0.00    +0.000 OA
ATOM     22  H   UNL     1       1.661   5.266  21.996  0.00  0.00    +0.000 HD
ENDBRANCH   6  21
BRANCH   4  23
ATOM     23  O   UNL     1       1.659   9.361  19.479  0.00  0.00    +0.000 OA
BRANCH  23  24
ATOM     24  C   UNL     1       1.676  10.074  18.242  0.00  0.00    +0.000 C 
BRANCH  24  25
ATOM     25  C   UNL     1       1.829  11.573  18.488  0.00  0.00    +0.000 C 
ATOM     26  O   UNL     1       1.337  12.138  19.464  0.00  0.00    +0.000 OA
ATOM     27  N   UNL     1       2.575  12.237  17.523  0.00  0.00    +0.000 N 
ATOM     28  H   UNL     1       3.069  11.679  16.824  0.00  0.00    +0.000 HD
BRANCH  27  29
ATOM     29  N   UNL     1       2.887  13.601  17.687  0.00  0.00    +0.000 NA
ATOM     30  H   UNL     1       2.735  13.826  18.681  0.00  0.00    +0.000 HD
ATOM     31  H   UNL     1       2.174  14.148  17.196  0.00  0.00    +0.000 HD
ENDBRANCH  27  29
ENDBRANCH  24  25
ENDBRANCH  23  24
ENDBRANCH   4  23
TORSDOF 8
ENDMDL
MODEL 4
REMARK VINA RESULT:      -7.9      1.424      2.253
REMARK  Name = 
REMARK  9 active torsions:
REMARK  status: ('A' for Active; 'I' for Inactive)
REMARK    1  A    between atoms: C_1  and  O_2
REMARK    2  A    between atoms: O_2  and  C_3
REMARK    3  A    between atoms: C_8  and  C_9
REMARK    4  A    between atoms: C_13  and  C_14
REMARK    5  A    between atoms: C_17  and  O_18
REMARK    6  A    between atoms: O_18  and  C_19
REMARK    7  A    between atoms: C_19  and  C_20
REMARK    8  A    between atoms: N_22  and  N_23
REMARK    9  A    between atoms: C_25  and  O_26
REMARK                            x       y       z     vdW  Elec       q    Type
REMARK                         _______ _______ _______ _____ _____    ______ ____
ROOT
ATOM      1  C   UNL     1       2.481   6.254  18.716  0.00  0.00    +0.000 A 
ATOM      2  C   UNL     1       2.385   7.280  17.761  0.00  0.00    +0.000 A 
ATOM      3  C   UNL     1       2.007   8.577  18.115  0.00  0.00    +0.000 A 
ATOM      4  C   UNL     1       1.612   8.859  19.415  0.00  0.00    +0.000 A 
ATOM      5  C   UNL     1       1.654   7.854  20.380  0.00  0.00    +0.000 A 
ATOM      6  C   UNL     1       2.104   6.570  20.036  0.00  0.00    +0.000 A 
ENDROOT
BRANCH   1  11
ATOM      7  C   UNL     1       4.307   4.475  17.998  0.00  0.00    +0.000 A 
ATOM      8  C   UNL     1       4.159   3.154  17.625  0.00  0.00    +0.000 A 
ATOM      9  N   UNL     1       2.830   2.875  17.702  0.00  0.00    +0.000 N 
ATOM     10  N   UNL     1       2.081   3.916  18.088  0.00  0.00    +0.000 NA
ATOM     11  C   UNL     1       2.957   4.915  18.302  0.00  0.00    +0.000 A 
ATOM     12  H   UNL     1       2.361   2.003  17.503  0.00  0.00    +0.000 HD
BRANCH   7  18
ATOM     13  C   UNL     1       6.028   6.058  17.004  0.00  0.00    +0.000 A 
ATOM     14  C   UNL     1       7.184   6.830  17.208  0.00  0.00    +0.000 A 
ATOM     15  C   UNL     1       7.895   6.758  18.407  0.00  0.00    +0.000 A 
ATOM     16  C   UNL     1       7.498   5.869  19.394  0.00  0.00    +0.000 A 
ATOM     17  C   UNL     1       6.381   5.061  19.187  0.00  0.00    +0.000 A 
ATOM     18  C   UNL     1       5.596   5.181  18.026  0.00  0.00    +0.000 A 
BRANCH  13  20
ATOM     19  C   UNL     1       5.710   5.275  14.762  0.00  0.00    +0.000 C 
ATOM     20  O   UNL     1       5.297   6.107  15.841  0.00  0.00    +0.000 OA
ENDBRANCH  13  20
ENDBRANCH   7  18
ENDBRANCH   1  11
BRANCH   6  21
ATOM     21  O   UNL     1       2.209   5.649  21.049  0.00  0.00    +0.000 OA
ATOM     22  H   UNL     1       1.560   4.947  20.915  0.00  0.00    +0.000 HD
ENDBRANCH   6  21
BRANCH   4  23
ATOM     23  O   UNL     1       1.264  10.158  19.656  0.00  0.00    +0.000 OA
BRANCH  23  24
ATOM     24  C   UNL     1      -0.028  10.335  20.239  0.00  0.00    +0.000 C 
BRANCH  24  25
ATOM     25  C   UNL     1      -0.769  11.486  19.562  0.00  0.00    +0.000 C 
ATOM     26  O   UNL     1      -1.461  12.287  20.189  0.00  0.00    +0.000 OA
ATOM     27  N   UNL     1      -0.587  11.553  18.187  0.00  0.00    +0.000 N 
ATOM     28  H   UNL     1       0.114  10.944  17.761  0.00  0.00    +0.000 HD
BRANCH  27  29
ATOM     29  N   UNL     1      -1.124  12.632  17.456  0.00  0.00    +0.000 NA
ATOM     30  H   UNL     1      -0.613  13.477  17.751  0.00  0.00    +0.000 HD
ATOM     31  H   UNL     1      -2.080  12.790  17.786  0.00  0.00    +0.000 HD
ENDBRANCH  27  29
ENDBRANCH  24  25
ENDBRANCH  23  24
ENDBRANCH   4  23
TORSDOF 8
ENDMDL
MODEL 5
REMARK VINA RESULT:      -7.9      1.785      2.561
REMARK  Name = 
REMARK  9 active torsions:
REMARK  status: ('A' for Active; 'I' for Inactive)
REMARK    1  A    between atoms: C_1  and  O_2
REMARK    2  A    between atoms: O_2  and  C_3
REMARK    3  A    between atoms: C_8  and  C_9
REMARK    4  A    between atoms: C_13  and  C_14
REMARK    5  A    between atoms: C_17  and  O_18
REMARK    6  A    between atoms: O_18  and  C_19
REMARK    7  A    between atoms: C_19  and  C_20
REMARK    8  A    between atoms: N_22  and  N_23
REMARK    9  A    between atoms: C_25  and  O_26
REMARK                            x       y       z     vdW  Elec       q    Type
REMARK                         _______ _______ _______ _____ _____    ______ ____
ROOT
ATOM      1  C   UNL     1       2.459   6.235  18.745  0.00  0.00    +0.000 A 
ATOM      2  C   UNL     1       2.395   7.310  17.842  0.00  0.00    +0.000 A 
ATOM      3  C   UNL     1       2.035   8.594  18.255  0.00  0.00    +0.000 A 
ATOM      4  C   UNL     1       1.628   8.818  19.563  0.00  0.00    +0.000 A 
ATOM      5  C   UNL     1       1.639   7.766  20.477  0.00  0.00    +0.000 A 
ATOM      6  C   UNL     1       2.071   6.492  20.075  0.00  0.00    +0.000 A 
ENDROOT
BRANCH   1  11
ATOM      7  C   UNL     1       4.259   4.468  17.938  0.00  0.00    +0.000 A 
ATOM      8  C   UNL     1       4.093   3.166  17.510  0.00  0.00    +0.000 A 
ATOM      9  N   UNL     1       2.762   2.899  17.585  0.00  0.00    +0.000 N 
ATOM     10  N   UNL     1       2.028   3.931  18.022  0.00  0.00    +0.000 NA
ATOM     11  C   UNL     1       2.917   4.910  18.271  0.00  0.00    +0.000 A 
ATOM     12  H   UNL     1       2.281   2.042  17.354  0.00  0.00    +0.000 HD
BRANCH   7  18
ATOM     13  C   UNL     1       6.027   6.008  16.956  0.00  0.00    +0.000 A 
ATOM     14  C   UNL     1       7.188   6.768  17.175  0.00  0.00    +0.000 A 
ATOM     15  C   UNL     1       7.866   6.713  18.394  0.00  0.00    +0.000 A 
ATOM     16  C   UNL     1       7.431   5.851  19.388  0.00  0.00    +0.000 A 
ATOM     17  C   UNL     1       6.309   5.053  19.168  0.00  0.00    +0.000 A 
ATOM     18  C   UNL     1       5.556   5.157  17.984  0.00  0.00    +0.000 A 
BRANCH  13  20
ATOM     19  C   UNL     1       5.774   5.200  14.715  0.00  0.00    +0.000 C 
ATOM     20  O   UNL     1       5.328   6.040  15.773  0.00  0.00    +0.000 OA
ENDBRANCH  13  20
ENDBRANCH   7  18
ENDBRANCH   1  11
BRANCH   6  21
ATOM     21  O   UNL     1       2.146   5.520  21.041  0.00  0.00    +0.000 OA
ATOM     22  H   UNL     1       3.062   5.420  21.328  0.00  0.00    +0.000 HD
ENDBRANCH   6  21
BRANCH   4  23
ATOM     23  O   UNL     1       1.300  10.110  19.864  0.00  0.00    +0.000 OA
BRANCH  23  24
ATOM     24  C   UNL     1       0.778  10.867  18.772  0.00  0.00    +0.000 C 
BRANCH  24  25
ATOM     25  C   UNL     1       1.463  12.228  18.685  0.00  0.00    +0.000 C 
ATOM     26  O   UNL     1       1.095  13.198  19.347  0.00  0.00    +0.000 OA
ATOM     27  N   UNL     1       2.536  12.274  17.805  0.00  0.00    +0.000 N 
ATOM     28  H   UNL     1       2.869  11.395  17.403  0.00  0.00    +0.000 HD
BRANCH  27  29
ATOM     29  N   UNL     1       3.325  13.437  17.713  0.00  0.00    +0.000 NA
ATOM     30  H   UNL     1       3.435  13.802  18.670  0.00  0.00    +0.000 HD
ATOM     31  H   UNL     1       2.773  14.154  17.234  0.00  0.00    +0.000 HD
ENDBRANCH  27  29
ENDBRANCH  24  25
ENDBRANCH  23  24
ENDBRANCH   4  23
TORSDOF 8
ENDMDL
MODEL 6
REMARK VINA RESULT:      -7.7      0.999      1.012
REMARK  Name = 
REMARK  9 active torsions:
REMARK  status: ('A' for Active; 'I' for Inactive)
REMARK    1  A    between atoms: C_1  and  O_2
REMARK    2  A    between atoms: O_2  and  C_3
REMARK    3  A    between atoms: C_8  and  C_9
REMARK    4  A    between atoms: C_13  and  C_14
REMARK    5  A    between atoms: C_17  and  O_18
REMARK    6  A    between atoms: O_18  and  C_19
REMARK    7  A    between atoms: C_19  and  C_20
REMARK    8  A    between atoms: N_22  and  N_23
REMARK    9  A    between atoms: C_25  and  O_26
REMARK                            x       y       z     vdW  Elec       q    Type
REMARK                         _______ _______ _______ _____ _____    ______ ____
ROOT
ATOM      1  C   UNL     1       2.599   6.048  19.085  0.00  0.00    +0.000 A 
ATOM      2  C   UNL     1       2.737   6.711  17.853  0.00  0.00    +0.000 A 
ATOM      3  C   UNL     1       2.416   8.061  17.708  0.00  0.00    +0.000 A 
ATOM      4  C   UNL     1       1.848   8.762  18.763  0.00  0.00    +0.000 A 
ATOM      5  C   UNL     1       1.657   8.125  19.988  0.00  0.00    +0.000 A 
ATOM      6  C   UNL     1       2.048   6.787  20.151  0.00  0.00    +0.000 A 
ENDROOT
BRANCH   1  11
ATOM      7  C   UNL     1       4.070   3.928  18.491  0.00  0.00    +0.000 A 
ATOM      8  C   UNL     1       3.991   2.633  18.964  0.00  0.00    +0.000 A 
ATOM      9  N   UNL     1       2.971   2.610  19.863  0.00  0.00    +0.000 N 
ATOM     10  N   UNL     1       2.360   3.792  20.017  0.00  0.00    +0.000 NA
ATOM     11  C   UNL     1       3.022   4.635  19.205  0.00  0.00    +0.000 A 
ATOM     12  H   UNL     1       2.634   1.829  20.407  0.00  0.00    +0.000 HD
BRANCH   7  18
ATOM     13  C   UNL     1       6.286   4.953  17.784  0.00  0.00    +0.000 A 
ATOM     14  C   UNL     1       7.214   5.170  16.752  0.00  0.00    +0.000 A 
ATOM     15  C   UNL     1       6.927   4.803  15.436  0.00  0.00    +0.000 A 
ATOM     16  C   UNL     1       5.685   4.273  15.122  0.00  0.00    +0.000 A 
ATOM     17  C   UNL     1       4.735   4.096  16.127  0.00  0.00    +0.000 A 
ATOM     18  C   UNL     1       5.033   4.372  17.474  0.00  0.00    +0.000 A 
BRANCH  13  20
ATOM     19  C   UNL     1       7.836   5.770  19.418  0.00  0.00    +0.000 C 
ATOM     20  O   UNL     1       6.535   5.293  19.093  0.00  0.00    +0.000 OA
ENDBRANCH  13  20
ENDBRANCH   7  18
ENDBRANCH   1  11
BRANCH   6  21
ATOM     21  O   UNL     1       1.919   6.243  21.405  0.00  0.00    +0.000 OA
ATOM     22  H   UNL     1       2.763   6.299  21.869  0.00  0.00    +0.000 HD
ENDBRANCH   6  21
BRANCH   4  23
ATOM     23  O   UNL     1       1.575  10.078  18.517  0.00  0.00    +0.000 OA
BRANCH  23  24
ATOM     24  C   UNL     1       1.014  10.791  19.620  0.00  0.00    +0.000 C 
BRANCH  24  25
ATOM     25  C   UNL     1      -0.320  11.421  19.230  0.00  0.00    +0.000 C 
ATOM     26  O   UNL     1      -1.155  11.774  20.062  0.00  0.00    +0.000 OA
ATOM     27  N   UNL     1      -0.506  11.566  17.861  0.00  0.00    +0.000 N 
ATOM     28  H   UNL     1       0.288  11.384  17.243  0.00  0.00    +0.000 HD
BRANCH  27  29
ATOM     29  N   UNL     1      -1.645  12.235  17.370  0.00  0.00    +0.000 NA
ATOM     30  H   UNL     1      -1.590  13.207  17.707  0.00  0.00    +0.000 HD
ATOM     31  H   UNL     1      -2.465  11.850  17.847  0.00  0.00    +0.000 HD
ENDBRANCH  27  29
ENDBRANCH  24  25
ENDBRANCH  23  24
ENDBRANCH   4  23
TORSDOF 8
ENDMDL
MODEL 7
REMARK VINA RESULT:      -7.6      1.922      2.763
REMARK  Name = 
REMARK  9 active torsions:
REMARK  status: ('A' for Active; 'I' for Inactive)
REMARK    1  A    between atoms: C_1  and  O_2
REMARK    2  A    between atoms: O_2  and  C_3
REMARK    3  A    between atoms: C_8  and  C_9
REMARK    4  A    between atoms: C_13  and  C_14
REMARK    5  A    between atoms: C_17  and  O_18
REMARK    6  A    between atoms: O_18  and  C_19
REMARK    7  A    between atoms: C_19  and  C_20
REMARK    8  A    between atoms: N_22  and  N_23
REMARK    9  A    between atoms: C_25  and  O_26
REMARK                            x       y       z     vdW  Elec       q    Type
REMARK                         _______ _______ _______ _____ _____    ______ ____
ROOT
ATOM      1  C   UNL     1       2.330   5.251  19.158  0.00  0.00    +0.000 A 
ATOM      2  C   UNL     1       2.490   6.440  18.426  0.00  0.00    +0.000 A 
ATOM      3  C   UNL     1       2.194   7.687  18.980  0.00  0.00    +0.000 A 
ATOM      4  C   UNL     1       1.630   7.773  20.245  0.00  0.00    +0.000 A 
ATOM      5  C   UNL     1       1.419   6.611  20.985  0.00  0.00    +0.000 A 
ATOM      6  C   UNL     1       1.785   5.364  20.453  0.00  0.00    +0.000 A 
ENDROOT
BRANCH   1  11
ATOM      7  C   UNL     1       4.007   3.567  17.988  0.00  0.00    +0.000 A 
ATOM      8  C   UNL     1       3.795   2.284  17.526  0.00  0.00    +0.000 A 
ATOM      9  N   UNL     1       2.497   1.982  17.797  0.00  0.00    +0.000 N 
ATOM     10  N   UNL     1       1.826   2.975  18.395  0.00  0.00    +0.000 NA
ATOM     11  C   UNL     1       2.728   3.961  18.551  0.00  0.00    +0.000 A 
ATOM     12  H   UNL     1       2.000   1.126  17.600  0.00  0.00    +0.000 HD
BRANCH   7  18
ATOM     13  C   UNL     1       5.870   4.630  16.625  0.00  0.00    +0.000 A 
ATOM     14  C   UNL     1       6.991   5.477  16.611  0.00  0.00    +0.000 A 
ATOM     15  C   UNL     1       7.517   5.996  17.795  0.00  0.00    +0.000 A 
ATOM     16  C   UNL     1       6.971   5.626  19.014  0.00  0.00    +0.000 A 
ATOM     17  C   UNL     1       5.889   4.747  19.049  0.00  0.00    +0.000 A 
ATOM     18  C   UNL     1       5.284   4.284  17.866  0.00  0.00    +0.000 A 
BRANCH  13  20
ATOM     19  C   UNL     1       6.139   4.039  14.319  0.00  0.00    +0.000 C 
ATOM     20  O   UNL     1       5.319   4.106  15.481  0.00  0.00    +0.000 OA
ENDBRANCH  13  20
ENDBRANCH   7  18
ENDBRANCH   1  11
BRANCH   6  21
ATOM     21  O   UNL     1       1.636   4.267  21.263  0.00  0.00    +0.000 OA
ATOM     22  H   UNL     1       2.483   3.814  21.352  0.00  0.00    +0.000 HD
ENDBRANCH   6  21
BRANCH   4  23
ATOM     23  O   UNL     1       1.382   9.039  20.694  0.00  0.00    +0.000 OA
BRANCH  23  24
ATOM     24  C   UNL     1       0.022   9.296  21.045  0.00  0.00    +0.000 C 
BRANCH  24  25
ATOM     25  C   UNL     1      -0.055  10.176  22.290  0.00  0.00    +0.000 C 
ATOM     26  O   UNL     1       0.453   9.851  23.363  0.00  0.00    +0.000 OA
ATOM     27  N   UNL     1      -0.738  11.371  22.106  0.00  0.00    +0.000 N 
ATOM     28  H   UNL     1      -1.005  11.633  21.155  0.00  0.00    +0.000 HD
BRANCH  27  29
ATOM     29  N   UNL     1      -0.787  12.323  23.142  0.00  0.00    +0.000 NA
ATOM     30  H   UNL     1      -0.090  13.047  22.917  0.00  0.00    +0.000 HD
ATOM     31  H   UNL     1      -0.423  11.882  23.992  0.00  0.00    +0.000 HD
ENDBRANCH  27  29
ENDBRANCH  24  25
ENDBRANCH  23  24
ENDBRANCH   4  23
TORSDOF 8
ENDMDL
MODEL 8
REMARK VINA RESULT:      -7.6      1.977      2.854
REMARK  Name = 
REMARK  9 active torsions:
REMARK  status: ('A' for Active; 'I' for Inactive)
REMARK    1  A    between atoms: C_1  and  O_2
REMARK    2  A    between atoms: O_2  and  C_3
REMARK    3  A    between atoms: C_8  and  C_9
REMARK    4  A    between atoms: C_13  and  C_14
REMARK    5  A    between atoms: C_17  and  O_18
REMARK    6  A    between atoms: O_18  and  C_19
REMARK    7  A    between atoms: C_19  and  C_20
REMARK    8  A    between atoms: N_22  and  N_23
REMARK    9  A    between atoms: C_25  and  O_26
REMARK                            x       y       z     vdW  Elec       q    Type
REMARK                         _______ _______ _______ _____ _____    ______ ____
ROOT
ATOM      1  C   UNL     1       2.474   6.280  18.724  0.00  0.00    +0.000 A 
ATOM      2  C   UNL     1       2.363   7.397  17.878  0.00  0.00    +0.000 A 
ATOM      3  C   UNL     1       1.991   8.651  18.365  0.00  0.00    +0.000 A 
ATOM      4  C   UNL     1       1.616   8.802  19.693  0.00  0.00    +0.000 A 
ATOM      5  C   UNL     1       1.673   7.706  20.552  0.00  0.00    +0.000 A 
ATOM      6  C   UNL     1       2.118   6.463  20.075  0.00  0.00    +0.000 A 
ENDROOT
BRANCH   1  11
ATOM      7  C   UNL     1       4.292   4.575  17.828  0.00  0.00    +0.000 A 
ATOM      8  C   UNL     1       4.137   3.303  17.316  0.00  0.00    +0.000 A 
ATOM      9  N   UNL     1       2.806   3.027  17.357  0.00  0.00    +0.000 N 
ATOM     10  N   UNL     1       2.062   4.026  17.849  0.00  0.00    +0.000 NA
ATOM     11  C   UNL     1       2.944   4.990  18.172  0.00  0.00    +0.000 A 
ATOM     12  H   UNL     1       2.333   2.184  17.065  0.00  0.00    +0.000 HD
BRANCH   7  18
ATOM     13  C   UNL     1       6.060   6.189  16.976  0.00  0.00    +0.000 A 
ATOM     14  C   UNL     1       7.215   6.937  17.259  0.00  0.00    +0.000 A 
ATOM     15  C   UNL     1       7.883   6.798  18.476  0.00  0.00    +0.000 A 
ATOM     16  C   UNL     1       7.445   5.864  19.402  0.00  0.00    +0.000 A 
ATOM     17  C   UNL     1       6.329   5.079  19.116  0.00  0.00    +0.000 A 
ATOM     18  C   UNL     1       5.585   5.265  17.936  0.00  0.00    +0.000 A 
BRANCH  13  20
ATOM     19  C   UNL     1       5.703   5.405  14.741  0.00  0.00    +0.000 C 
ATOM     20  O   UNL     1       5.371   6.304  15.792  0.00  0.00    +0.000 OA
ENDBRANCH  13  20
ENDBRANCH   7  18
ENDBRANCH   1  11
BRANCH   6  21
ATOM     21  O   UNL     1       2.239   5.446  20.989  0.00  0.00    +0.000 OA
ATOM     22  H   UNL     1       2.750   4.724  20.603  0.00  0.00    +0.000 HD
ENDBRANCH   6  21
BRANCH   4  23
ATOM     23  O   UNL     1       1.272  10.070  20.067  0.00  0.00    +0.000 OA
BRANCH  23  24
ATOM     24  C   UNL     1      -0.093  10.231  20.457  0.00  0.00    +0.000 C 
BRANCH  24  25
ATOM     25  C   UNL     1      -0.184  10.779  21.879  0.00  0.00    +0.000 C 
ATOM     26  O   UNL     1       0.444  10.292  22.818  0.00  0.00    +0.000 OA
ATOM     27  N   UNL     1      -1.027  11.875  22.017  0.00  0.00    +0.000 N 
ATOM     28  H   UNL     1      -1.398  12.309  21.170  0.00  0.00    +0.000 HD
BRANCH  27  29
ATOM     29  N   UNL     1      -1.116  12.546  23.253  0.00  0.00    +0.000 NA
ATOM     30  H   UNL     1      -1.189  13.551  23.043  0.00  0.00    +0.000 HD
ATOM     31  H   UNL     1      -0.212  12.454  23.725  0.00  0.00    +0.000 HD
ENDBRANCH  27  29
ENDBRANCH  24  25
ENDBRANCH  23  24
ENDBRANCH   4  23
TORSDOF 8
ENDMDL
MODEL 9
REMARK VINA RESULT:      -7.6      1.025      1.228
REMARK  Name = 
REMARK  9 active torsions:
REMARK  status: ('A' for Active; 'I' for Inactive)
REMARK    1  A    between atoms: C_1  and  O_2
REMARK    2  A    between atoms: O_2  and  C_3
REMARK    3  A    between atoms: C_8  and  C_9
REMARK    4  A    between atoms: C_13  and  C_14
REMARK    5  A    between atoms: C_17  and  O_18
REMARK    6  A    between atoms: O_18  and  C_19
REMARK    7  A    between atoms: C_19  and  C_20
REMARK    8  A    between atoms: N_22  and  N_23
REMARK    9  A    between atoms: C_25  and  O_26
REMARK                            x       y       z     vdW  Elec       q    Type
REMARK                         _______ _______ _______ _____ _____    ______ ____
ROOT
ATOM      1  C   UNL     1       2.528   5.208  18.958  0.00  0.00    +0.000 A 
ATOM      2  C   UNL     1       2.487   6.147  17.914  0.00  0.00    +0.000 A 
ATOM      3  C   UNL     1       2.221   7.497  18.152  0.00  0.00    +0.000 A 
ATOM      4  C   UNL     1       1.885   7.928  19.428  0.00  0.00    +0.000 A 
ATOM      5  C   UNL     1       1.876   7.016  20.482  0.00  0.00    +0.000 A 
ATOM      6  C   UNL     1       2.214   5.673  20.251  0.00  0.00    +0.000 A 
ENDROOT
BRANCH   1  11
ATOM      7  C   UNL     1       3.941   3.285  17.810  0.00  0.00    +0.000 A 
ATOM      8  C   UNL     1       3.784   1.915  17.865  0.00  0.00    +0.000 A 
ATOM      9  N   UNL     1       2.717   1.680  18.676  0.00  0.00    +0.000 N 
ATOM     10  N   UNL     1       2.147   2.793  19.155  0.00  0.00    +0.000 NA
ATOM     11  C   UNL     1       2.886   3.803  18.662  0.00  0.00    +0.000 A 
ATOM     12  H   UNL     1       2.319   0.791  18.944  0.00  0.00    +0.000 HD
BRANCH   7  18
ATOM     13  C   UNL     1       6.184   4.454  17.558  0.00  0.00    +0.000 A 
ATOM     14  C   UNL     1       7.190   4.912  16.690  0.00  0.00    +0.000 A 
ATOM     15  C   UNL     1       7.022   4.867  15.305  0.00  0.00    +0.000 A 
ATOM     16  C   UNL     1       5.823   4.423  14.769  0.00  0.00    +0.000 A 
ATOM     17  C   UNL     1       4.797   4.011  15.618  0.00  0.00    +0.000 A 
ATOM     18  C   UNL     1       4.975   3.961  17.013  0.00  0.00    +0.000 A 
BRANCH  13  20
ATOM     19  C   UNL     1       7.096   5.517  19.502  0.00  0.00    +0.000 C 
ATOM     20  O   UNL     1       6.316   4.475  18.926  0.00  0.00    +0.000 OA
ENDBRANCH  13  20
ENDBRANCH   7  18
ENDBRANCH   1  11
BRANCH   6  21
ATOM     21  O   UNL     1       2.274   4.843  21.342  0.00  0.00    +0.000 OA
ATOM     22  H   UNL     1       2.038   3.946  21.079  0.00  0.00    +0.000 HD
ENDBRANCH   6  21
BRANCH   4  23
ATOM     23  O   UNL     1       1.647   9.267  19.553  0.00  0.00    +0.000 OA
BRANCH  23  24
ATOM     24  C   UNL     1       0.884   9.636  20.703  0.00  0.00    +0.000 C 
BRANCH  24  25
ATOM     25  C   UNL     1       0.553  11.127  20.672  0.00  0.00    +0.000 C 
ATOM     26  O   UNL     1       1.151  11.952  21.360  0.00  0.00    +0.000 OA
ATOM     27  N   UNL     1      -0.473  11.467  19.798  0.00  0.00    +0.000 N 
ATOM     28  H   UNL     1      -0.820  10.750  19.158  0.00  0.00    +0.000 HD
BRANCH  27  29
ATOM     29  N   UNL     1      -0.802  12.820  19.590  0.00  0.00    +0.000 NA
ATOM     30  H   UNL     1      -0.436  13.079  18.663  0.00  0.00    +0.000 HD
ATOM     31  H   UNL     1      -0.249  13.382  20.243  0.00  0.00    +0.000 HD
ENDBRANCH  27  29
ENDBRANCH  24  25
ENDBRANCH  23  24
ENDBRANCH   4  23
TORSDOF 8
ENDMDL
