MODEL 1
REMARK VINA RESULT:      -7.5      0.000      0.000
REMARK  Name = 
REMARK  6 active torsions:
REMARK  status: ('A' for Active; 'I' for Inactive)
REMARK    1  A    between atoms: N_1  and  C_2
REMARK    2  A    between atoms: C_4  and  C_5
REMARK    3  A    between atoms: C_13  and  N_14
REMARK    4  A    between atoms: N_14  and  C_15
REMARK    5  A    between atoms: C_15  and  C_16
REMARK    6  A    between atoms: C_16  and  N_17
REMARK                            x       y       z     vdW  Elec       q    Type
REMARK                         _______ _______ _______ _____ _____    ______ ____
ROOT
ATOM      1  C   UNL     1       7.158   6.127  18.543  0.00  0.00    +0.000 A 
ATOM      2  C   UNL     1       6.133   5.188  18.688  0.00  0.00    +0.000 A 
ATOM      3  C   UNL     1       5.048   5.208  17.818  0.00  0.00    +0.000 A 
ATOM      4  N   UNL     1       5.033   6.070  16.782  0.00  0.00    +0.000 NA
ATOM      5  N   UNL     1       6.063   6.966  16.604  0.00  0.00    +0.000 NA
ATOM      6  C   UNL     1       7.108   7.012  17.454  0.00  0.00    +0.000 A 
ENDROOT
BRANCH   3   7
ATOM      7  C   UNL     1       3.856   4.356  17.975  0.00  0.00    +0.000 A 
ATOM      8  C   UNL     1       3.968   2.999  18.339  0.00  0.00    +0.000 A 
ATOM      9  C   UNL     1       2.837   2.195  18.514  0.00  0.00    +0.000 A 
ATOM     10  C   UNL     1       1.567   2.731  18.330  0.00  0.00    +0.000 A 
ATOM     11  C   UNL     1       1.426   4.073  17.985  0.00  0.00    +0.000 A 
ATOM     12  C   UNL     1       2.559   4.872  17.809  0.00  0.00    +0.000 A 
ENDBRANCH   3   7
BRANCH   1  13
ATOM     13  N   UNL     1       8.294   6.060  19.388  0.00  0.00    +0.000 N 
ATOM     14  H   UNL     1       8.094   5.633  20.287  0.00  0.00    +0.000 HD
ATOM     15  H   UNL     1       8.691   6.996  19.495  0.00  0.00    +0.000 HD
ENDBRANCH   1  13
BRANCH   6  16
ATOM     16  N   UNL     1       8.155   7.964  17.302  0.00  0.00    +0.000 N 
ATOM     17  H   UNL     1       8.424   7.990  16.322  0.00  0.00    +0.000 HD
BRANCH  16  18
ATOM     18  C   UNL     1       7.863   9.259  17.932  0.00  0.00    +0.000 C 
BRANCH  18  19
ATOM     19  C   UNL     1       9.016   9.831  18.786  0.00  0.00    +0.000 C 
BRANCH  19  20
ATOM     20  N   UNL     1       9.215  11.283  18.560  0.00  0.00    +0.000 NA
ATOM     21  C   UNL     1      10.487  11.617  17.873  0.00  0.00    +0.000 C 
ATOM     22  C   UNL     1      11.726  11.409  18.757  0.00  0.00    +0.000 C 
ATOM     23  O   UNL     1      11.644  12.220  19.935  0.00  0.00    +0.000 OA
ATOM     24  C   UNL     1      10.454  11.928  20.679  0.00  0.00    +0.000 C 
ATOM     25  C   UNL     1       9.182  12.059  19.818  0.00  0.00    +0.000 C 
ENDBRANCH  19  20
ENDBRANCH  18  19
ENDBRANCH  16  18
ENDBRANCH   6  16
TORSDOF 6
ENDMDL
MODEL 2
REMARK VINA RESULT:      -7.5      5.313      7.977
REMARK  Name = 
REMARK  6 active torsions:
REMARK  status: ('A' for Active; 'I' for Inactive)
REMARK    1  A    between atoms: N_1  and  C_2
REMARK    2  A    between atoms: C_4  and  C_5
REMARK    3  A    between atoms: C_13  and  N_14
REMARK    4  A    between atoms: N_14  and  C_15
REMARK    5  A    between atoms: C_15  and  C_16
REMARK    6  A    between atoms: C_16  and  N_17
REMARK                            x       y       z     vdW  Elec       q    Type
REMARK                         _______ _______ _______ _____ _____    ______ ____
ROOT
ATOM      1  C   UNL     1       5.514   4.483  18.069  0.00  0.00    +0.000 A 
ATOM      2  C   UNL     1       6.077   4.150  16.834  0.00  0.00    +0.000 A 
ATOM      3  C   UNL     1       6.005   5.050  15.776  0.00  0.00    +0.000 A 
ATOM      4  N   UNL     1       5.477   6.275  15.969  0.00  0.00    +0.000 NA
ATOM      5  N   UNL     1       4.963   6.627  17.197  0.00  0.00    +0.000 NA
ATOM      6  C   UNL     1       4.969   5.766  18.235  0.00  0.00    +0.000 A 
ENDROOT
BRANCH   3   7
ATOM      7  C   UNL     1       6.440   4.737  14.403  0.00  0.00    +0.000 A 
ATOM      8  C   UNL     1       5.793   3.747  13.637  0.00  0.00    +0.000 A 
ATOM      9  C   UNL     1       6.186   3.467  12.325  0.00  0.00    +0.000 A 
ATOM     10  C   UNL     1       7.237   4.172  11.747  0.00  0.00    +0.000 A 
ATOM     11  C   UNL     1       7.885   5.167  12.476  0.00  0.00    +0.000 A 
ATOM     12  C   UNL     1       7.489   5.442  13.789  0.00  0.00    +0.000 A 
ENDBRANCH   3   7
BRANCH   1  13
ATOM     13  N   UNL     1       5.650   3.593  19.164  0.00  0.00    +0.000 N 
ATOM     14  H   UNL     1       5.427   4.024  20.055  0.00  0.00    +0.000 HD
ATOM     15  H   UNL     1       6.591   3.196  19.161  0.00  0.00    +0.000 HD
ENDBRANCH   1  13
BRANCH   6  16
ATOM     16  N   UNL     1       4.401   6.108  19.494  0.00  0.00    +0.000 N 
ATOM     17  H   UNL     1       4.830   6.973  19.814  0.00  0.00    +0.000 HD
BRANCH  16  18
ATOM     18  C   UNL     1       2.933   6.067  19.503  0.00  0.00    +0.000 C 
BRANCH  18  19
ATOM     19  C   UNL     1       2.331   4.798  20.147  0.00  0.00    +0.000 C 
BRANCH  19  20
ATOM     20  N   UNL     1       1.223   4.232  19.342  0.00  0.00    +0.000 NA
ATOM     21  C   UNL     1       0.932   2.807  19.636  0.00  0.00    +0.000 C 
ATOM     22  C   UNL     1       2.020   1.849  19.128  0.00  0.00    +0.000 C 
ATOM     23  O   UNL     1       2.179   1.976  17.710  0.00  0.00    +0.000 OA
ATOM     24  C   UNL     1       2.501   3.324  17.346  0.00  0.00    +0.000 C 
ATOM     25  C   UNL     1       1.472   4.336  17.888  0.00  0.00    +0.000 C 
ENDBRANCH  19  20
ENDBRANCH  18  19
ENDBRANCH  16  18
ENDBRANCH   6  16
TORSDOF 6
ENDMDL
MODEL 3
REMARK VINA RESULT:      -7.4      5.297      7.947
REMARK  Name = 
REMARK  6 active torsions:
REMARK  status: ('A' for Active; 'I' for Inactive)
REMARK    1  A    between atoms: N_1  and  C_2
REMARK    2  A    between atoms: C_4  and  C_5
REMARK    3  A    between atoms: C_13  and  N_14
REMARK    4  A    between atoms: N_14  and  C_15
REMARK    5  A    between atoms: C_15  and  C_16
REMARK    6  A    between atoms: C_16  and  N_17
REMARK                            x       y       z     vdW  Elec       q    Type
REMARK                         _______ _______ _______ _____ _____    ______ ____
ROOT
ATOM      1  C   UNL     1       5.584   4.664  18.039  0.00  0.00    +0.000 A 
ATOM      2  C   UNL     1       6.122   4.299  16.801  0.00  0.00    +0.000 A 
ATOM      3  C   UNL     1       5.922   5.114  15.693  0.00  0.00    +0.000 A 
ATOM      4  N   UNL     1       5.292   6.298  15.832  0.00  0.00    +0.000 NA
ATOM      5  N   UNL     1       4.801   6.686  17.059  0.00  0.00    +0.000 NA
ATOM      6  C   UNL     1       4.931   5.902  18.148  0.00  0.00    +0.000 A 
ENDROOT
BRANCH   3   7
ATOM      7  C   UNL     1       6.324   4.749  14.323  0.00  0.00    +0.000 A 
ATOM      8  C   UNL     1       7.459   5.323  13.716  0.00  0.00    +0.000 A 
ATOM      9  C   UNL     1       7.859   4.959  12.426  0.00  0.00    +0.000 A 
ATOM     10  C   UNL     1       7.133   4.010  11.714  0.00  0.00    +0.000 A 
ATOM     11  C   UNL     1       6.016   3.416  12.295  0.00  0.00    +0.000 A 
ATOM     12  C   UNL     1       5.618   3.785  13.584  0.00  0.00    +0.000 A 
ENDBRANCH   3   7
BRANCH   1  13
ATOM     13  N   UNL     1       5.849   3.867  19.180  0.00  0.00    +0.000 N 
ATOM     14  H   UNL     1       5.215   3.079  19.268  0.00  0.00    +0.000 HD
ATOM     15  H   UNL     1       5.835   4.456  20.015  0.00  0.00    +0.000 HD
ENDBRANCH   1  13
BRANCH   6  16
ATOM     16  N   UNL     1       4.389   6.277  19.410  0.00  0.00    +0.000 N 
ATOM     17  H   UNL     1       4.781   7.178  19.672  0.00  0.00    +0.000 HD
BRANCH  16  18
ATOM     18  C   UNL     1       2.926   6.161  19.475  0.00  0.00    +0.000 C 
BRANCH  18  19
ATOM     19  C   UNL     1       2.414   4.821  20.048  0.00  0.00    +0.000 C 
BRANCH  19  20
ATOM     20  N   UNL     1       1.271   4.279  19.274  0.00  0.00    +0.000 NA
ATOM     21  C   UNL     1       0.961   2.860  19.572  0.00  0.00    +0.000 C 
ATOM     22  C   UNL     1       2.014   1.882  19.030  0.00  0.00    +0.000 C 
ATOM     23  O   UNL     1       2.134   2.010  17.608  0.00  0.00    +0.000 OA
ATOM     24  C   UNL     1       2.472   3.353  17.239  0.00  0.00    +0.000 C 
ATOM     25  C   UNL     1       1.480   4.384  17.813  0.00  0.00    +0.000 C 
ENDBRANCH  19  20
ENDBRANCH  18  19
ENDBRANCH  16  18
ENDBRANCH   6  16
TORSDOF 6
ENDMDL
MODEL 4
REMARK VINA RESULT:      -7.4      0.187      1.039
REMARK  Name = 
REMARK  6 active torsions:
REMARK  status: ('A' for Active; 'I' for Inactive)
REMARK    1  A    between atoms: N_1  and  C_2
REMARK    2  A    between atoms: C_4  and  C_5
REMARK    3  A    between atoms: C_13  and  N_14
REMARK    4  A    between atoms: N_14  and  C_15
REMARK    5  A    between atoms: C_15  and  C_16
REMARK    6  A    between atoms: C_16  and  N_17
REMARK                            x       y       z     vdW  Elec       q    Type
REMARK                         _______ _______ _______ _____ _____    ______ ____
ROOT
ATOM      1  C   UNL     1       7.125   6.109  18.571  0.00  0.00    +0.000 A 
ATOM      2  C   UNL     1       6.087   5.184  18.716  0.00  0.00    +0.000 A 
ATOM      3  C   UNL     1       5.010   5.209  17.836  0.00  0.00    +0.000 A 
ATOM      4  N   UNL     1       5.013   6.061  16.792  0.00  0.00    +0.000 NA
ATOM      5  N   UNL     1       6.056   6.944  16.616  0.00  0.00    +0.000 NA
ATOM      6  C   UNL     1       7.095   6.985  17.474  0.00  0.00    +0.000 A 
ENDROOT
BRANCH   3   7
ATOM      7  C   UNL     1       3.806   4.373  17.990  0.00  0.00    +0.000 A 
ATOM      8  C   UNL     1       2.514   4.929  17.911  0.00  0.00    +0.000 A 
ATOM      9  C   UNL     1       1.369   4.134  18.030  0.00  0.00    +0.000 A 
ATOM     10  C   UNL     1       1.491   2.763  18.230  0.00  0.00    +0.000 A 
ATOM     11  C   UNL     1       2.756   2.184  18.297  0.00  0.00    +0.000 A 
ATOM     12  C   UNL     1       3.898   2.983  18.180  0.00  0.00    +0.000 A 
ENDBRANCH   3   7
BRANCH   1  13
ATOM     13  N   UNL     1       8.252   6.036  19.426  0.00  0.00    +0.000 N 
ATOM     14  H   UNL     1       8.798   6.892  19.436  0.00  0.00    +0.000 HD
ATOM     15  H   UNL     1       8.822   5.228  19.166  0.00  0.00    +0.000 HD
ENDBRANCH   1  13
BRANCH   6  16
ATOM     16  N   UNL     1       8.154   7.923  17.323  0.00  0.00    +0.000 N 
ATOM     17  H   UNL     1       8.449   7.919  16.349  0.00  0.00    +0.000 HD
BRANCH  16  18
ATOM     18  C   UNL     1       7.858   9.238  17.907  0.00  0.00    +0.000 C 
BRANCH  18  19
ATOM     19  C   UNL     1       8.992   9.823  18.777  0.00  0.00    +0.000 C 
BRANCH  19  20
ATOM     20  N   UNL     1       9.066  11.301  18.684  0.00  0.00    +0.000 NA
ATOM     21  C   UNL     1      10.147  11.795  17.798  0.00  0.00    +0.000 C 
ATOM     22  C   UNL     1      11.552  11.590  18.383  0.00  0.00    +0.000 C 
ATOM     23  O   UNL     1      11.678  12.267  19.638  0.00  0.00    +0.000 OA
ATOM     24  C   UNL     1      10.686  11.815  20.569  0.00  0.00    +0.000 C 
ATOM     25  C   UNL     1       9.257  11.940  20.005  0.00  0.00    +0.000 C 
ENDBRANCH  19  20
ENDBRANCH  18  19
ENDBRANCH  16  18
ENDBRANCH   6  16
TORSDOF 6
ENDMDL
MODEL 5
REMARK VINA RESULT:      -7.3      1.143      1.266
REMARK  Name = 
REMARK  6 active torsions:
REMARK  status: ('A' for Active; 'I' for Inactive)
REMARK    1  A    between atoms: N_1  and  C_2
REMARK    2  A    between atoms: C_4  and  C_5
REMARK    3  A    between atoms: C_13  and  N_14
REMARK    4  A    between atoms: N_14  and  C_15
REMARK    5  A    between atoms: C_15  and  C_16
REMARK    6  A    between atoms: C_16  and  N_17
REMARK                            x       y       z     vdW  Elec       q    Type
REMARK                         _______ _______ _______ _____ _____    ______ ____
ROOT
ATOM      1  C   UNL     1       6.901   5.849  18.949  0.00  0.00    +0.000 A 
ATOM      2  C   UNL     1       5.757   5.113  19.270  0.00  0.00    +0.000 A 
ATOM      3  C   UNL     1       4.558   5.378  18.618  0.00  0.00    +0.000 A 
ATOM      4  N   UNL     1       4.522   6.276  17.613  0.00  0.00    +0.000 NA
ATOM      5  N   UNL     1       5.657   6.971  17.259  0.00  0.00    +0.000 NA
ATOM      6  C   UNL     1       6.828   6.780  17.900  0.00  0.00    +0.000 A 
ENDROOT
BRANCH   3   7
ATOM      7  C   UNL     1       3.272   4.758  18.983  0.00  0.00    +0.000 A 
ATOM      8  C   UNL     1       2.624   3.852  18.119  0.00  0.00    +0.000 A 
ATOM      9  C   UNL     1       1.417   3.242  18.473  0.00  0.00    +0.000 A 
ATOM     10  C   UNL     1       0.829   3.524  19.702  0.00  0.00    +0.000 A 
ATOM     11  C   UNL     1       1.455   4.404  20.582  0.00  0.00    +0.000 A 
ATOM     12  C   UNL     1       2.661   5.013  20.222  0.00  0.00    +0.000 A 
ENDBRANCH   3   7
BRANCH   1  13
ATOM     13  N   UNL     1       8.136   5.530  19.566  0.00  0.00    +0.000 N 
ATOM     14  H   UNL     1       8.939   5.860  19.041  0.00  0.00    +0.000 HD
ATOM     15  H   UNL     1       8.181   4.522  19.731  0.00  0.00    +0.000 HD
ENDBRANCH   1  13
BRANCH   6  16
ATOM     16  N   UNL     1       7.994   7.525  17.567  0.00  0.00    +0.000 N 
ATOM     17  H   UNL     1       8.267   7.285  16.618  0.00  0.00    +0.000 HD
BRANCH  16  18
ATOM     18  C   UNL     1       7.877   8.958  17.868  0.00  0.00    +0.000 C 
BRANCH  18  19
ATOM     19  C   UNL     1       8.988   9.514  18.786  0.00  0.00    +0.000 C 
BRANCH  19  20
ATOM     20  N   UNL     1       8.821  10.962  19.056  0.00  0.00    +0.000 NA
ATOM     21  C   UNL     1       9.198  11.834  17.916  0.00  0.00    +0.000 C 
ATOM     22  C   UNL     1      10.712  11.880  17.662  0.00  0.00    +0.000 C 
ATOM     23  O   UNL     1      11.402  12.360  18.821  0.00  0.00    +0.000 OA
ATOM     24  C   UNL     1      11.118  11.543  19.965  0.00  0.00    +0.000 C 
ATOM     25  C   UNL     1       9.605  11.410  20.227  0.00  0.00    +0.000 C 
ENDBRANCH  19  20
ENDBRANCH  18  19
ENDBRANCH  16  18
ENDBRANCH   6  16
TORSDOF 6
ENDMDL
MODEL 6
REMARK VINA RESULT:      -7.2      1.187      1.341
REMARK  Name = 
REMARK  6 active torsions:
REMARK  status: ('A' for Active; 'I' for Inactive)
REMARK    1  A    between atoms: N_1  and  C_2
REMARK    2  A    between atoms: C_4  and  C_5
REMARK    3  A    between atoms: C_13  and  N_14
REMARK    4  A    between atoms: N_14  and  C_15
REMARK    5  A    between atoms: C_15  and  C_16
REMARK    6  A    between atoms: C_16  and  N_17
REMARK                            x       y       z     vdW  Elec       q    Type
REMARK                         _______ _______ _______ _____ _____    ______ ____
ROOT
ATOM      1  C   UNL     1       6.774   5.777  18.899  0.00  0.00    +0.000 A 
ATOM      2  C   UNL     1       5.669   5.002  19.263  0.00  0.00    +0.000 A 
ATOM      3  C   UNL     1       4.455   5.177  18.606  0.00  0.00    +0.000 A 
ATOM      4  N   UNL     1       4.371   6.024  17.562  0.00  0.00    +0.000 NA
ATOM      5  N   UNL     1       5.469   6.757  17.168  0.00  0.00    +0.000 NA
ATOM      6  C   UNL     1       6.650   6.653  17.809  0.00  0.00    +0.000 A 
ENDROOT
BRANCH   3   7
ATOM      7  C   UNL     1       3.203   4.513  19.008  0.00  0.00    +0.000 A 
ATOM      8  C   UNL     1       2.675   4.669  20.306  0.00  0.00    +0.000 A 
ATOM      9  C   UNL     1       1.473   4.061  20.683  0.00  0.00    +0.000 A 
ATOM     10  C   UNL     1       0.770   3.284  19.768  0.00  0.00    +0.000 A 
ATOM     11  C   UNL     1       1.260   3.125  18.474  0.00  0.00    +0.000 A 
ATOM     12  C   UNL     1       2.464   3.732  18.103  0.00  0.00    +0.000 A 
ENDBRANCH   3   7
BRANCH   1  13
ATOM     13  N   UNL     1       8.026   5.548  19.523  0.00  0.00    +0.000 N 
ATOM     14  H   UNL     1       8.166   6.119  20.350  0.00  0.00    +0.000 HD
ATOM     15  H   UNL     1       8.773   5.683  18.839  0.00  0.00    +0.000 HD
ENDBRANCH   1  13
BRANCH   6  16
ATOM     16  N   UNL     1       7.777   7.438  17.435  0.00  0.00    +0.000 N 
ATOM     17  H   UNL     1       8.014   7.218  16.471  0.00  0.00    +0.000 HD
BRANCH  16  18
ATOM     18  C   UNL     1       7.630   8.863  17.760  0.00  0.00    +0.000 C 
BRANCH  18  19
ATOM     19  C   UNL     1       8.859   9.493  18.450  0.00  0.00    +0.000 C 
BRANCH  19  20
ATOM     20  N   UNL     1       8.611  10.894  18.870  0.00  0.00    +0.000 NA
ATOM     21  C   UNL     1       9.014  11.905  17.862  0.00  0.00    +0.000 C 
ATOM     22  C   UNL     1      10.537  12.038  17.712  0.00  0.00    +0.000 C 
ATOM     23  O   UNL     1      11.134  12.408  18.959  0.00  0.00    +0.000 OA
ATOM     24  C   UNL     1      10.822  11.454  19.983  0.00  0.00    +0.000 C 
ATOM     25  C   UNL     1       9.304  11.234  20.132  0.00  0.00    +0.000 C 
ENDBRANCH  19  20
ENDBRANCH  18  19
ENDBRANCH  16  18
ENDBRANCH   6  16
TORSDOF 6
ENDMDL
MODEL 7
REMARK VINA RESULT:      -7.1      5.395      7.988
REMARK  Name = 
REMARK  6 active torsions:
REMARK  status: ('A' for Active; 'I' for Inactive)
REMARK    1  A    between atoms: N_1  and  C_2
REMARK    2  A    between atoms: C_4  and  C_5
REMARK    3  A    between atoms: C_13  and  N_14
REMARK    4  A    between atoms: N_14  and  C_15
REMARK    5  A    between atoms: C_15  and  C_16
REMARK    6  A    between atoms: C_16  and  N_17
REMARK                            x       y       z     vdW  Elec       q    Type
REMARK                         _______ _______ _______ _____ _____    ______ ____
ROOT
ATOM      1  C   UNL     1       5.353   4.433  18.091  0.00  0.00    +0.000 A 
ATOM      2  C   UNL     1       5.932   4.116  16.859  0.00  0.00    +0.000 A 
ATOM      3  C   UNL     1       5.793   4.989  15.785  0.00  0.00    +0.000 A 
ATOM      4  N   UNL     1       5.183   6.178  15.958  0.00  0.00    +0.000 NA
ATOM      5  N   UNL     1       4.652   6.518  17.183  0.00  0.00    +0.000 NA
ATOM      6  C   UNL     1       4.722   5.679  18.236  0.00  0.00    +0.000 A 
ENDROOT
BRANCH   3   7
ATOM      7  C   UNL     1       6.243   4.681  14.416  0.00  0.00    +0.000 A 
ATOM      8  C   UNL     1       7.374   5.310  13.858  0.00  0.00    +0.000 A 
ATOM      9  C   UNL     1       7.819   5.002  12.568  0.00  0.00    +0.000 A 
ATOM     10  C   UNL     1       7.142   4.054  11.807  0.00  0.00    +0.000 A 
ATOM     11  C   UNL     1       6.031   3.405  12.339  0.00  0.00    +0.000 A 
ATOM     12  C   UNL     1       5.588   3.719  13.628  0.00  0.00    +0.000 A 
ENDBRANCH   3   7
BRANCH   1  13
ATOM     13  N   UNL     1       5.554   3.575  19.201  0.00  0.00    +0.000 N 
ATOM     14  H   UNL     1       6.533   3.462  19.442  0.00  0.00    +0.000 HD
ATOM     15  H   UNL     1       5.104   2.675  19.018  0.00  0.00    +0.000 HD
ENDBRANCH   1  13
BRANCH   6  16
ATOM     16  N   UNL     1       4.137   6.005  19.492  0.00  0.00    +0.000 N 
ATOM     17  H   UNL     1       4.602   6.833  19.856  0.00  0.00    +0.000 HD
BRANCH  16  18
ATOM     18  C   UNL     1       2.669   6.042  19.461  0.00  0.00    +0.000 C 
BRANCH  18  19
ATOM     19  C   UNL     1       2.019   4.970  18.560  0.00  0.00    +0.000 C 
BRANCH  19  20
ATOM     20  N   UNL     1       1.024   4.149  19.292  0.00  0.00    +0.000 NA
ATOM     21  C   UNL     1       1.246   4.100  20.757  0.00  0.00    +0.000 C 
ATOM     22  C   UNL     1       2.477   3.273  21.157  0.00  0.00    +0.000 C 
ATOM     23  O   UNL     1       2.349   1.924  20.693  0.00  0.00    +0.000 OA
ATOM     24  C   UNL     1       2.169   1.884  19.271  0.00  0.00    +0.000 C 
ATOM     25  C   UNL     1       0.982   2.752  18.808  0.00  0.00    +0.000 C 
ENDBRANCH  19  20
ENDBRANCH  18  19
ENDBRANCH  16  18
ENDBRANCH   6  16
TORSDOF 6
ENDMDL
MODEL 8
REMARK VINA RESULT:      -7.1      1.157      1.421
REMARK  Name = 
REMARK  6 active torsions:
REMARK  status: ('A' for Active; 'I' for Inactive)
REMARK    1  A    between atoms: N_1  and  C_2
REMARK    2  A    between atoms: C_4  and  C_5
REMARK    3  A    between atoms: C_13  and  N_14
REMARK    4  A    between atoms: N_14  and  C_15
REMARK    5  A    between atoms: C_15  and  C_16
REMARK    6  A    between atoms: C_16  and  N_17
REMARK                            x       y       z     vdW  Elec       q    Type
REMARK                         _______ _______ _______ _____ _____    ______ ____
ROOT
ATOM      1  C   UNL     1       6.957   6.006  18.841  0.00  0.00    +0.000 A 
ATOM      2  C   UNL     1       5.836   5.236  19.166  0.00  0.00    +0.000 A 
ATOM      3  C   UNL     1       4.629   5.463  18.516  0.00  0.00    +0.000 A 
ATOM      4  N   UNL     1       4.563   6.359  17.511  0.00  0.00    +0.000 NA
ATOM      5  N   UNL     1       5.675   7.087  17.153  0.00  0.00    +0.000 NA
ATOM      6  C   UNL     1       6.852   6.933  17.791  0.00  0.00    +0.000 A 
ENDROOT
BRANCH   3   7
ATOM      7  C   UNL     1       3.363   4.805  18.885  0.00  0.00    +0.000 A 
ATOM      8  C   UNL     1       2.822   4.931  20.180  0.00  0.00    +0.000 A 
ATOM      9  C   UNL     1       1.608   4.329  20.526  0.00  0.00    +0.000 A 
ATOM     10  C   UNL     1       0.905   3.588  19.582  0.00  0.00    +0.000 A 
ATOM     11  C   UNL     1       1.408   3.459  18.290  0.00  0.00    +0.000 A 
ATOM     12  C   UNL     1       2.624   4.060  17.950  0.00  0.00    +0.000 A 
ENDBRANCH   3   7
BRANCH   1  13
ATOM     13  N   UNL     1       8.202   5.726  19.456  0.00  0.00    +0.000 N 
ATOM     14  H   UNL     1       8.994   5.909  18.849  0.00  0.00    +0.000 HD
ATOM     15  H   UNL     1       8.202   4.761  19.795  0.00  0.00    +0.000 HD
ENDBRANCH   1  13
BRANCH   6  16
ATOM     16  N   UNL     1       7.995   7.713  17.455  0.00  0.00    +0.000 N 
ATOM     17  H   UNL     1       8.279   7.473  16.509  0.00  0.00    +0.000 HD
BRANCH  16  18
ATOM     18  C   UNL     1       7.829   9.144  17.742  0.00  0.00    +0.000 C 
BRANCH  18  19
ATOM     19  C   UNL     1       8.896   9.736  18.689  0.00  0.00    +0.000 C 
BRANCH  19  20
ATOM     20  N   UNL     1       9.685  10.813  18.043  0.00  0.00    +0.000 NA
ATOM     21  C   UNL     1      10.950  11.136  18.746  0.00  0.00    +0.000 C 
ATOM     22  C   UNL     1      10.734  11.860  20.083  0.00  0.00    +0.000 C 
ATOM     23  O   UNL     1      10.025  13.088  19.881  0.00  0.00    +0.000 OA
ATOM     24  C   UNL     1       8.765  12.855  19.237  0.00  0.00    +0.000 C 
ATOM     25  C   UNL     1       8.920  12.073  17.918  0.00  0.00    +0.000 C 
ENDBRANCH  19  20
ENDBRANCH  18  19
ENDBRANCH  16  18
ENDBRANCH   6  16
TORSDOF 6
ENDMDL
MODEL 9
REMARK VINA RESULT:      -7.1      4.811      6.947
REMARK  Name = 
REMARK  6 active torsions:
REMARK  status: ('A' for Active; 'I' for Inactive)
REMARK    1  A    between atoms: N_1  and  C_2
REMARK    2  A    between atoms: C_4  and  C_5
REMARK    3  A    between atoms: C_13  and  N_14
REMARK    4  A    between atoms: N_14  and  C_15
REMARK    5  A    between atoms: C_15  and  C_16
REMARK    6  A    between atoms: C_16  and  N_17
REMARK                            x       y       z     vdW  Elec       q    Type
REMARK                         _______ _______ _______ _____ _____    ______ ____
ROOT
ATOM      1  C   UNL     1       2.575   7.318  18.542  0.00  0.00    +0.000 A 
ATOM      2  C   UNL     1       2.016   8.397  19.234  0.00  0.00    +0.000 A 
ATOM      3  C   UNL     1       1.368   8.181  20.445  0.00  0.00    +0.000 A 
ATOM      4  N   UNL     1       1.362   6.950  20.995  0.00  0.00    +0.000 NA
ATOM      5  N   UNL     1       1.952   5.891  20.342  0.00  0.00    +0.000 NA
ATOM      6  C   UNL     1       2.547   6.049  19.142  0.00  0.00    +0.000 A 
ENDROOT
BRANCH   3   7
ATOM      7  C   UNL     1       0.628   9.224  21.176  0.00  0.00    +0.000 A 
ATOM      8  C   UNL     1       0.299  10.452  20.567  0.00  0.00    +0.000 A 
ATOM      9  C   UNL     1      -0.426  11.434  21.250  0.00  0.00    +0.000 A 
ATOM     10  C   UNL     1      -0.841  11.209  22.558  0.00  0.00    +0.000 A 
ATOM     11  C   UNL     1      -0.544   9.999  23.180  0.00  0.00    +0.000 A 
ATOM     12  C   UNL     1       0.184   9.021  22.494  0.00  0.00    +0.000 A 
ENDBRANCH   3   7
BRANCH   1  13
ATOM     13  N   UNL     1       3.293   7.552  17.343  0.00  0.00    +0.000 N 
ATOM     14  H   UNL     1       2.689   7.736  16.549  0.00  0.00    +0.000 HD
ATOM     15  H   UNL     1       3.920   6.764  17.166  0.00  0.00    +0.000 HD
ENDBRANCH   1  13
BRANCH   6  16
ATOM     16  N   UNL     1       3.122   4.952  18.441  0.00  0.00    +0.000 N 
ATOM     17  H   UNL     1       3.267   5.230  17.474  0.00  0.00    +0.000 HD
BRANCH  16  18
ATOM     18  C   UNL     1       4.278   4.361  19.128  0.00  0.00    +0.000 C 
BRANCH  18  19
ATOM     19  C   UNL     1       5.453   5.337  19.361  0.00  0.00    +0.000 C 
BRANCH  19  20
ATOM     20  N   UNL     1       6.718   4.846  18.762  0.00  0.00    +0.000 NA
ATOM     21  C   UNL     1       7.846   5.803  18.871  0.00  0.00    +0.000 C 
ATOM     22  C   UNL     1       7.690   7.031  17.961  0.00  0.00    +0.000 C 
ATOM     23  O   UNL     1       7.591   6.630  16.589  0.00  0.00    +0.000 OA
ATOM     24  C   UNL     1       6.494   5.729  16.393  0.00  0.00    +0.000 C 
ATOM     25  C   UNL     1       6.568   4.507  17.330  0.00  0.00    +0.000 C 
ENDBRANCH  19  20
ENDBRANCH  18  19
ENDBRANCH  16  18
ENDBRANCH   6  16
TORSDOF 6
ENDMDL
