MODEL 1
REMARK VINA RESULT:      -7.3      0.000      0.000
REMARK  Name = 
REMARK  6 active torsions:
REMARK  status: ('A' for Active; 'I' for Inactive)
REMARK    1  A    between atoms: C_2  and  O_3
REMARK    2  A    between atoms: C_2  and  C_4
REMARK    3  A    between atoms: C_9  and  C_10
REMARK    4  A    between atoms: N_12  and  C_13
REMARK    5  A    between atoms: C_13  and  C_14
REMARK    6  A    between atoms: C_14  and  C_15
REMARK                            x       y       z     vdW  Elec       q    Type
REMARK                         _______ _______ _______ _____ _____    ______ ____
ROOT
ATOM      1  C   UNL     1       4.119   5.292  18.655  0.00  0.00    +0.000 C 
ATOM      2  O   UNL     1       3.828   6.007  17.704  0.00  0.00    +0.000 OA
ATOM      3  N   UNL     1       5.410   5.084  19.093  0.00  0.00    +0.000 N 
ATOM      4  H   UNL     1       5.557   4.648  19.996  0.00  0.00    +0.000 HD
ENDROOT
BRANCH   1  10
ATOM      5  C   UNL     1       3.089   3.147  19.582  0.00  0.00    +0.000 A 
ATOM      6  C   UNL     1       2.023   2.549  20.291  0.00  0.00    +0.000 A 
ATOM      7  C   UNL     1       0.959   3.306  20.782  0.00  0.00    +0.000 A 
ATOM      8  C   UNL     1       0.934   4.676  20.574  0.00  0.00    +0.000 A 
ATOM      9  C   UNL     1       1.974   5.287  19.870  0.00  0.00    +0.000 A 
ATOM     10  C   UNL     1       3.050   4.533  19.354  0.00  0.00    +0.000 A 
BRANCH   5  12
ATOM     11  O   UNL     1       3.857   1.372  18.225  0.00  0.00    +0.000 OA
ATOM     12  C   UNL     1       4.120   2.180  19.103  0.00  0.00    +0.000 C 
BRANCH  12  13
ATOM     13  O   UNL     1       5.283   2.139  19.772  0.00  0.00    +0.000 OA
ATOM     14  H   UNL     1       5.683   3.008  20.008  0.00  0.00    +0.000 HD
ENDBRANCH  12  13
ENDBRANCH   5  12
ENDBRANCH   1  10
BRANCH   3  15
ATOM     15  C   UNL     1       6.551   5.731  18.469  0.00  0.00    +0.000 C 
BRANCH  15  16
ATOM     16  C   UNL     1       7.409   4.722  17.698  0.00  0.00    +0.000 C 
BRANCH  16  17
ATOM     17  C   UNL     1       6.860   4.489  16.315  0.00  0.00    +0.000 A 
ATOM     18  C   UNL     1       5.813   3.579  16.114  0.00  0.00    +0.000 A 
ATOM     19  C   UNL     1       5.364   3.295  14.822  0.00  0.00    +0.000 A 
ATOM     20  C   UNL     1       5.958   3.923  13.730  0.00  0.00    +0.000 A 
ATOM     21 CL   UNL     1       5.429   3.544  12.137  0.00  0.00    +0.000 Cl
ATOM     22  C   UNL     1       6.986   4.845  13.917  0.00  0.00    +0.000 A 
ATOM     23  C   UNL     1       7.435   5.128  15.207  0.00  0.00    +0.000 A 
ENDBRANCH  16  17
ENDBRANCH  15  16
ENDBRANCH   3  15
TORSDOF 6
ENDMDL
MODEL 2
REMARK VINA RESULT:      -7.2      1.366      1.729
REMARK  Name = 
REMARK  6 active torsions:
REMARK  status: ('A' for Active; 'I' for Inactive)
REMARK    1  A    between atoms: C_2  and  O_3
REMARK    2  A    between atoms: C_2  and  C_4
REMARK    3  A    between atoms: C_9  and  C_10
REMARK    4  A    between atoms: N_12  and  C_13
REMARK    5  A    between atoms: C_13  and  C_14
REMARK    6  A    between atoms: C_14  and  C_15
REMARK                            x       y       z     vdW  Elec       q    Type
REMARK                         _______ _______ _______ _____ _____    ______ ____
ROOT
ATOM      1  C   UNL     1       4.849   4.083  19.430  0.00  0.00    +0.000 C 
ATOM      2  O   UNL     1       5.492   3.046  19.325  0.00  0.00    +0.000 OA
ATOM      3  N   UNL     1       5.416   5.339  19.463  0.00  0.00    +0.000 N 
ATOM      4  H   UNL     1       4.820   6.150  19.350  0.00  0.00    +0.000 HD
ENDROOT
BRANCH   1  10
ATOM      5  C   UNL     1       2.550   3.070  18.972  0.00  0.00    +0.000 A 
ATOM      6  C   UNL     1       1.164   3.088  19.251  0.00  0.00    +0.000 A 
ATOM      7  C   UNL     1       0.615   4.001  20.151  0.00  0.00    +0.000 A 
ATOM      8  C   UNL     1       1.434   4.918  20.791  0.00  0.00    +0.000 A 
ATOM      9  C   UNL     1       2.806   4.921  20.526  0.00  0.00    +0.000 A 
ATOM     10  C   UNL     1       3.375   4.015  19.606  0.00  0.00    +0.000 A 
BRANCH   5  12
ATOM     11  O   UNL     1       2.505   2.088  16.823  0.00  0.00    +0.000 OA
ATOM     12  C   UNL     1       2.953   2.050  17.959  0.00  0.00    +0.000 C 
BRANCH  12  13
ATOM     13  O   UNL     1       3.702   1.021  18.388  0.00  0.00    +0.000 OA
ATOM     14  H   UNL     1       3.581   0.165  17.916  0.00  0.00    +0.000 HD
ENDBRANCH  12  13
ENDBRANCH   5  12
ENDBRANCH   1  10
BRANCH   3  15
ATOM     15  C   UNL     1       6.849   5.543  19.345  0.00  0.00    +0.000 C 
BRANCH  15  16
ATOM     16  C   UNL     1       7.188   6.444  18.153  0.00  0.00    +0.000 C 
BRANCH  16  17
ATOM     17  C   UNL     1       6.733   5.822  16.858  0.00  0.00    +0.000 A 
ATOM     18  C   UNL     1       5.711   6.419  16.108  0.00  0.00    +0.000 A 
ATOM     19  C   UNL     1       5.225   5.796  14.956  0.00  0.00    +0.000 A 
ATOM     20  C   UNL     1       5.765   4.578  14.550  0.00  0.00    +0.000 A 
ATOM     21 CL   UNL     1       5.141   3.793  13.151  0.00  0.00    +0.000 Cl
ATOM     22  C   UNL     1       6.795   3.983  15.276  0.00  0.00    +0.000 A 
ATOM     23  C   UNL     1       7.279   4.605  16.427  0.00  0.00    +0.000 A 
ENDBRANCH  16  17
ENDBRANCH  15  16
ENDBRANCH   3  15
TORSDOF 6
ENDMDL
MODEL 3
REMARK VINA RESULT:      -7.1      5.260      6.787
REMARK  Name = 
REMARK  6 active torsions:
REMARK  status: ('A' for Active; 'I' for Inactive)
REMARK    1  A    between atoms: C_2  and  O_3
REMARK    2  A    between atoms: C_2  and  C_4
REMARK    3  A    between atoms: C_9  and  C_10
REMARK    4  A    between atoms: N_12  and  C_13
REMARK    5  A    between atoms: C_13  and  C_14
REMARK    6  A    between atoms: C_14  and  C_15
REMARK                            x       y       z     vdW  Elec       q    Type
REMARK                         _______ _______ _______ _____ _____    ______ ____
ROOT
ATOM      1  C   UNL     1       7.236   5.833  18.461  0.00  0.00    +0.000 C 
ATOM      2  O   UNL     1       8.116   5.304  19.128  0.00  0.00    +0.000 OA
ATOM      3  N   UNL     1       7.262   7.153  18.063  0.00  0.00    +0.000 N 
ATOM      4  H   UNL     1       6.610   7.465  17.353  0.00  0.00    +0.000 HD
ENDROOT
BRANCH   1  10
ATOM      5  C   UNL     1       5.811   4.461  16.846  0.00  0.00    +0.000 A 
ATOM      6  C   UNL     1       4.627   3.716  16.642  0.00  0.00    +0.000 A 
ATOM      7  C   UNL     1       3.691   3.543  17.661  0.00  0.00    +0.000 A 
ATOM      8  C   UNL     1       3.913   4.111  18.905  0.00  0.00    +0.000 A 
ATOM      9  C   UNL     1       5.072   4.857  19.127  0.00  0.00    +0.000 A 
ATOM     10  C   UNL     1       6.022   5.055  18.102  0.00  0.00    +0.000 A 
BRANCH   5  12
ATOM     11  O   UNL     1       7.369   5.561  15.451  0.00  0.00    +0.000 OA
ATOM     12  C   UNL     1       6.678   4.571  15.635  0.00  0.00    +0.000 C 
BRANCH  12  13
ATOM     13  O   UNL     1       6.551   3.614  14.702  0.00  0.00    +0.000 OA
ATOM     14  H   UNL     1       5.946   3.813  13.950  0.00  0.00    +0.000 HD
ENDBRANCH  12  13
ENDBRANCH   5  12
ENDBRANCH   1  10
BRANCH   3  15
ATOM     15  C   UNL     1       8.370   8.036  18.385  0.00  0.00    +0.000 C 
BRANCH  15  16
ATOM     16  C   UNL     1       8.252   9.372  17.644  0.00  0.00    +0.000 C 
BRANCH  16  17
ATOM     17  C   UNL     1       8.906  10.483  18.423  0.00  0.00    +0.000 A 
ATOM     18  C   UNL     1       9.383  10.251  19.720  0.00  0.00    +0.000 A 
ATOM     19  C   UNL     1       9.906  11.301  20.478  0.00  0.00    +0.000 A 
ATOM     20  C   UNL     1       9.957  12.585  19.938  0.00  0.00    +0.000 A 
ATOM     21 CL   UNL     1      10.568  13.885  20.885  0.00  0.00    +0.000 Cl
ATOM     22  C   UNL     1       9.504  12.825  18.642  0.00  0.00    +0.000 A 
ATOM     23  C   UNL     1       8.980  11.776  17.886  0.00  0.00    +0.000 A 
ENDBRANCH  16  17
ENDBRANCH  15  16
ENDBRANCH   3  15
TORSDOF 6
ENDMDL
MODEL 4
REMARK VINA RESULT:      -7.1      1.009      1.603
REMARK  Name = 
REMARK  6 active torsions:
REMARK  status: ('A' for Active; 'I' for Inactive)
REMARK    1  A    between atoms: C_2  and  O_3
REMARK    2  A    between atoms: C_2  and  C_4
REMARK    3  A    between atoms: C_9  and  C_10
REMARK    4  A    between atoms: N_12  and  C_13
REMARK    5  A    between atoms: C_13  and  C_14
REMARK    6  A    between atoms: C_14  and  C_15
REMARK                            x       y       z     vdW  Elec       q    Type
REMARK                         _______ _______ _______ _____ _____    ______ ____
ROOT
ATOM      1  C   UNL     1       5.016   5.146  19.219  0.00  0.00    +0.000 C 
ATOM      2  O   UNL     1       6.021   4.884  19.869  0.00  0.00    +0.000 OA
ATOM      3  N   UNL     1       5.014   5.949  18.098  0.00  0.00    +0.000 N 
ATOM      4  H   UNL     1       4.195   5.958  17.502  0.00  0.00    +0.000 HD
ENDROOT
BRANCH   1  10
ATOM      5  C   UNL     1       3.402   3.285  19.891  0.00  0.00    +0.000 A 
ATOM      6  C   UNL     1       2.116   2.938  20.364  0.00  0.00    +0.000 A 
ATOM      7  C   UNL     1       1.155   3.911  20.641  0.00  0.00    +0.000 A 
ATOM      8  C   UNL     1       1.456   5.250  20.451  0.00  0.00    +0.000 A 
ATOM      9  C   UNL     1       2.718   5.615  19.978  0.00  0.00    +0.000 A 
ATOM     10  C   UNL     1       3.696   4.643  19.679  0.00  0.00    +0.000 A 
BRANCH   5  12
ATOM     11  O   UNL     1       5.141   1.774  20.419  0.00  0.00    +0.000 OA
ATOM     12  C   UNL     1       4.286   2.113  19.616  0.00  0.00    +0.000 C 
BRANCH  12  13
ATOM     13  O   UNL     1       4.197   1.550  18.400  0.00  0.00    +0.000 OA
ATOM     14  H   UNL     1       3.294   1.297  18.099  0.00  0.00    +0.000 HD
ENDBRANCH  12  13
ENDBRANCH   5  12
ENDBRANCH   1  10
BRANCH   3  15
ATOM     15  C   UNL     1       6.231   6.540  17.569  0.00  0.00    +0.000 C 
BRANCH  15  16
ATOM     16  C   UNL     1       7.237   5.462  17.151  0.00  0.00    +0.000 C 
BRANCH  16  17
ATOM     17  C   UNL     1       6.844   4.834  15.839  0.00  0.00    +0.000 A 
ATOM     18  C   UNL     1       7.445   5.256  14.645  0.00  0.00    +0.000 A 
ATOM     19  C   UNL     1       7.017   4.739  13.420  0.00  0.00    +0.000 A 
ATOM     20  C   UNL     1       5.991   3.797  13.387  0.00  0.00    +0.000 A 
ATOM     21 CL   UNL     1       5.439   3.189  11.875  0.00  0.00    +0.000 Cl
ATOM     22  C   UNL     1       5.399   3.355  14.568  0.00  0.00    +0.000 A 
ATOM     23  C   UNL     1       5.826   3.872  15.793  0.00  0.00    +0.000 A 
ENDBRANCH  16  17
ENDBRANCH  15  16
ENDBRANCH   3  15
TORSDOF 6
ENDMDL
MODEL 5
REMARK VINA RESULT:      -7.1      2.852      3.970
REMARK  Name = 
REMARK  6 active torsions:
REMARK  status: ('A' for Active; 'I' for Inactive)
REMARK    1  A    between atoms: C_2  and  O_3
REMARK    2  A    between atoms: C_2  and  C_4
REMARK    3  A    between atoms: C_9  and  C_10
REMARK    4  A    between atoms: N_12  and  C_13
REMARK    5  A    between atoms: C_13  and  C_14
REMARK    6  A    between atoms: C_14  and  C_15
REMARK                            x       y       z     vdW  Elec       q    Type
REMARK                         _______ _______ _______ _____ _____    ______ ____
ROOT
ATOM      1  C   UNL     1       2.517   4.637  17.932  0.00  0.00    +0.000 C 
ATOM      2  O   UNL     1       1.634   4.031  17.338  0.00  0.00    +0.000 OA
ATOM      3  N   UNL     1       3.858   4.333  17.833  0.00  0.00    +0.000 N 
ATOM      4  H   UNL     1       4.539   4.993  18.188  0.00  0.00    +0.000 HD
ENDROOT
BRANCH   1  10
ATOM      5  C   UNL     1       1.712   5.506  20.194  0.00  0.00    +0.000 A 
ATOM      6  C   UNL     1       1.427   6.629  21.004  0.00  0.00    +0.000 A 
ATOM      7  C   UNL     1       1.594   7.930  20.531  0.00  0.00    +0.000 A 
ATOM      8  C   UNL     1       2.046   8.141  19.238  0.00  0.00    +0.000 A 
ATOM      9  C   UNL     1       2.328   7.047  18.418  0.00  0.00    +0.000 A 
ATOM     10  C   UNL     1       2.150   5.724  18.876  0.00  0.00    +0.000 A 
BRANCH   5  12
ATOM     11  O   UNL     1       2.164   3.787  21.751  0.00  0.00    +0.000 OA
ATOM     12  C   UNL     1       1.442   4.195  20.854  0.00  0.00    +0.000 C 
BRANCH  12  13
ATOM     13  O   UNL     1       0.475   3.429  20.324  0.00  0.00    +0.000 OA
ATOM     14  H   UNL     1       0.770   2.693  19.739  0.00  0.00    +0.000 HD
ENDBRANCH  12  13
ENDBRANCH   5  12
ENDBRANCH   1  10
BRANCH   3  15
ATOM     15  C   UNL     1       4.347   3.264  16.979  0.00  0.00    +0.000 C 
BRANCH  15  16
ATOM     16  C   UNL     1       5.587   3.703  16.193  0.00  0.00    +0.000 C 
BRANCH  16  17
ATOM     17  C   UNL     1       6.250   4.888  16.844  0.00  0.00    +0.000 A 
ATOM     18  C   UNL     1       5.995   6.185  16.378  0.00  0.00    +0.000 A 
ATOM     19  C   UNL     1       6.677   7.277  16.920  0.00  0.00    +0.000 A 
ATOM     20  C   UNL     1       7.613   7.073  17.933  0.00  0.00    +0.000 A 
ATOM     21 CL   UNL     1       8.480   8.414  18.575  0.00  0.00    +0.000 Cl
ATOM     22  C   UNL     1       7.861   5.791  18.419  0.00  0.00    +0.000 A 
ATOM     23  C   UNL     1       7.180   4.701  17.876  0.00  0.00    +0.000 A 
ENDBRANCH  16  17
ENDBRANCH  15  16
ENDBRANCH   3  15
TORSDOF 6
ENDMDL
MODEL 6
REMARK VINA RESULT:      -7.0      2.834      3.897
REMARK  Name = 
REMARK  6 active torsions:
REMARK  status: ('A' for Active; 'I' for Inactive)
REMARK    1  A    between atoms: C_2  and  O_3
REMARK    2  A    between atoms: C_2  and  C_4
REMARK    3  A    between atoms: C_9  and  C_10
REMARK    4  A    between atoms: N_12  and  C_13
REMARK    5  A    between atoms: C_13  and  C_14
REMARK    6  A    between atoms: C_14  and  C_15
REMARK                            x       y       z     vdW  Elec       q    Type
REMARK                         _______ _______ _______ _____ _____    ______ ____
ROOT
ATOM      1  C   UNL     1       2.577   4.556  17.923  0.00  0.00    +0.000 C 
ATOM      2  O   UNL     1       1.697   3.892  17.389  0.00  0.00    +0.000 OA
ATOM      3  N   UNL     1       3.925   4.297  17.788  0.00  0.00    +0.000 N 
ATOM      4  H   UNL     1       4.591   4.998  18.089  0.00  0.00    +0.000 HD
ENDROOT
BRANCH   1  10
ATOM      5  C   UNL     1       1.744   5.488  20.150  0.00  0.00    +0.000 A 
ATOM      6  C   UNL     1       1.452   6.632  20.926  0.00  0.00    +0.000 A 
ATOM      7  C   UNL     1       1.632   7.920  20.422  0.00  0.00    +0.000 A 
ATOM      8  C   UNL     1       2.105   8.095  19.130  0.00  0.00    +0.000 A 
ATOM      9  C   UNL     1       2.393   6.978  18.343  0.00  0.00    +0.000 A 
ATOM     10  C   UNL     1       2.202   5.669  18.833  0.00  0.00    +0.000 A 
BRANCH   5  12
ATOM     11  O   UNL     1       2.179   3.797  21.742  0.00  0.00    +0.000 OA
ATOM     12  C   UNL     1       1.458   4.195  20.839  0.00  0.00    +0.000 C 
BRANCH  12  13
ATOM     13  O   UNL     1       0.477   3.432  20.332  0.00  0.00    +0.000 OA
ATOM     14  H   UNL     1       0.746   2.759  19.664  0.00  0.00    +0.000 HD
ENDBRANCH  12  13
ENDBRANCH   5  12
ENDBRANCH   1  10
BRANCH   3  15
ATOM     15  C   UNL     1       4.424   3.211  16.962  0.00  0.00    +0.000 C 
BRANCH  15  16
ATOM     16  C   UNL     1       5.527   3.694  16.014  0.00  0.00    +0.000 C 
BRANCH  16  17
ATOM     17  C   UNL     1       6.308   4.827  16.625  0.00  0.00    +0.000 A 
ATOM     18  C   UNL     1       7.250   4.575  17.632  0.00  0.00    +0.000 A 
ATOM     19  C   UNL     1       7.909   5.633  18.263  0.00  0.00    +0.000 A 
ATOM     20  C   UNL     1       7.630   6.944  17.885  0.00  0.00    +0.000 A 
ATOM     21 CL   UNL     1       8.415   8.248  18.689  0.00  0.00    +0.000 Cl
ATOM     22  C   UNL     1       6.710   7.208  16.873  0.00  0.00    +0.000 A 
ATOM     23  C   UNL     1       6.051   6.151  16.243  0.00  0.00    +0.000 A 
ENDBRANCH  16  17
ENDBRANCH  15  16
ENDBRANCH   3  15
TORSDOF 6
ENDMDL
MODEL 7
REMARK VINA RESULT:      -7.0      1.555      1.840
REMARK  Name = 
REMARK  6 active torsions:
REMARK  status: ('A' for Active; 'I' for Inactive)
REMARK    1  A    between atoms: C_2  and  O_3
REMARK    2  A    between atoms: C_2  and  C_4
REMARK    3  A    between atoms: C_9  and  C_10
REMARK    4  A    between atoms: N_12  and  C_13
REMARK    5  A    between atoms: C_13  and  C_14
REMARK    6  A    between atoms: C_14  and  C_15
REMARK                            x       y       z     vdW  Elec       q    Type
REMARK                         _______ _______ _______ _____ _____    ______ ____
ROOT
ATOM      1  C   UNL     1       4.317   5.064  19.385  0.00  0.00    +0.000 C 
ATOM      2  O   UNL     1       4.081   6.212  19.738  0.00  0.00    +0.000 OA
ATOM      3  N   UNL     1       5.589   4.557  19.217  0.00  0.00    +0.000 N 
ATOM      4  H   UNL     1       5.710   3.556  19.121  0.00  0.00    +0.000 HD
ENDROOT
BRANCH   1  10
ATOM      5  C   UNL     1       2.879   2.985  19.747  0.00  0.00    +0.000 A 
ATOM      6  C   UNL     1       1.759   2.227  19.337  0.00  0.00    +0.000 A 
ATOM      7  C   UNL     1       0.954   2.634  18.273  0.00  0.00    +0.000 A 
ATOM      8  C   UNL     1       1.251   3.803  17.591  0.00  0.00    +0.000 A 
ATOM      9  C   UNL     1       2.358   4.564  17.974  0.00  0.00    +0.000 A 
ATOM     10  C   UNL     1       3.191   4.159  19.039  0.00  0.00    +0.000 A 
BRANCH   5  12
ATOM     11  O   UNL     1       3.186   2.386  22.012  0.00  0.00    +0.000 OA
ATOM     12  C   UNL     1       3.642   2.380  20.878  0.00  0.00    +0.000 C 
BRANCH  12  13
ATOM     13  O   UNL     1       4.896   1.971  20.624  0.00  0.00    +0.000 OA
ATOM     14  H   UNL     1       5.164   1.111  21.022  0.00  0.00    +0.000 HD
ENDBRANCH  12  13
ENDBRANCH   5  12
ENDBRANCH   1  10
BRANCH   3  15
ATOM     15  C   UNL     1       6.777   5.351  19.479  0.00  0.00    +0.000 C 
BRANCH  15  16
ATOM     16  C   UNL     1       7.151   6.210  18.265  0.00  0.00    +0.000 C 
BRANCH  16  17
ATOM     17  C   UNL     1       6.642   5.594  16.988  0.00  0.00    +0.000 A 
ATOM     18  C   UNL     1       7.221   4.418  16.491  0.00  0.00    +0.000 A 
ATOM     19  C   UNL     1       6.812   3.896  15.261  0.00  0.00    +0.000 A 
ATOM     20  C   UNL     1       5.821   4.547  14.530  0.00  0.00    +0.000 A 
ATOM     21 CL   UNL     1       5.344   3.923  12.998  0.00  0.00    +0.000 Cl
ATOM     22  C   UNL     1       5.223   5.705  15.022  0.00  0.00    +0.000 A 
ATOM     23  C   UNL     1       5.632   6.227  16.250  0.00  0.00    +0.000 A 
ENDBRANCH  16  17
ENDBRANCH  15  16
ENDBRANCH   3  15
TORSDOF 6
ENDMDL
MODEL 8
REMARK VINA RESULT:      -6.9      1.387      2.274
REMARK  Name = 
REMARK  6 active torsions:
REMARK  status: ('A' for Active; 'I' for Inactive)
REMARK    1  A    between atoms: C_2  and  O_3
REMARK    2  A    between atoms: C_2  and  C_4
REMARK    3  A    between atoms: C_9  and  C_10
REMARK    4  A    between atoms: N_12  and  C_13
REMARK    5  A    between atoms: C_13  and  C_14
REMARK    6  A    between atoms: C_14  and  C_15
REMARK                            x       y       z     vdW  Elec       q    Type
REMARK                         _______ _______ _______ _____ _____    ______ ____
ROOT
ATOM      1  C   UNL     1       4.626   3.777  19.644  0.00  0.00    +0.000 C 
ATOM      2  O   UNL     1       5.391   2.831  19.503  0.00  0.00    +0.000 OA
ATOM      3  N   UNL     1       5.016   5.098  19.574  0.00  0.00    +0.000 N 
ATOM      4  H   UNL     1       4.305   5.816  19.501  0.00  0.00    +0.000 HD
ENDROOT
BRANCH   1  10
ATOM      5  C   UNL     1       2.130   3.765  19.109  0.00  0.00    +0.000 A 
ATOM      6  C   UNL     1       0.822   3.446  19.539  0.00  0.00    +0.000 A 
ATOM      7  C   UNL     1       0.585   2.878  20.792  0.00  0.00    +0.000 A 
ATOM      8  C   UNL     1       1.648   2.619  21.643  0.00  0.00    +0.000 A 
ATOM      9  C   UNL     1       2.948   2.932  21.240  0.00  0.00    +0.000 A 
ATOM     10  C   UNL     1       3.203   3.521  19.983  0.00  0.00    +0.000 A 
BRANCH   5  12
ATOM     11  O   UNL     1       2.118   3.714  16.746  0.00  0.00    +0.000 OA
ATOM     12  C   UNL     1       2.188   4.396  17.757  0.00  0.00    +0.000 C 
BRANCH  12  13
ATOM     13  O   UNL     1       2.466   5.709  17.705  0.00  0.00    +0.000 OA
ATOM     14  H   UNL     1       2.923   6.092  18.489  0.00  0.00    +0.000 HD
ENDBRANCH  12  13
ENDBRANCH   5  12
ENDBRANCH   1  10
BRANCH   3  15
ATOM     15  C   UNL     1       6.387   5.485  19.293  0.00  0.00    +0.000 C 
BRANCH  15  16
ATOM     16  C   UNL     1       6.466   6.412  18.075  0.00  0.00    +0.000 C 
BRANCH  16  17
ATOM     17  C   UNL     1       6.236   5.647  16.797  0.00  0.00    +0.000 A 
ATOM     18  C   UNL     1       6.954   4.472  16.537  0.00  0.00    +0.000 A 
ATOM     19  C   UNL     1       6.808   3.813  15.314  0.00  0.00    +0.000 A 
ATOM     20  C   UNL     1       5.942   4.326  14.351  0.00  0.00    +0.000 A 
ATOM     21 CL   UNL     1       5.791   3.533  12.831  0.00  0.00    +0.000 Cl
ATOM     22  C   UNL     1       5.208   5.482  14.605  0.00  0.00    +0.000 A 
ATOM     23  C   UNL     1       5.354   6.142  15.826  0.00  0.00    +0.000 A 
ENDBRANCH  16  17
ENDBRANCH  15  16
ENDBRANCH   3  15
TORSDOF 6
ENDMDL
MODEL 9
REMARK VINA RESULT:      -6.9      5.368      7.204
REMARK  Name = 
REMARK  6 active torsions:
REMARK  status: ('A' for Active; 'I' for Inactive)
REMARK    1  A    between atoms: C_2  and  O_3
REMARK    2  A    between atoms: C_2  and  C_4
REMARK    3  A    between atoms: C_9  and  C_10
REMARK    4  A    between atoms: N_12  and  C_13
REMARK    5  A    between atoms: C_13  and  C_14
REMARK    6  A    between atoms: C_14  and  C_15
REMARK                            x       y       z     vdW  Elec       q    Type
REMARK                         _______ _______ _______ _____ _____    ______ ____
ROOT
ATOM      1  C   UNL     1       7.456   6.277  17.911  0.00  0.00    +0.000 C 
ATOM      2  O   UNL     1       7.738   5.812  19.008  0.00  0.00    +0.000 OA
ATOM      3  N   UNL     1       7.761   7.563  17.519  0.00  0.00    +0.000 N 
ATOM      4  H   UNL     1       7.678   7.811  16.540  0.00  0.00    +0.000 HD
ENDROOT
BRANCH   1  10
ATOM      5  C   UNL     1       5.551   4.689  17.300  0.00  0.00    +0.000 A 
ATOM      6  C   UNL     1       4.873   3.979  16.283  0.00  0.00    +0.000 A 
ATOM      7  C   UNL     1       5.282   4.048  14.951  0.00  0.00    +0.000 A 
ATOM      8  C   UNL     1       6.377   4.824  14.605  0.00  0.00    +0.000 A 
ATOM      9  C   UNL     1       7.066   5.528  15.595  0.00  0.00    +0.000 A 
ATOM     10  C   UNL     1       6.675   5.457  16.949  0.00  0.00    +0.000 A 
BRANCH   5  12
ATOM     11  O   UNL     1       4.175   5.241  19.140  0.00  0.00    +0.000 OA
ATOM     12  C   UNL     1       4.996   4.469  18.669  0.00  0.00    +0.000 C 
BRANCH  12  13
ATOM     13  O   UNL     1       5.542   3.486  19.402  0.00  0.00    +0.000 OA
ATOM     14  H   UNL     1       6.525   3.485  19.471  0.00  0.00    +0.000 HD
ENDBRANCH  12  13
ENDBRANCH   5  12
ENDBRANCH   1  10
BRANCH   3  15
ATOM     15  C   UNL     1       8.483   8.482  18.382  0.00  0.00    +0.000 C 
BRANCH  15  16
ATOM     16  C   UNL     1       8.141   9.940  18.052  0.00  0.00    +0.000 C 
BRANCH  16  17
ATOM     17  C   UNL     1       9.248  10.866  18.484  0.00  0.00    +0.000 A 
ATOM     18  C   UNL     1       9.719  10.838  19.804  0.00  0.00    +0.000 A 
ATOM     19  C   UNL     1      10.680  11.758  20.230  0.00  0.00    +0.000 A 
ATOM     20  C   UNL     1      11.176  12.703  19.335  0.00  0.00    +0.000 A 
ATOM     21 CL   UNL     1      12.333  13.859  19.870  0.00  0.00    +0.000 Cl
ATOM     22  C   UNL     1      10.731  12.729  18.015  0.00  0.00    +0.000 A 
ATOM     23  C   UNL     1       9.770  11.811  17.590  0.00  0.00    +0.000 A 
ENDBRANCH  16  17
ENDBRANCH  15  16
ENDBRANCH   3  15
TORSDOF 6
ENDMDL
