MODEL 1
REMARK VINA RESULT:      -7.8      0.000      0.000
REMARK  Name = 
REMARK  7 active torsions:
REMARK  status: ('A' for Active; 'I' for Inactive)
REMARK    1  A    between atoms: C_1  and  C_2
REMARK    2  A    between atoms: N_4  and  C_5
REMARK    3  A    between atoms: C_7  and  C_8
REMARK    4  A    between atoms: C_12  and  N_13
REMARK    5  A    between atoms: N_16  and  C_17
REMARK    6  A    between atoms: C_22  and  C_23
REMARK    7  A    between atoms: C_23  and  C_24
REMARK                            x       y       z     vdW  Elec       q    Type
REMARK                         _______ _______ _______ _____ _____    ______ ____
ROOT
ATOM      1  N   UNL     1       4.515   4.309  15.954  0.00  0.00    +0.000 N 
ATOM      2  C   UNL     1       4.076   3.945  17.215  0.00  0.00    +0.000 C 
ATOM      3  O   UNL     1       4.850   3.641  18.114  0.00  0.00    +0.000 OA
ATOM      4  N   UNL     1       2.698   3.925  17.318  0.00  0.00    +0.000 N 
ATOM      5  H   UNL     1       3.907   4.921  15.435  0.00  0.00    +0.000 HD
ATOM      6  H   UNL     1       2.225   3.579  16.490  0.00  0.00    +0.000 HD
ENDROOT
BRANCH   4   7
ATOM      7  C   UNL     1       2.072   3.658  18.566  0.00  0.00    +0.000 A 
ATOM      8  C   UNL     1       1.562   2.370  18.803  0.00  0.00    +0.000 A 
ATOM      9  C   UNL     1       1.014   2.030  20.041  0.00  0.00    +0.000 A 
ATOM     10  C   UNL     1       0.972   2.971  21.063  0.00  0.00    +0.000 A 
ATOM     11  C   UNL     1       1.459   4.258  20.836  0.00  0.00    +0.000 A 
ATOM     12  C   UNL     1       2.000   4.626  19.585  0.00  0.00    +0.000 A 
BRANCH  12  13
ATOM     13  C   UNL     1       2.367   6.079  19.373  0.00  0.00    +0.000 C 
ATOM     14  C   UNL     1       1.750   6.994  20.426  0.00  0.00    +0.000 C 
ATOM     15  F   UNL     1       3.720   6.278  19.416  0.00  0.00    +0.000 F 
ATOM     16  F   UNL     1       1.980   6.543  18.146  0.00  0.00    +0.000 F 
ENDBRANCH  12  13
ENDBRANCH   4   7
BRANCH   1  21
ATOM     17  C   UNL     1       6.695   5.665  15.837  0.00  0.00    +0.000 C 
ATOM     18  O   UNL     1       7.701   5.733  14.799  0.00  0.00    +0.000 OA
ATOM     19  C   UNL     1       7.586   4.576  13.964  0.00  0.00    +0.000 C 
ATOM     20  C   UNL     1       6.189   4.045  14.167  0.00  0.00    +0.000 C 
ATOM     21  C   UNL     1       5.953   4.313  15.645  0.00  0.00    +0.000 C 
BRANCH  17  28
ATOM     22  C   UNL     1       7.594   8.503  17.298  0.00  0.00    +0.000 C 
ATOM     23  C   UNL     1       7.705   7.112  17.817  0.00  0.00    +0.000 A 
ATOM     24  N   UNL     1       8.224   6.915  19.039  0.00  0.00    +0.000 NA
ATOM     25  N   UNL     1       8.163   5.590  19.211  0.00  0.00    +0.000 N 
ATOM     26  C   UNL     1       8.688   4.992  20.413  0.00  0.00    +0.000 C 
ATOM     27  C   UNL     1       7.587   4.932  18.166  0.00  0.00    +0.000 A 
ATOM     28  C   UNL     1       7.316   5.880  17.198  0.00  0.00    +0.000 A 
ENDBRANCH  17  28
ENDBRANCH   1  21
TORSDOF 4
ENDMDL
MODEL 2
REMARK VINA RESULT:      -7.5      4.347      7.742
REMARK  Name = 
REMARK  7 active torsions:
REMARK  status: ('A' for Active; 'I' for Inactive)
REMARK    1  A    between atoms: C_1  and  C_2
REMARK    2  A    between atoms: N_4  and  C_5
REMARK    3  A    between atoms: C_7  and  C_8
REMARK    4  A    between atoms: C_12  and  N_13
REMARK    5  A    between atoms: N_16  and  C_17
REMARK    6  A    between atoms: C_22  and  C_23
REMARK    7  A    between atoms: C_23  and  C_24
REMARK                            x       y       z     vdW  Elec       q    Type
REMARK                         _______ _______ _______ _____ _____    ______ ____
ROOT
ATOM      1  N   UNL     1       1.576   8.031  21.241  0.00  0.00    +0.000 N 
ATOM      2  C   UNL     1       1.392   6.729  20.809  0.00  0.00    +0.000 C 
ATOM      3  O   UNL     1       0.279   6.240  20.664  0.00  0.00    +0.000 OA
ATOM      4  N   UNL     1       2.582   6.056  20.612  0.00  0.00    +0.000 N 
ATOM      5  H   UNL     1       2.428   8.478  20.943  0.00  0.00    +0.000 HD
ATOM      6  H   UNL     1       3.301   6.273  21.294  0.00  0.00    +0.000 HD
ENDROOT
BRANCH   4   7
ATOM      7  C   UNL     1       2.586   4.736  20.085  0.00  0.00    +0.000 A 
ATOM      8  C   UNL     1       1.972   3.712  20.828  0.00  0.00    +0.000 A 
ATOM      9  C   UNL     1       1.872   2.415  20.319  0.00  0.00    +0.000 A 
ATOM     10  C   UNL     1       2.380   2.124  19.058  0.00  0.00    +0.000 A 
ATOM     11  C   UNL     1       3.008   3.126  18.319  0.00  0.00    +0.000 A 
ATOM     12  C   UNL     1       3.134   4.439  18.824  0.00  0.00    +0.000 A 
BRANCH  12  13
ATOM     13  C   UNL     1       3.958   5.427  18.026  0.00  0.00    +0.000 C 
ATOM     14  C   UNL     1       4.554   4.804  16.768  0.00  0.00    +0.000 C 
ATOM     15  F   UNL     1       3.219   6.506  17.626  0.00  0.00    +0.000 F 
ATOM     16  F   UNL     1       4.989   5.955  18.753  0.00  0.00    +0.000 F 
ENDBRANCH  12  13
ENDBRANCH   4   7
BRANCH   1  21
ATOM     17  C   UNL     1       0.383  10.286  20.926  0.00  0.00    +0.000 C 
ATOM     18  O   UNL     1      -0.224  11.168  21.900  0.00  0.00    +0.000 OA
ATOM     19  C   UNL     1      -0.500  10.424  23.092  0.00  0.00    +0.000 C 
ATOM     20  C   UNL     1       0.399   9.213  23.052  0.00  0.00    +0.000 C 
ATOM     21  C   UNL     1       0.415   8.872  21.570  0.00  0.00    +0.000 C 
BRANCH  17  28
ATOM     22  C   UNL     1       1.367   9.225  17.943  0.00  0.00    +0.000 C 
ATOM     23  C   UNL     1       0.106   9.923  18.313  0.00  0.00    +0.000 A 
ATOM     24  N   UNL     1      -0.799  10.179  17.357  0.00  0.00    +0.000 NA
ATOM     25  N   UNL     1      -1.803  10.779  18.007  0.00  0.00    +0.000 N 
ATOM     26  C   UNL     1      -2.954  11.254  17.281  0.00  0.00    +0.000 C 
ATOM     27  C   UNL     1      -1.596  10.880  19.350  0.00  0.00    +0.000 A 
ATOM     28  C   UNL     1      -0.332  10.381  19.599  0.00  0.00    +0.000 A 
ENDBRANCH  17  28
ENDBRANCH   1  21
TORSDOF 4
ENDMDL
MODEL 3
REMARK VINA RESULT:      -7.4      3.233      5.123
REMARK  Name = 
REMARK  7 active torsions:
REMARK  status: ('A' for Active; 'I' for Inactive)
REMARK    1  A    between atoms: C_1  and  C_2
REMARK    2  A    between atoms: N_4  and  C_5
REMARK    3  A    between atoms: C_7  and  C_8
REMARK    4  A    between atoms: C_12  and  N_13
REMARK    5  A    between atoms: N_16  and  C_17
REMARK    6  A    between atoms: C_22  and  C_23
REMARK    7  A    between atoms: C_23  and  C_24
REMARK                            x       y       z     vdW  Elec       q    Type
REMARK                         _______ _______ _______ _____ _____    ______ ____
ROOT
ATOM      1  N   UNL     1       2.612   6.824  18.547  0.00  0.00    +0.000 N 
ATOM      2  C   UNL     1       1.853   7.247  19.624  0.00  0.00    +0.000 C 
ATOM      3  O   UNL     1       1.501   6.485  20.515  0.00  0.00    +0.000 OA
ATOM      4  N   UNL     1       1.515   8.585  19.548  0.00  0.00    +0.000 N 
ATOM      5  H   UNL     1       3.193   7.523  18.114  0.00  0.00    +0.000 HD
ATOM      6  H   UNL     1       1.299   8.906  18.611  0.00  0.00    +0.000 HD
ENDROOT
BRANCH   4   7
ATOM      7  C   UNL     1       0.810   9.211  20.612  0.00  0.00    +0.000 A 
ATOM      8  C   UNL     1       1.045   8.773  21.927  0.00  0.00    +0.000 A 
ATOM      9  C   UNL     1       0.444   9.411  23.015  0.00  0.00    +0.000 A 
ATOM     10  C   UNL     1      -0.396  10.498  22.804  0.00  0.00    +0.000 A 
ATOM     11  C   UNL     1      -0.652  10.931  21.504  0.00  0.00    +0.000 A 
ATOM     12  C   UNL     1      -0.068  10.289  20.390  0.00  0.00    +0.000 A 
BRANCH  12  13
ATOM     13  C   UNL     1      -0.512  10.723  19.010  0.00  0.00    +0.000 C 
ATOM     14  C   UNL     1      -1.588  11.804  19.059  0.00  0.00    +0.000 C 
ATOM     15  F   UNL     1       0.524  11.225  18.271  0.00  0.00    +0.000 F 
ATOM     16  F   UNL     1      -1.005   9.685  18.269  0.00  0.00    +0.000 F 
ENDBRANCH  12  13
ENDBRANCH   4   7
BRANCH   1  21
ATOM     17  C   UNL     1       4.005   5.065  17.292  0.00  0.00    +0.000 C 
ATOM     18  O   UNL     1       3.636   3.754  16.801  0.00  0.00    +0.000 OA
ATOM     19  C   UNL     1       2.465   3.311  17.495  0.00  0.00    +0.000 C 
ATOM     20  C   UNL     1       1.806   4.551  18.046  0.00  0.00    +0.000 C 
ATOM     21  C   UNL     1       3.001   5.410  18.428  0.00  0.00    +0.000 C 
BRANCH  17  28
ATOM     22  C   UNL     1       6.674   4.399  15.440  0.00  0.00    +0.000 C 
ATOM     23  C   UNL     1       6.611   4.804  16.871  0.00  0.00    +0.000 A 
ATOM     24  N   UNL     1       7.755   4.944  17.557  0.00  0.00    +0.000 NA
ATOM     25  N   UNL     1       7.362   5.329  18.776  0.00  0.00    +0.000 N 
ATOM     26  C   UNL     1       8.336   5.531  19.820  0.00  0.00    +0.000 C 
ATOM     27  C   UNL     1       6.013   5.484  18.888  0.00  0.00    +0.000 A 
ATOM     28  C   UNL     1       5.465   5.099  17.680  0.00  0.00    +0.000 A 
ENDBRANCH  17  28
ENDBRANCH   1  21
TORSDOF 4
ENDMDL
MODEL 4
REMARK VINA RESULT:      -7.4      5.290      7.939
REMARK  Name = 
REMARK  7 active torsions:
REMARK  status: ('A' for Active; 'I' for Inactive)
REMARK    1  A    between atoms: C_1  and  C_2
REMARK    2  A    between atoms: N_4  and  C_5
REMARK    3  A    between atoms: C_7  and  C_8
REMARK    4  A    between atoms: C_12  and  N_13
REMARK    5  A    between atoms: N_16  and  C_17
REMARK    6  A    between atoms: C_22  and  C_23
REMARK    7  A    between atoms: C_23  and  C_24
REMARK                            x       y       z     vdW  Elec       q    Type
REMARK                         _______ _______ _______ _____ _____    ______ ____
ROOT
ATOM      1  N   UNL     1       1.045   9.131  19.145  0.00  0.00    +0.000 N 
ATOM      2  C   UNL     1       1.881   8.492  18.245  0.00  0.00    +0.000 C 
ATOM      3  O   UNL     1       2.077   8.922  17.116  0.00  0.00    +0.000 OA
ATOM      4  N   UNL     1       2.415   7.321  18.748  0.00  0.00    +0.000 N 
ATOM      5  H   UNL     1       1.252   8.984  20.119  0.00  0.00    +0.000 HD
ATOM      6  H   UNL     1       1.773   6.785  19.323  0.00  0.00    +0.000 HD
ENDROOT
BRANCH   4   7
ATOM      7  C   UNL     1       3.363   6.578  17.994  0.00  0.00    +0.000 A 
ATOM      8  C   UNL     1       4.521   7.230  17.537  0.00  0.00    +0.000 A 
ATOM      9  C   UNL     1       5.525   6.528  16.866  0.00  0.00    +0.000 A 
ATOM     10  C   UNL     1       5.386   5.163  16.646  0.00  0.00    +0.000 A 
ATOM     11  C   UNL     1       4.234   4.507  17.077  0.00  0.00    +0.000 A 
ATOM     12  C   UNL     1       3.201   5.203  17.742  0.00  0.00    +0.000 A 
BRANCH  12  13
ATOM     13  C   UNL     1       1.922   4.451  18.044  0.00  0.00    +0.000 C 
ATOM     14  C   UNL     1       2.081   2.943  17.876  0.00  0.00    +0.000 C 
ATOM     15  F   UNL     1       1.489   4.668  19.323  0.00  0.00    +0.000 F 
ATOM     16  F   UNL     1       0.883   4.847  17.248  0.00  0.00    +0.000 F 
ENDBRANCH  12  13
ENDBRANCH   4   7
BRANCH   1  21
ATOM     17  C   UNL     1      -0.317  11.176  19.899  0.00  0.00    +0.000 C 
ATOM     18  O   UNL     1      -1.541  11.735  19.363  0.00  0.00    +0.000 OA
ATOM     19  C   UNL     1      -1.713  11.273  18.019  0.00  0.00    +0.000 C 
ATOM     20  C   UNL     1      -0.877  10.024  17.891  0.00  0.00    +0.000 C 
ATOM     21  C   UNL     1       0.333  10.356  18.749  0.00  0.00    +0.000 C 
BRANCH  17  28
ATOM     22  C   UNL     1      -0.888  13.075  22.556  0.00  0.00    +0.000 C 
ATOM     23  C   UNL     1       0.289  13.078  21.645  0.00  0.00    +0.000 A 
ATOM     24  N   UNL     1       1.292  13.936  21.883  0.00  0.00    +0.000 NA
ATOM     25  N   UNL     1       2.184  13.674  20.921  0.00  0.00    +0.000 N 
ATOM     26  C   UNL     1       3.394  14.452  20.825  0.00  0.00    +0.000 C 
ATOM     27  C   UNL     1       1.812  12.653  20.100  0.00  0.00    +0.000 A 
ATOM     28  C   UNL     1       0.549  12.259  20.497  0.00  0.00    +0.000 A 
ENDBRANCH  17  28
ENDBRANCH   1  21
TORSDOF 4
ENDMDL
MODEL 5
REMARK VINA RESULT:      -7.3      4.927      7.942
REMARK  Name = 
REMARK  7 active torsions:
REMARK  status: ('A' for Active; 'I' for Inactive)
REMARK    1  A    between atoms: C_1  and  C_2
REMARK    2  A    between atoms: N_4  and  C_5
REMARK    3  A    between atoms: C_7  and  C_8
REMARK    4  A    between atoms: C_12  and  N_13
REMARK    5  A    between atoms: N_16  and  C_17
REMARK    6  A    between atoms: C_22  and  C_23
REMARK    7  A    between atoms: C_23  and  C_24
REMARK                            x       y       z     vdW  Elec       q    Type
REMARK                         _______ _______ _______ _____ _____    ______ ____
ROOT
ATOM      1  N   UNL     1       1.442   8.481  21.542  0.00  0.00    +0.000 N 
ATOM      2  C   UNL     1       1.627   7.783  20.362  0.00  0.00    +0.000 C 
ATOM      3  O   UNL     1       0.951   7.994  19.364  0.00  0.00    +0.000 OA
ATOM      4  N   UNL     1       2.610   6.816  20.460  0.00  0.00    +0.000 N 
ATOM      5  H   UNL     1       2.250   8.564  22.138  0.00  0.00    +0.000 HD
ATOM      6  H   UNL     1       2.630   6.332  21.351  0.00  0.00    +0.000 HD
ENDROOT
BRANCH   4   7
ATOM      7  C   UNL     1       2.995   6.061  19.319  0.00  0.00    +0.000 A 
ATOM      8  C   UNL     1       3.733   6.697  18.306  0.00  0.00    +0.000 A 
ATOM      9  C   UNL     1       4.209   5.982  17.205  0.00  0.00    +0.000 A 
ATOM     10  C   UNL     1       3.959   4.619  17.103  0.00  0.00    +0.000 A 
ATOM     11  C   UNL     1       3.212   3.978  18.092  0.00  0.00    +0.000 A 
ATOM     12  C   UNL     1       2.707   4.688  19.203  0.00  0.00    +0.000 A 
BRANCH  12  13
ATOM     13  C   UNL     1       1.783   3.954  20.151  0.00  0.00    +0.000 C 
ATOM     14  C   UNL     1       1.537   2.510  19.721  0.00  0.00    +0.000 C 
ATOM     15  F   UNL     1       2.281   3.912  21.424  0.00  0.00    +0.000 F 
ATOM     16  F   UNL     1       0.564   4.562  20.268  0.00  0.00    +0.000 F 
ENDBRANCH  12  13
ENDBRANCH   4   7
BRANCH   1  21
ATOM     17  C   UNL     1       0.859  10.972  21.792  0.00  0.00    +0.000 C 
ATOM     18  O   UNL     1      -0.104  11.626  22.653  0.00  0.00    +0.000 OA
ATOM     19  C   UNL     1      -1.074  10.665  23.080  0.00  0.00    +0.000 C 
ATOM     20  C   UNL     1      -0.431   9.311  22.909  0.00  0.00    +0.000 C 
ATOM     21  C   UNL     1       0.385   9.499  21.640  0.00  0.00    +0.000 C 
BRANCH  17  28
ATOM     22  C   UNL     1      -1.060  10.965  19.088  0.00  0.00    +0.000 C 
ATOM     23  C   UNL     1       0.196  11.724  19.336  0.00  0.00    +0.000 A 
ATOM     24  N   UNL     1       0.663  12.538  18.378  0.00  0.00    +0.000 NA
ATOM     25  N   UNL     1       1.765  13.075  18.912  0.00  0.00    +0.000 N 
ATOM     26  C   UNL     1       2.577  13.980  18.137  0.00  0.00    +0.000 C 
ATOM     27  C   UNL     1       2.002  12.670  20.191  0.00  0.00    +0.000 A 
ATOM     28  C   UNL     1       1.031  11.738  20.502  0.00  0.00    +0.000 A 
ENDBRANCH  17  28
ENDBRANCH   1  21
TORSDOF 4
ENDMDL
MODEL 6
REMARK VINA RESULT:      -7.3      3.231      5.505
REMARK  Name = 
REMARK  7 active torsions:
REMARK  status: ('A' for Active; 'I' for Inactive)
REMARK    1  A    between atoms: C_1  and  C_2
REMARK    2  A    between atoms: N_4  and  C_5
REMARK    3  A    between atoms: C_7  and  C_8
REMARK    4  A    between atoms: C_12  and  N_13
REMARK    5  A    between atoms: N_16  and  C_17
REMARK    6  A    between atoms: C_22  and  C_23
REMARK    7  A    between atoms: C_23  and  C_24
REMARK                            x       y       z     vdW  Elec       q    Type
REMARK                         _______ _______ _______ _____ _____    ______ ____
ROOT
ATOM      1  N   UNL     1       2.468   5.528  20.861  0.00  0.00    +0.000 N 
ATOM      2  C   UNL     1       2.027   6.600  20.105  0.00  0.00    +0.000 C 
ATOM      3  O   UNL     1       1.967   6.557  18.883  0.00  0.00    +0.000 OA
ATOM      4  N   UNL     1       1.717   7.706  20.872  0.00  0.00    +0.000 N 
ATOM      5  H   UNL     1       2.108   5.474  21.800  0.00  0.00    +0.000 HD
ATOM      6  H   UNL     1       2.340   7.855  21.659  0.00  0.00    +0.000 HD
ENDROOT
BRANCH   4   7
ATOM      7  C   UNL     1       1.166   8.870  20.270  0.00  0.00    +0.000 A 
ATOM      8  C   UNL     1       1.554   9.200  18.960  0.00  0.00    +0.000 A 
ATOM      9  C   UNL     1       0.980  10.283  18.291  0.00  0.00    +0.000 A 
ATOM     10  C   UNL     1       0.007  11.049  18.920  0.00  0.00    +0.000 A 
ATOM     11  C   UNL     1      -0.375  10.745  20.226  0.00  0.00    +0.000 A 
ATOM     12  C   UNL     1       0.207   9.664  20.925  0.00  0.00    +0.000 A 
BRANCH  12  13
ATOM     13  C   UNL     1      -0.152   9.492  22.386  0.00  0.00    +0.000 C 
ATOM     14  C   UNL     1      -0.961  10.667  22.928  0.00  0.00    +0.000 C 
ATOM     15  F   UNL     1      -0.892   8.363  22.603  0.00  0.00    +0.000 F 
ATOM     16  F   UNL     1       0.951   9.350  23.181  0.00  0.00    +0.000 F 
ENDBRANCH  12  13
ENDBRANCH   4   7
BRANCH   1  21
ATOM     17  C   UNL     1       3.322   4.416  18.707  0.00  0.00    +0.000 C 
ATOM     18  O   UNL     1       2.915   3.184  18.065  0.00  0.00    +0.000 OA
ATOM     19  C   UNL     1       2.241   2.361  19.022  0.00  0.00    +0.000 C 
ATOM     20  C   UNL     1       1.773   3.285  20.119  0.00  0.00    +0.000 C 
ATOM     21  C   UNL     1       2.911   4.290  20.201  0.00  0.00    +0.000 C 
BRANCH  17  28
ATOM     22  C   UNL     1       5.070   4.025  15.917  0.00  0.00    +0.000 C 
ATOM     23  C   UNL     1       5.532   4.515  17.244  0.00  0.00    +0.000 A 
ATOM     24  N   UNL     1       6.817   4.869  17.394  0.00  0.00    +0.000 NA
ATOM     25  N   UNL     1       6.900   5.276  18.665  0.00  0.00    +0.000 N 
ATOM     26  C   UNL     1       8.168   5.691  19.211  0.00  0.00    +0.000 C 
ATOM     27  C   UNL     1       5.709   5.237  19.326  0.00  0.00    +0.000 A 
ATOM     28  C   UNL     1       4.785   4.692  18.455  0.00  0.00    +0.000 A 
ENDBRANCH  17  28
ENDBRANCH   1  21
TORSDOF 4
ENDMDL
MODEL 7
REMARK VINA RESULT:      -7.3      5.185      7.668
REMARK  Name = 
REMARK  7 active torsions:
REMARK  status: ('A' for Active; 'I' for Inactive)
REMARK    1  A    between atoms: C_1  and  C_2
REMARK    2  A    between atoms: N_4  and  C_5
REMARK    3  A    between atoms: C_7  and  C_8
REMARK    4  A    between atoms: C_12  and  N_13
REMARK    5  A    between atoms: N_16  and  C_17
REMARK    6  A    between atoms: C_22  and  C_23
REMARK    7  A    between atoms: C_23  and  C_24
REMARK                            x       y       z     vdW  Elec       q    Type
REMARK                         _______ _______ _______ _____ _____    ______ ____
ROOT
ATOM      1  N   UNL     1       1.243   9.213  19.065  0.00  0.00    +0.000 N 
ATOM      2  C   UNL     1       2.016   8.486  18.176  0.00  0.00    +0.000 C 
ATOM      3  O   UNL     1       2.120   8.796  16.996  0.00  0.00    +0.000 OA
ATOM      4  N   UNL     1       2.601   7.377  18.756  0.00  0.00    +0.000 N 
ATOM      5  H   UNL     1       1.525   9.170  20.031  0.00  0.00    +0.000 HD
ATOM      6  H   UNL     1       2.012   6.901  19.431  0.00  0.00    +0.000 HD
ENDROOT
BRANCH   4   7
ATOM      7  C   UNL     1       3.499   6.564  18.013  0.00  0.00    +0.000 A 
ATOM      8  C   UNL     1       4.696   7.133  17.544  0.00  0.00    +0.000 A 
ATOM      9  C   UNL     1       5.651   6.358  16.883  0.00  0.00    +0.000 A 
ATOM     10  C   UNL     1       5.426   5.001  16.685  0.00  0.00    +0.000 A 
ATOM     11  C   UNL     1       4.235   4.426  17.129  0.00  0.00    +0.000 A 
ATOM     12  C   UNL     1       3.250   5.198  17.784  0.00  0.00    +0.000 A 
BRANCH  12  13
ATOM     13  C   UNL     1       1.926   4.534  18.099  0.00  0.00    +0.000 C 
ATOM     14  C   UNL     1       1.990   3.016  17.961  0.00  0.00    +0.000 C 
ATOM     15  F   UNL     1       1.509   4.802  19.374  0.00  0.00    +0.000 F 
ATOM     16  F   UNL     1       0.914   4.978  17.295  0.00  0.00    +0.000 F 
ENDBRANCH  12  13
ENDBRANCH   4   7
BRANCH   1  21
ATOM     17  C   UNL     1       0.349  11.560  19.608  0.00  0.00    +0.000 C 
ATOM     18  O   UNL     1      -0.961  12.137  19.390  0.00  0.00    +0.000 OA
ATOM     19  C   UNL     1      -1.642  11.376  18.388  0.00  0.00    +0.000 C 
ATOM     20  C   UNL     1      -0.969  10.026  18.351  0.00  0.00    +0.000 C 
ATOM     21  C   UNL     1       0.488  10.386  18.599  0.00  0.00    +0.000 C 
BRANCH  17  28
ATOM     22  C   UNL     1       0.943  14.096  21.661  0.00  0.00    +0.000 C 
ATOM     23  C   UNL     1       1.666  13.717  20.416  0.00  0.00    +0.000 A 
ATOM     24  N   UNL     1       2.713  14.456  20.022  0.00  0.00    +0.000 NA
ATOM     25  N   UNL     1       3.143  13.851  18.910  0.00  0.00    +0.000 N 
ATOM     26  C   UNL     1       4.246  14.405  18.165  0.00  0.00    +0.000 C 
ATOM     27  C   UNL     1       2.440  12.727  18.597  0.00  0.00    +0.000 A 
ATOM     28  C   UNL     1       1.421  12.621  19.524  0.00  0.00    +0.000 A 
ENDBRANCH  17  28
ENDBRANCH   1  21
TORSDOF 4
ENDMDL
MODEL 8
REMARK VINA RESULT:      -7.2      2.925      5.149
REMARK  Name = 
REMARK  7 active torsions:
REMARK  status: ('A' for Active; 'I' for Inactive)
REMARK    1  A    between atoms: C_1  and  C_2
REMARK    2  A    between atoms: N_4  and  C_5
REMARK    3  A    between atoms: C_7  and  C_8
REMARK    4  A    between atoms: C_12  and  N_13
REMARK    5  A    between atoms: N_16  and  C_17
REMARK    6  A    between atoms: C_22  and  C_23
REMARK    7  A    between atoms: C_23  and  C_24
REMARK                            x       y       z     vdW  Elec       q    Type
REMARK                         _______ _______ _______ _____ _____    ______ ____
ROOT
ATOM      1  N   UNL     1       2.127   5.789  18.303  0.00  0.00    +0.000 N 
ATOM      2  C   UNL     1       2.329   7.052  18.833  0.00  0.00    +0.000 C 
ATOM      3  O   UNL     1       3.364   7.362  19.407  0.00  0.00    +0.000 OA
ATOM      4  N   UNL     1       1.233   7.880  18.678  0.00  0.00    +0.000 N 
ATOM      5  H   UNL     1       1.491   5.734  17.524  0.00  0.00    +0.000 HD
ATOM      6  H   UNL     1       0.340   7.412  18.791  0.00  0.00    +0.000 HD
ENDROOT
BRANCH   4   7
ATOM      7  C   UNL     1       1.294   9.240  19.085  0.00  0.00    +0.000 A 
ATOM      8  C   UNL     1       1.795  10.193  18.182  0.00  0.00    +0.000 A 
ATOM      9  C   UNL     1       1.797  11.553  18.499  0.00  0.00    +0.000 A 
ATOM     10  C   UNL     1       1.295  11.980  19.722  0.00  0.00    +0.000 A 
ATOM     11  C   UNL     1       0.811  11.044  20.635  0.00  0.00    +0.000 A 
ATOM     12  C   UNL     1       0.817   9.663  20.340  0.00  0.00    +0.000 A 
BRANCH  12  13
ATOM     13  C   UNL     1       0.416   8.703  21.439  0.00  0.00    +0.000 C 
ATOM     14  C   UNL     1       0.089   9.420  22.746  0.00  0.00    +0.000 C 
ATOM     15  F   UNL     1      -0.687   7.967  21.101  0.00  0.00    +0.000 F 
ATOM     16  F   UNL     1       1.388   7.780  21.708  0.00  0.00    +0.000 F 
ENDBRANCH  12  13
ENDBRANCH   4   7
BRANCH   1  21
ATOM     17  C   UNL     1       3.953   4.392  17.154  0.00  0.00    +0.000 C 
ATOM     18  O   UNL     1       4.234   2.974  17.230  0.00  0.00    +0.000 OA
ATOM     19  C   UNL     1       3.629   2.443  18.414  0.00  0.00    +0.000 C 
ATOM     20  C   UNL     1       2.544   3.415  18.806  0.00  0.00    +0.000 C 
ATOM     21  C   UNL     1       3.164   4.755  18.443  0.00  0.00    +0.000 C 
BRANCH  17  28
ATOM     22  C   UNL     1       6.145   4.143  14.679  0.00  0.00    +0.000 C 
ATOM     23  C   UNL     1       6.167   5.057  15.853  0.00  0.00    +0.000 A 
ATOM     24  N   UNL     1       7.180   5.927  15.980  0.00  0.00    +0.000 NA
ATOM     25  N   UNL     1       6.896   6.601  17.099  0.00  0.00    +0.000 N 
ATOM     26  C   UNL     1       7.807   7.605  17.590  0.00  0.00    +0.000 C 
ATOM     27  C   UNL     1       5.719   6.227  17.674  0.00  0.00    +0.000 A 
ATOM     28  C   UNL     1       5.224   5.177  16.926  0.00  0.00    +0.000 A 
ENDBRANCH  17  28
ENDBRANCH   1  21
TORSDOF 4
ENDMDL
MODEL 9
REMARK VINA RESULT:      -7.1      4.432      7.909
REMARK  Name = 
REMARK  7 active torsions:
REMARK  status: ('A' for Active; 'I' for Inactive)
REMARK    1  A    between atoms: C_1  and  C_2
REMARK    2  A    between atoms: N_4  and  C_5
REMARK    3  A    between atoms: C_7  and  C_8
REMARK    4  A    between atoms: C_12  and  N_13
REMARK    5  A    between atoms: N_16  and  C_17
REMARK    6  A    between atoms: C_22  and  C_23
REMARK    7  A    between atoms: C_23  and  C_24
REMARK                            x       y       z     vdW  Elec       q    Type
REMARK                         _______ _______ _______ _____ _____    ______ ____
ROOT
ATOM      1  N   UNL     1       1.646   8.205  21.455  0.00  0.00    +0.000 N 
ATOM      2  C   UNL     1       1.674   7.241  20.462  0.00  0.00    +0.000 C 
ATOM      3  O   UNL     1       0.706   7.006  19.751  0.00  0.00    +0.000 OA
ATOM      4  N   UNL     1       2.879   6.566  20.404  0.00  0.00    +0.000 N 
ATOM      5  H   UNL     1       2.532   8.621  21.690  0.00  0.00    +0.000 HD
ATOM      6  H   UNL     1       3.296   6.382  21.310  0.00  0.00    +0.000 HD
ENDROOT
BRANCH   4   7
ATOM      7  C   UNL     1       3.116   5.601  19.387  0.00  0.00    +0.000 A 
ATOM      8  C   UNL     1       3.776   6.006  18.214  0.00  0.00    +0.000 A 
ATOM      9  C   UNL     1       4.111   5.082  17.222  0.00  0.00    +0.000 A 
ATOM     10  C   UNL     1       3.794   3.739  17.390  0.00  0.00    +0.000 A 
ATOM     11  C   UNL     1       3.123   3.327  18.541  0.00  0.00    +0.000 A 
ATOM     12  C   UNL     1       2.761   4.249  19.547  0.00  0.00    +0.000 A 
BRANCH  12  13
ATOM     13  C   UNL     1       1.905   3.748  20.691  0.00  0.00    +0.000 C 
ATOM     14  C   UNL     1       1.894   2.225  20.784  0.00  0.00    +0.000 C 
ATOM     15  F   UNL     1       2.337   4.219  21.900  0.00  0.00    +0.000 F 
ATOM     16  F   UNL     1       0.606   4.164  20.593  0.00  0.00    +0.000 F 
ENDBRANCH  12  13
ENDBRANCH   4   7
BRANCH   1  21
ATOM     17  C   UNL     1       0.297  10.341  20.982  0.00  0.00    +0.000 C 
ATOM     18  O   UNL     1      -0.404  11.226  21.888  0.00  0.00    +0.000 OA
ATOM     19  C   UNL     1      -0.659  10.530  23.112  0.00  0.00    +0.000 C 
ATOM     20  C   UNL     1       0.329   9.391  23.165  0.00  0.00    +0.000 C 
ATOM     21  C   UNL     1       0.415   8.971  21.706  0.00  0.00    +0.000 C 
BRANCH  17  28
ATOM     22  C   UNL     1       1.621   9.815  17.987  0.00  0.00    +0.000 C 
ATOM     23  C   UNL     1       0.201  10.085  18.343  0.00  0.00    +0.000 A 
ATOM     24  N   UNL     1      -0.717  10.126  17.366  0.00  0.00    +0.000 NA
ATOM     25  N   UNL     1      -1.867  10.360  18.006  0.00  0.00    +0.000 N 
ATOM     26  C   UNL     1      -3.090  10.522  17.260  0.00  0.00    +0.000 C 
ATOM     27  C   UNL     1      -1.732  10.429  19.360  0.00  0.00    +0.000 A 
ATOM     28  C   UNL     1      -0.383  10.309  19.633  0.00  0.00    +0.000 A 
ENDBRANCH  17  28
ENDBRANCH   1  21
TORSDOF 4
ENDMDL
