MODEL 1
REMARK VINA RESULT:      -7.6      0.000      0.000
REMARK  Name = 
REMARK  6 active torsions:
REMARK  status: ('A' for Active; 'I' for Inactive)
REMARK    1  A    between atoms: C_1  and  C_2
REMARK    2  A    between atoms: C_5  and  N_6
REMARK    3  A    between atoms: N_9  and  C_10
REMARK    4  A    between atoms: C_10  and  C_11
REMARK    5  A    between atoms: N_13  and  N_14
REMARK    6  A    between atoms: C_15  and  C_16
REMARK                            x       y       z     vdW  Elec       q    Type
REMARK                         _______ _______ _______ _____ _____    ______ ____
ROOT
ATOM      1  C   UNL     1       4.599   5.163  18.259  0.00  0.00    +0.000 C 
ATOM      2  O   UNL     1       4.006   5.957  17.524  0.00  0.00    +0.000 OA
ATOM      3  N   UNL     1       5.512   4.213  17.802  0.00  0.00    +0.000 N 
ATOM      4  H   UNL     1       6.045   3.616  18.432  0.00  0.00    +0.000 HD
ENDROOT
BRANCH   3   5
ATOM      5  N   UNL     1       5.641   4.085  16.450  0.00  0.00    +0.000 NA
ATOM      6  C   UNL     1       6.595   4.692  15.823  0.00  0.00    +0.000 C 
BRANCH   6   7
ATOM      7  C   UNL     1       6.738   4.488  14.354  0.00  0.00    +0.000 A 
ATOM      8  C   UNL     1       7.664   5.260  13.633  0.00  0.00    +0.000 A 
ATOM      9  C   UNL     1       7.799   5.102  12.250  0.00  0.00    +0.000 A 
ATOM     10  C   UNL     1       7.011   4.170  11.583  0.00  0.00    +0.000 A 
ATOM     11  C   UNL     1       6.097   3.406  12.310  0.00  0.00    +0.000 A 
ATOM     12  F   UNL     1       5.345   2.507  11.658  0.00  0.00    +0.000 F 
ATOM     13  C   UNL     1       5.949   3.553  13.686  0.00  0.00    +0.000 A 
ENDBRANCH   6   7
ENDBRANCH   3   5
BRANCH   1  14
ATOM     14  C   UNL     1       4.315   5.169  19.745  0.00  0.00    +0.000 C 
BRANCH  14  20
ATOM     15  C   UNL     1       1.590   6.356  20.660  0.00  0.00    +0.000 C 
ATOM     16  C   UNL     1       1.903   4.912  20.478  0.00  0.00    +0.000 A 
ATOM     17  N   UNL     1       1.011   3.950  20.624  0.00  0.00    +0.000 NA
ATOM     18  C   UNL     1       1.658   2.779  20.357  0.00  0.00    +0.000 A 
ATOM     19  C   UNL     1       2.969   3.027  20.045  0.00  0.00    +0.000 A 
ATOM     20  N   UNL     1       3.141   4.390  20.114  0.00  0.00    +0.000 N 
BRANCH  19  21
ATOM     21  N   UNL     1       3.965   2.069  19.706  0.00  0.00    +0.000 N 
ATOM     22  O   UNL     1       4.890   1.921  20.511  0.00  0.00    +0.000 OA
ATOM     23  O   UNL     1       3.844   1.469  18.629  0.00  0.00    +0.000 OA
ENDBRANCH  19  21
ENDBRANCH  14  20
ENDBRANCH   1  14
TORSDOF 5
ENDMDL
MODEL 2
REMARK VINA RESULT:      -7.5      4.415      8.344
REMARK  Name = 
REMARK  6 active torsions:
REMARK  status: ('A' for Active; 'I' for Inactive)
REMARK    1  A    between atoms: C_1  and  C_2
REMARK    2  A    between atoms: C_5  and  N_6
REMARK    3  A    between atoms: N_9  and  C_10
REMARK    4  A    between atoms: C_10  and  C_11
REMARK    5  A    between atoms: N_13  and  N_14
REMARK    6  A    between atoms: C_15  and  C_16
REMARK                            x       y       z     vdW  Elec       q    Type
REMARK                         _______ _______ _______ _____ _____    ______ ____
ROOT
ATOM      1  C   UNL     1       2.690   6.257  19.623  0.00  0.00    +0.000 C 
ATOM      2  O   UNL     1       2.356   6.833  18.584  0.00  0.00    +0.000 OA
ATOM      3  N   UNL     1       2.111   6.501  20.868  0.00  0.00    +0.000 N 
ATOM      4  H   UNL     1       2.350   5.964  21.700  0.00  0.00    +0.000 HD
ENDROOT
BRANCH   3   5
ATOM      5  N   UNL     1       1.220   7.532  20.940  0.00  0.00    +0.000 NA
ATOM      6  C   UNL     1       1.400   8.495  21.783  0.00  0.00    +0.000 C 
BRANCH   6   7
ATOM      7  C   UNL     1       0.435   9.631  21.800  0.00  0.00    +0.000 A 
ATOM      8  C   UNL     1      -0.274   9.922  22.977  0.00  0.00    +0.000 A 
ATOM      9  C   UNL     1      -1.201  10.968  23.009  0.00  0.00    +0.000 A 
ATOM     10  C   UNL     1      -1.422  11.728  21.866  0.00  0.00    +0.000 A 
ATOM     11  C   UNL     1      -0.710  11.431  20.702  0.00  0.00    +0.000 A 
ATOM     12  F   UNL     1      -0.927  12.173  19.607  0.00  0.00    +0.000 F 
ATOM     13  C   UNL     1       0.214  10.393  20.654  0.00  0.00    +0.000 A 
ENDBRANCH   6   7
ENDBRANCH   3   5
BRANCH   1  14
ATOM     14  C   UNL     1       3.816   5.247  19.587  0.00  0.00    +0.000 C 
BRANCH  14  20
ATOM     15  C   UNL     1       4.557   4.153  16.771  0.00  0.00    +0.000 C 
ATOM     16  C   UNL     1       3.782   3.433  17.819  0.00  0.00    +0.000 A 
ATOM     17  N   UNL     1       3.368   2.186  17.689  0.00  0.00    +0.000 NA
ATOM     18  C   UNL     1       2.720   1.871  18.848  0.00  0.00    +0.000 A 
ATOM     19  C   UNL     1       2.735   2.944  19.701  0.00  0.00    +0.000 A 
ATOM     20  N   UNL     1       3.415   3.951  19.058  0.00  0.00    +0.000 N 
BRANCH  19  21
ATOM     21  N   UNL     1       2.167   3.011  21.004  0.00  0.00    +0.000 N 
ATOM     22  O   UNL     1       1.063   3.554  21.102  0.00  0.00    +0.000 OA
ATOM     23  O   UNL     1       2.823   2.537  21.942  0.00  0.00    +0.000 OA
ENDBRANCH  19  21
ENDBRANCH  14  20
ENDBRANCH   1  14
TORSDOF 5
ENDMDL
MODEL 3
REMARK VINA RESULT:      -7.4      4.756      8.316
REMARK  Name = 
REMARK  6 active torsions:
REMARK  status: ('A' for Active; 'I' for Inactive)
REMARK    1  A    between atoms: C_1  and  C_2
REMARK    2  A    between atoms: C_5  and  N_6
REMARK    3  A    between atoms: N_9  and  C_10
REMARK    4  A    between atoms: C_10  and  C_11
REMARK    5  A    between atoms: N_13  and  N_14
REMARK    6  A    between atoms: C_15  and  C_16
REMARK                            x       y       z     vdW  Elec       q    Type
REMARK                         _______ _______ _______ _____ _____    ______ ____
ROOT
ATOM      1  C   UNL     1       3.085   6.256  19.335  0.00  0.00    +0.000 C 
ATOM      2  O   UNL     1       2.941   6.806  18.241  0.00  0.00    +0.000 OA
ATOM      3  N   UNL     1       2.407   6.639  20.493  0.00  0.00    +0.000 N 
ATOM      4  H   UNL     1       2.484   6.126  21.370  0.00  0.00    +0.000 HD
ENDROOT
BRANCH   3   5
ATOM      5  N   UNL     1       1.648   7.770  20.416  0.00  0.00    +0.000 NA
ATOM      6  C   UNL     1       1.006   8.199  21.452  0.00  0.00    +0.000 C 
BRANCH   6   7
ATOM      7  C   UNL     1       0.228   9.466  21.346  0.00  0.00    +0.000 A 
ATOM      8  C   UNL     1       0.012  10.045  20.085  0.00  0.00    +0.000 A 
ATOM      9  C   UNL     1      -0.694  11.245  19.964  0.00  0.00    +0.000 A 
ATOM     10  C   UNL     1      -1.190  11.870  21.103  0.00  0.00    +0.000 A 
ATOM     11  C   UNL     1      -0.973  11.284  22.351  0.00  0.00    +0.000 A 
ATOM     12  F   UNL     1      -1.459  11.893  23.442  0.00  0.00    +0.000 F 
ATOM     13  C   UNL     1      -0.270  10.092  22.488  0.00  0.00    +0.000 A 
ENDBRANCH   6   7
ENDBRANCH   3   5
BRANCH   1  14
ATOM     14  C   UNL     1       4.073   5.119  19.475  0.00  0.00    +0.000 C 
BRANCH  14  20
ATOM     15  C   UNL     1       4.719   3.799  16.734  0.00  0.00    +0.000 C 
ATOM     16  C   UNL     1       3.874   3.218  17.814  0.00  0.00    +0.000 A 
ATOM     17  N   UNL     1       3.343   2.010  17.750  0.00  0.00    +0.000 NA
ATOM     18  C   UNL     1       2.663   1.826  18.919  0.00  0.00    +0.000 A 
ATOM     19  C   UNL     1       2.776   2.940  19.709  0.00  0.00    +0.000 A 
ATOM     20  N   UNL     1       3.553   3.839  19.017  0.00  0.00    +0.000 N 
BRANCH  19  21
ATOM     21  N   UNL     1       2.211   3.136  21.000  0.00  0.00    +0.000 N 
ATOM     22  O   UNL     1       2.777   2.576  21.945  0.00  0.00    +0.000 OA
ATOM     23  O   UNL     1       1.192   3.834  21.083  0.00  0.00    +0.000 OA
ENDBRANCH  19  21
ENDBRANCH  14  20
ENDBRANCH   1  14
TORSDOF 5
ENDMDL
MODEL 4
REMARK VINA RESULT:      -7.3      1.152      1.673
REMARK  Name = 
REMARK  6 active torsions:
REMARK  status: ('A' for Active; 'I' for Inactive)
REMARK    1  A    between atoms: C_1  and  C_2
REMARK    2  A    between atoms: C_5  and  N_6
REMARK    3  A    between atoms: N_9  and  C_10
REMARK    4  A    between atoms: C_10  and  C_11
REMARK    5  A    between atoms: N_13  and  N_14
REMARK    6  A    between atoms: C_15  and  C_16
REMARK                            x       y       z     vdW  Elec       q    Type
REMARK                         _______ _______ _______ _____ _____    ______ ____
ROOT
ATOM      1  C   UNL     1       4.593   5.349  18.334  0.00  0.00    +0.000 C 
ATOM      2  O   UNL     1       3.714   5.626  17.514  0.00  0.00    +0.000 OA
ATOM      3  N   UNL     1       5.940   5.196  18.008  0.00  0.00    +0.000 N 
ATOM      4  H   UNL     1       6.662   5.039  18.710  0.00  0.00    +0.000 HD
ENDROOT
BRANCH   3   5
ATOM      5  N   UNL     1       6.260   5.228  16.682  0.00  0.00    +0.000 NA
ATOM      6  C   UNL     1       6.177   4.157  15.963  0.00  0.00    +0.000 C 
BRANCH   6   7
ATOM      7  C   UNL     1       6.484   4.239  14.506  0.00  0.00    +0.000 A 
ATOM      8  C   UNL     1       5.863   3.349  13.615  0.00  0.00    +0.000 A 
ATOM      9  C   UNL     1       6.152   3.392  12.248  0.00  0.00    +0.000 A 
ATOM     10  C   UNL     1       7.062   4.327  11.766  0.00  0.00    +0.000 A 
ATOM     11  C   UNL     1       7.671   5.209  12.661  0.00  0.00    +0.000 A 
ATOM     12  F   UNL     1       8.543   6.109  12.185  0.00  0.00    +0.000 F 
ATOM     13  C   UNL     1       7.395   5.177  14.024  0.00  0.00    +0.000 A 
ENDBRANCH   6   7
ENDBRANCH   3   5
BRANCH   1  14
ATOM     14  C   UNL     1       4.218   5.120  19.782  0.00  0.00    +0.000 C 
BRANCH  14  20
ATOM     15  C   UNL     1       1.426   6.205  20.619  0.00  0.00    +0.000 C 
ATOM     16  C   UNL     1       1.755   4.794  20.275  0.00  0.00    +0.000 A 
ATOM     17  N   UNL     1       0.854   3.831  20.221  0.00  0.00    +0.000 NA
ATOM     18  C   UNL     1       1.522   2.698  19.857  0.00  0.00    +0.000 A 
ATOM     19  C   UNL     1       2.854   2.971  19.688  0.00  0.00    +0.000 A 
ATOM     20  N   UNL     1       3.018   4.312  19.948  0.00  0.00    +0.000 N 
BRANCH  19  21
ATOM     21  N   UNL     1       3.875   2.056  19.309  0.00  0.00    +0.000 N 
ATOM     22  O   UNL     1       3.770   1.537  18.194  0.00  0.00    +0.000 OA
ATOM     23  O   UNL     1       4.781   1.835  20.124  0.00  0.00    +0.000 OA
ENDBRANCH  19  21
ENDBRANCH  14  20
ENDBRANCH   1  14
TORSDOF 5
ENDMDL
MODEL 5
REMARK VINA RESULT:      -7.2      0.863      1.088
REMARK  Name = 
REMARK  6 active torsions:
REMARK  status: ('A' for Active; 'I' for Inactive)
REMARK    1  A    between atoms: C_1  and  C_2
REMARK    2  A    between atoms: C_5  and  N_6
REMARK    3  A    between atoms: N_9  and  C_10
REMARK    4  A    between atoms: C_10  and  C_11
REMARK    5  A    between atoms: N_13  and  N_14
REMARK    6  A    between atoms: C_15  and  C_16
REMARK                            x       y       z     vdW  Elec       q    Type
REMARK                         _______ _______ _______ _____ _____    ______ ____
ROOT
ATOM      1  C   UNL     1       5.053   4.568  18.523  0.00  0.00    +0.000 C 
ATOM      2  O   UNL     1       6.267   4.349  18.487  0.00  0.00    +0.000 OA
ATOM      3  N   UNL     1       4.197   4.379  17.438  0.00  0.00    +0.000 N 
ATOM      4  H   UNL     1       3.187   4.495  17.508  0.00  0.00    +0.000 HD
ENDROOT
BRANCH   3   5
ATOM      5  N   UNL     1       4.776   4.060  16.245  0.00  0.00    +0.000 NA
ATOM      6  C   UNL     1       5.312   4.980  15.511  0.00  0.00    +0.000 C 
BRANCH   6   7
ATOM      7  C   UNL     1       5.982   4.589  14.238  0.00  0.00    +0.000 A 
ATOM      8  C   UNL     1       7.160   5.245  13.844  0.00  0.00    +0.000 A 
ATOM      9  C   UNL     1       7.793   4.911  12.643  0.00  0.00    +0.000 A 
ATOM     10  C   UNL     1       7.253   3.919  11.832  0.00  0.00    +0.000 A 
ATOM     11  C   UNL     1       6.083   3.272  12.235  0.00  0.00    +0.000 A 
ATOM     12  F   UNL     1       5.572   2.315  11.448  0.00  0.00    +0.000 F 
ATOM     13  C   UNL     1       5.440   3.594  13.426  0.00  0.00    +0.000 A 
ENDBRANCH   6   7
ENDBRANCH   3   5
BRANCH   1  14
ATOM     14  C   UNL     1       4.430   5.108  19.791  0.00  0.00    +0.000 C 
BRANCH  14  20
ATOM     15  C   UNL     1       1.679   6.344  20.553  0.00  0.00    +0.000 C 
ATOM     16  C   UNL     1       2.015   4.894  20.526  0.00  0.00    +0.000 A 
ATOM     17  N   UNL     1       1.135   3.940  20.766  0.00  0.00    +0.000 NA
ATOM     18  C   UNL     1       1.801   2.756  20.630  0.00  0.00    +0.000 A 
ATOM     19  C   UNL     1       3.112   2.990  20.304  0.00  0.00    +0.000 A 
ATOM     20  N   UNL     1       3.263   4.355  20.230  0.00  0.00    +0.000 N 
BRANCH  19  21
ATOM     21  N   UNL     1       4.125   2.017  20.077  0.00  0.00    +0.000 N 
ATOM     22  O   UNL     1       4.078   1.408  19.004  0.00  0.00    +0.000 OA
ATOM     23  O   UNL     1       4.965   1.841  20.970  0.00  0.00    +0.000 OA
ENDBRANCH  19  21
ENDBRANCH  14  20
ENDBRANCH   1  14
TORSDOF 5
ENDMDL
MODEL 6
REMARK VINA RESULT:      -7.2      1.633      1.955
REMARK  Name = 
REMARK  6 active torsions:
REMARK  status: ('A' for Active; 'I' for Inactive)
REMARK    1  A    between atoms: C_1  and  C_2
REMARK    2  A    between atoms: C_5  and  N_6
REMARK    3  A    between atoms: N_9  and  C_10
REMARK    4  A    between atoms: C_10  and  C_11
REMARK    5  A    between atoms: N_13  and  N_14
REMARK    6  A    between atoms: C_15  and  C_16
REMARK                            x       y       z     vdW  Elec       q    Type
REMARK                         _______ _______ _______ _____ _____    ______ ____
ROOT
ATOM      1  C   UNL     1       5.458   5.217  18.564  0.00  0.00    +0.000 C 
ATOM      2  O   UNL     1       6.082   6.239  18.268  0.00  0.00    +0.000 OA
ATOM      3  N   UNL     1       5.478   4.046  17.807  0.00  0.00    +0.000 N 
ATOM      4  H   UNL     1       5.015   3.189  18.107  0.00  0.00    +0.000 HD
ENDROOT
BRANCH   3   5
ATOM      5  N   UNL     1       6.125   4.101  16.607  0.00  0.00    +0.000 NA
ATOM      6  C   UNL     1       5.453   4.173  15.504  0.00  0.00    +0.000 C 
BRANCH   6   7
ATOM      7  C   UNL     1       6.192   4.283  14.214  0.00  0.00    +0.000 A 
ATOM      8  C   UNL     1       5.816   3.476  13.128  0.00  0.00    +0.000 A 
ATOM      9  C   UNL     1       6.509   3.546  11.916  0.00  0.00    +0.000 A 
ATOM     10  C   UNL     1       7.578   4.425  11.784  0.00  0.00    +0.000 A 
ATOM     11  C   UNL     1       7.941   5.225  12.869  0.00  0.00    +0.000 A 
ATOM     12  F   UNL     1       8.971   6.072  12.729  0.00  0.00    +0.000 F 
ATOM     13  C   UNL     1       7.263   5.165  14.082  0.00  0.00    +0.000 A 
ENDBRANCH   6   7
ENDBRANCH   3   5
BRANCH   1  14
ATOM     14  C   UNL     1       4.581   5.210  19.797  0.00  0.00    +0.000 C 
BRANCH  14  20
ATOM     15  C   UNL     1       2.225   6.314  18.093  0.00  0.00    +0.000 C 
ATOM     16  C   UNL     1       2.263   5.002  18.797  0.00  0.00    +0.000 A 
ATOM     17  N   UNL     1       1.296   4.106  18.716  0.00  0.00    +0.000 NA
ATOM     18  C   UNL     1       1.696   3.039  19.468  0.00  0.00    +0.000 A 
ATOM     19  C   UNL     1       2.925   3.287  20.020  0.00  0.00    +0.000 A 
ATOM     20  N   UNL     1       3.304   4.539  19.595  0.00  0.00    +0.000 N 
BRANCH  19  21
ATOM     21  N   UNL     1       3.677   2.422  20.862  0.00  0.00    +0.000 N 
ATOM     22  O   UNL     1       3.197   2.173  21.973  0.00  0.00    +0.000 OA
ATOM     23  O   UNL     1       4.757   1.994  20.432  0.00  0.00    +0.000 OA
ENDBRANCH  19  21
ENDBRANCH  14  20
ENDBRANCH   1  14
TORSDOF 5
ENDMDL
MODEL 7
REMARK VINA RESULT:      -7.0      5.958      7.403
REMARK  Name = 
REMARK  6 active torsions:
REMARK  status: ('A' for Active; 'I' for Inactive)
REMARK    1  A    between atoms: C_1  and  C_2
REMARK    2  A    between atoms: C_5  and  N_6
REMARK    3  A    between atoms: N_9  and  C_10
REMARK    4  A    between atoms: C_10  and  C_11
REMARK    5  A    between atoms: N_13  and  N_14
REMARK    6  A    between atoms: C_15  and  C_16
REMARK                            x       y       z     vdW  Elec       q    Type
REMARK                         _______ _______ _______ _____ _____    ______ ____
ROOT
ATOM      1  C   UNL     1       7.508   7.027  17.712  0.00  0.00    +0.000 C 
ATOM      2  O   UNL     1       6.834   7.594  16.849  0.00  0.00    +0.000 OA
ATOM      3  N   UNL     1       8.356   7.692  18.598  0.00  0.00    +0.000 N 
ATOM      4  H   UNL     1       8.848   7.214  19.352  0.00  0.00    +0.000 HD
ENDROOT
BRANCH   3   5
ATOM      5  N   UNL     1       8.535   9.028  18.392  0.00  0.00    +0.000 NA
ATOM      6  C   UNL     1       9.330   9.707  19.153  0.00  0.00    +0.000 C 
BRANCH   6   7
ATOM      7  C   UNL     1       9.542  11.155  18.867  0.00  0.00    +0.000 A 
ATOM      8  C   UNL     1       9.029  12.119  19.751  0.00  0.00    +0.000 A 
ATOM      9  C   UNL     1       9.196  13.482  19.491  0.00  0.00    +0.000 A 
ATOM     10  C   UNL     1       9.878  13.888  18.350  0.00  0.00    +0.000 A 
ATOM     11  C   UNL     1      10.386  12.921  17.480  0.00  0.00    +0.000 A 
ATOM     12  F   UNL     1      11.046  13.323  16.384  0.00  0.00    +0.000 F 
ATOM     13  C   UNL     1      10.227  11.561  17.723  0.00  0.00    +0.000 A 
ENDBRANCH   6   7
ENDBRANCH   3   5
BRANCH   1  14
ATOM     14  C   UNL     1       7.463   5.519  17.822  0.00  0.00    +0.000 C 
BRANCH  14  20
ATOM     15  C   UNL     1       7.179   4.918  14.783  0.00  0.00    +0.000 C 
ATOM     16  C   UNL     1       6.175   4.610  15.839  0.00  0.00    +0.000 A 
ATOM     17  N   UNL     1       5.046   3.966  15.603  0.00  0.00    +0.000 NA
ATOM     18  C   UNL     1       4.408   3.854  16.804  0.00  0.00    +0.000 A 
ATOM     19  C   UNL     1       5.155   4.442  17.791  0.00  0.00    +0.000 A 
ATOM     20  N   UNL     1       6.293   4.926  17.189  0.00  0.00    +0.000 N 
BRANCH  19  21
ATOM     21  N   UNL     1       4.832   4.531  19.173  0.00  0.00    +0.000 N 
ATOM     22  O   UNL     1       5.111   3.552  19.873  0.00  0.00    +0.000 OA
ATOM     23  O   UNL     1       4.284   5.568  19.571  0.00  0.00    +0.000 OA
ENDBRANCH  19  21
ENDBRANCH  14  20
ENDBRANCH   1  14
TORSDOF 5
ENDMDL
MODEL 8
REMARK VINA RESULT:      -7.0      6.252      7.647
REMARK  Name = 
REMARK  6 active torsions:
REMARK  status: ('A' for Active; 'I' for Inactive)
REMARK    1  A    between atoms: C_1  and  C_2
REMARK    2  A    between atoms: C_5  and  N_6
REMARK    3  A    between atoms: N_9  and  C_10
REMARK    4  A    between atoms: C_10  and  C_11
REMARK    5  A    between atoms: N_13  and  N_14
REMARK    6  A    between atoms: C_15  and  C_16
REMARK                            x       y       z     vdW  Elec       q    Type
REMARK                         _______ _______ _______ _____ _____    ______ ____
ROOT
ATOM      1  C   UNL     1       7.500   6.981  17.710  0.00  0.00    +0.000 C 
ATOM      2  O   UNL     1       6.774   7.578  16.912  0.00  0.00    +0.000 OA
ATOM      3  N   UNL     1       8.372   7.616  18.594  0.00  0.00    +0.000 N 
ATOM      4  H   UNL     1       8.910   7.109  19.296  0.00  0.00    +0.000 HD
ENDROOT
BRANCH   3   5
ATOM      5  N   UNL     1       8.509   8.967  18.459  0.00  0.00    +0.000 NA
ATOM      6  C   UNL     1       9.248   9.636  19.282  0.00  0.00    +0.000 C 
BRANCH   6   7
ATOM      7  C   UNL     1       9.416  11.102  19.074  0.00  0.00    +0.000 A 
ATOM      8  C   UNL     1       8.875  11.707  17.927  0.00  0.00    +0.000 A 
ATOM      9  C   UNL     1       9.040  13.076  17.700  0.00  0.00    +0.000 A 
ATOM     10  C   UNL     1       9.745  13.847  18.618  0.00  0.00    +0.000 A 
ATOM     11  C   UNL     1      10.276  13.236  19.755  0.00  0.00    +0.000 A 
ATOM     12  F   UNL     1      10.951  13.989  20.636  0.00  0.00    +0.000 F 
ATOM     13  C   UNL     1      10.122  11.874  19.995  0.00  0.00    +0.000 A 
ENDBRANCH   6   7
ENDBRANCH   3   5
BRANCH   1  14
ATOM     14  C   UNL     1       7.498   5.468  17.733  0.00  0.00    +0.000 C 
BRANCH  14  20
ATOM     15  C   UNL     1       7.115   4.915  14.697  0.00  0.00    +0.000 C 
ATOM     16  C   UNL     1       6.148   4.586  15.780  0.00  0.00    +0.000 A 
ATOM     17  N   UNL     1       5.014   3.942  15.570  0.00  0.00    +0.000 NA
ATOM     18  C   UNL     1       4.416   3.808  16.790  0.00  0.00    +0.000 A 
ATOM     19  C   UNL     1       5.194   4.383  17.761  0.00  0.00    +0.000 A 
ATOM     20  N   UNL     1       6.309   4.881  17.130  0.00  0.00    +0.000 N 
BRANCH  19  21
ATOM     21  N   UNL     1       4.915   4.448  19.154  0.00  0.00    +0.000 N 
ATOM     22  O   UNL     1       5.132   3.426  19.812  0.00  0.00    +0.000 OA
ATOM     23  O   UNL     1       4.463   5.511  19.602  0.00  0.00    +0.000 OA
ENDBRANCH  19  21
ENDBRANCH  14  20
ENDBRANCH   1  14
TORSDOF 5
ENDMDL
MODEL 9
REMARK VINA RESULT:      -7.0      1.825      2.184
REMARK  Name = 
REMARK  6 active torsions:
REMARK  status: ('A' for Active; 'I' for Inactive)
REMARK    1  A    between atoms: C_1  and  C_2
REMARK    2  A    between atoms: C_5  and  N_6
REMARK    3  A    between atoms: N_9  and  C_10
REMARK    4  A    between atoms: C_10  and  C_11
REMARK    5  A    between atoms: N_13  and  N_14
REMARK    6  A    between atoms: C_15  and  C_16
REMARK                            x       y       z     vdW  Elec       q    Type
REMARK                         _______ _______ _______ _____ _____    ______ ____
ROOT
ATOM      1  C   UNL     1       4.172   5.375  18.305  0.00  0.00    +0.000 C 
ATOM      2  O   UNL     1       4.075   6.439  17.688  0.00  0.00    +0.000 OA
ATOM      3  N   UNL     1       5.038   4.343  17.943  0.00  0.00    +0.000 N 
ATOM      4  H   UNL     1       5.156   3.502  18.506  0.00  0.00    +0.000 HD
ENDROOT
BRANCH   3   5
ATOM      5  N   UNL     1       5.709   4.488  16.764  0.00  0.00    +0.000 NA
ATOM      6  C   UNL     1       5.283   3.903  15.693  0.00  0.00    +0.000 C 
BRANCH   6   7
ATOM      7  C   UNL     1       6.011   4.124  14.411  0.00  0.00    +0.000 A 
ATOM      8  C   UNL     1       5.582   3.466  13.247  0.00  0.00    +0.000 A 
ATOM      9  C   UNL     1       6.263   3.640  12.039  0.00  0.00    +0.000 A 
ATOM     10  C   UNL     1       7.374   4.475  11.988  0.00  0.00    +0.000 A 
ATOM     11  C   UNL     1       7.790   5.126  13.151  0.00  0.00    +0.000 A 
ATOM     12  F   UNL     1       8.860   5.932  13.091  0.00  0.00    +0.000 F 
ATOM     13  C   UNL     1       7.124   4.961  14.361  0.00  0.00    +0.000 A 
ENDBRANCH   6   7
ENDBRANCH   3   5
BRANCH   1  14
ATOM     14  C   UNL     1       3.288   5.126  19.507  0.00  0.00    +0.000 C 
BRANCH  14  20
ATOM     15  C   UNL     1       1.224   4.773  17.207  0.00  0.00    +0.000 C 
ATOM     16  C   UNL     1       1.506   3.795  18.294  0.00  0.00    +0.000 A 
ATOM     17  N   UNL     1       0.941   2.604  18.365  0.00  0.00    +0.000 NA
ATOM     18  C   UNL     1       1.458   1.996  19.472  0.00  0.00    +0.000 A 
ATOM     19  C   UNL     1       2.353   2.830  20.091  0.00  0.00    +0.000 A 
ATOM     20  N   UNL     1       2.398   3.985  19.345  0.00  0.00    +0.000 N 
BRANCH  19  21
ATOM     21  N   UNL     1       3.101   2.560  21.270  0.00  0.00    +0.000 N 
ATOM     22  O   UNL     1       2.572   2.859  22.345  0.00  0.00    +0.000 OA
ATOM     23  O   UNL     1       4.228   2.063  21.136  0.00  0.00    +0.000 OA
ENDBRANCH  19  21
ENDBRANCH  14  20
ENDBRANCH   1  14
TORSDOF 5
ENDMDL
