MODEL 1
REMARK VINA RESULT:      -7.8      0.000      0.000
REMARK  Name = 
REMARK  9 active torsions:
REMARK  status: ('A' for Active; 'I' for Inactive)
REMARK    1  A    between atoms: C_1  and  O_2
REMARK    2  A    between atoms: O_2  and  C_3
REMARK    3  A    between atoms: C_6  and  C_7
REMARK    4  A    between atoms: N_8  and  N_9
REMARK    5  A    between atoms: C_10  and  C_12
REMARK    6  A    between atoms: C_12  and  O_13
REMARK    7  A    between atoms: C_12  and  C_15
REMARK    8  A    between atoms: O_13  and  C_14
REMARK    9  A    between atoms: C_26  and  O_27
REMARK                            x       y       z     vdW  Elec       q    Type
REMARK                         _______ _______ _______ _____ _____    ______ ____
ROOT
ATOM      1  N   UNL     1       7.523   7.082  16.912  0.00  0.00    +0.000 N 
ATOM      2  C   UNL     1       6.142   6.849  16.878  0.00  0.00    +0.000 C 
ATOM      3  O   UNL     1       5.320   7.716  17.213  0.00  0.00    +0.000 OA
ATOM      4  H   UNL     1       8.205   6.340  16.793  0.00  0.00    +0.000 HD
ENDROOT
BRANCH   1   6
ATOM      5  C   UNL     1       8.523   8.571  18.382  0.00  0.00    +0.000 C 
ATOM      6  N   UNL     1       7.911   8.335  17.274  0.00  0.00    +0.000 NA
BRANCH   5  10
ATOM      7  C   UNL     1       9.546  12.673  19.189  0.00  0.00    +0.000 A 
ATOM      8  C   UNL     1       9.842  11.665  20.123  0.00  0.00    +0.000 A 
ATOM      9  C   UNL     1       9.514  10.322  19.886  0.00  0.00    +0.000 A 
ATOM     10  C   UNL     1       8.886   9.979  18.692  0.00  0.00    +0.000 A 
ATOM     11  C   UNL     1       8.576  10.977  17.758  0.00  0.00    +0.000 A 
ATOM     12  C   UNL     1       8.900  12.313  18.002  0.00  0.00    +0.000 A 
BRANCH   7  14
ATOM     13  C   UNL     1       9.664  14.317  20.928  0.00  0.00    +0.000 C 
ATOM     14  O   UNL     1       9.945  13.919  19.589  0.00  0.00    +0.000 OA
ENDBRANCH   7  14
BRANCH  12  15
ATOM     15  O   UNL     1       8.563  13.237  17.053  0.00  0.00    +0.000 OA
ATOM     16  H   UNL     1       9.371  13.553  16.614  0.00  0.00    +0.000 HD
ENDBRANCH  12  15
ENDBRANCH   5  10
ENDBRANCH   1   6
BRANCH   2  17
ATOM     17  C   UNL     1       5.711   5.420  16.449  0.00  0.00    +0.000 C 
BRANCH  17  18
ATOM     18  C   UNL     1       4.910   4.586  17.465  0.00  0.00    +0.000 A 
ATOM     19  C   UNL     1       5.437   4.140  18.685  0.00  0.00    +0.000 A 
ATOM     20  C   UNL     1       4.658   3.398  19.581  0.00  0.00    +0.000 A 
ATOM     21  C   UNL     1       3.333   3.091  19.286  0.00  0.00    +0.000 A 
ATOM     22  C   UNL     1       2.797   3.485  18.070  0.00  0.00    +0.000 A 
ATOM     23  C   UNL     1       3.570   4.241  17.177  0.00  0.00    +0.000 A 
ATOM     24  O   UNL     1       1.544   3.137  17.653  0.00  0.00    +0.000 OA
ATOM     25  C   UNL     1       0.688   2.712  18.710  0.00  0.00    +0.000 C 
ATOM     26  C   UNL     1       1.354   1.974  19.865  0.00  0.00    +0.000 C 
ATOM     27  O   UNL     1       2.644   2.428  20.255  0.00  0.00    +0.000 OA
ENDBRANCH  17  18
BRANCH  17  28
ATOM     28  O   UNL     1       6.838   4.683  15.942  0.00  0.00    +0.000 OA
ATOM     29  C   UNL     1       6.741   4.376  14.551  0.00  0.00    +0.000 C 
ENDBRANCH  17  28
ENDBRANCH   2  17
TORSDOF 7
ENDMDL
MODEL 2
REMARK VINA RESULT:      -7.7      5.262      7.423
REMARK  Name = 
REMARK  9 active torsions:
REMARK  status: ('A' for Active; 'I' for Inactive)
REMARK    1  A    between atoms: C_1  and  O_2
REMARK    2  A    between atoms: O_2  and  C_3
REMARK    3  A    between atoms: C_6  and  C_7
REMARK    4  A    between atoms: N_8  and  N_9
REMARK    5  A    between atoms: C_10  and  C_12
REMARK    6  A    between atoms: C_12  and  O_13
REMARK    7  A    between atoms: C_12  and  C_15
REMARK    8  A    between atoms: O_13  and  C_14
REMARK    9  A    between atoms: C_26  and  O_27
REMARK                            x       y       z     vdW  Elec       q    Type
REMARK                         _______ _______ _______ _____ _____    ______ ____
ROOT
ATOM      1  N   UNL     1       2.814   5.898  19.577  0.00  0.00    +0.000 N 
ATOM      2  C   UNL     1       2.909   4.655  20.216  0.00  0.00    +0.000 C 
ATOM      3  O   UNL     1       2.353   4.428  21.302  0.00  0.00    +0.000 OA
ATOM      4  H   UNL     1       3.385   6.146  18.776  0.00  0.00    +0.000 HD
ENDROOT
BRANCH   1   6
ATOM      5  C   UNL     1       1.870   8.012  19.709  0.00  0.00    +0.000 C 
ATOM      6  N   UNL     1       2.025   6.826  20.185  0.00  0.00    +0.000 NA
BRANCH   5  10
ATOM      7  C   UNL     1      -0.623  10.696  21.969  0.00  0.00    +0.000 A 
ATOM      8  C   UNL     1      -0.567  10.782  20.566  0.00  0.00    +0.000 A 
ATOM      9  C   UNL     1       0.242   9.923  19.808  0.00  0.00    +0.000 A 
ATOM     10  C   UNL     1       1.002   8.956  20.461  0.00  0.00    +0.000 A 
ATOM     11  C   UNL     1       0.962   8.869  21.860  0.00  0.00    +0.000 A 
ATOM     12  C   UNL     1       0.159   9.730  22.609  0.00  0.00    +0.000 A 
BRANCH   7  14
ATOM     13  C   UNL     1      -0.974  12.923  22.779  0.00  0.00    +0.000 C 
ATOM     14  O   UNL     1      -1.469  11.610  22.535  0.00  0.00    +0.000 OA
ENDBRANCH   7  14
BRANCH  12  15
ATOM     15  O   UNL     1       0.173   9.597  23.969  0.00  0.00    +0.000 OA
ATOM     16  H   UNL     1       1.077   9.389  24.261  0.00  0.00    +0.000 HD
ENDBRANCH  12  15
ENDBRANCH   5  10
ENDBRANCH   1   6
BRANCH   2  17
ATOM     17  C   UNL     1       3.799   3.599  19.505  0.00  0.00    +0.000 C 
BRANCH  17  18
ATOM     18  C   UNL     1       4.803   4.109  18.457  0.00  0.00    +0.000 A 
ATOM     19  C   UNL     1       5.927   4.883  18.775  0.00  0.00    +0.000 A 
ATOM     20  C   UNL     1       6.819   5.306  17.782  0.00  0.00    +0.000 A 
ATOM     21  C   UNL     1       6.616   4.960  16.449  0.00  0.00    +0.000 A 
ATOM     22  C   UNL     1       5.491   4.229  16.099  0.00  0.00    +0.000 A 
ATOM     23  C   UNL     1       4.604   3.791  17.094  0.00  0.00    +0.000 A 
ATOM     24  O   UNL     1       5.157   3.937  14.808  0.00  0.00    +0.000 OA
ATOM     25  C   UNL     1       6.243   4.063  13.895  0.00  0.00    +0.000 C 
ATOM     26  C   UNL     1       7.265   5.150  14.204  0.00  0.00    +0.000 C 
ATOM     27  O   UNL     1       7.579   5.362  15.574  0.00  0.00    +0.000 OA
ENDBRANCH  17  18
BRANCH  17  28
ATOM     28  O   UNL     1       2.991   2.530  18.978  0.00  0.00    +0.000 OA
ATOM     29  C   UNL     1       1.665   2.933  18.634  0.00  0.00    +0.000 C 
ENDBRANCH  17  28
ENDBRANCH   2  17
TORSDOF 7
ENDMDL
MODEL 3
REMARK VINA RESULT:      -7.7      1.705      1.726
REMARK  Name = 
REMARK  9 active torsions:
REMARK  status: ('A' for Active; 'I' for Inactive)
REMARK    1  A    between atoms: C_1  and  O_2
REMARK    2  A    between atoms: O_2  and  C_3
REMARK    3  A    between atoms: C_6  and  C_7
REMARK    4  A    between atoms: N_8  and  N_9
REMARK    5  A    between atoms: C_10  and  C_12
REMARK    6  A    between atoms: C_12  and  O_13
REMARK    7  A    between atoms: C_12  and  C_15
REMARK    8  A    between atoms: O_13  and  C_14
REMARK    9  A    between atoms: C_26  and  O_27
REMARK                            x       y       z     vdW  Elec       q    Type
REMARK                         _______ _______ _______ _____ _____    ______ ____
ROOT
ATOM      1  N   UNL     1       7.371   7.730  16.893  0.00  0.00    +0.000 N 
ATOM      2  C   UNL     1       7.009   6.619  17.666  0.00  0.00    +0.000 C 
ATOM      3  O   UNL     1       7.569   6.354  18.741  0.00  0.00    +0.000 OA
ATOM      4  H   UNL     1       7.034   7.869  15.946  0.00  0.00    +0.000 HD
ENDROOT
BRANCH   1   6
ATOM      5  C   UNL     1       8.050   9.675  17.957  0.00  0.00    +0.000 C 
ATOM      6  N   UNL     1       8.330   8.539  17.418  0.00  0.00    +0.000 NA
BRANCH   5  10
ATOM      7  C   UNL     1      11.347  12.039  19.394  0.00  0.00    +0.000 A 
ATOM      8  C   UNL     1      10.367  11.563  20.283  0.00  0.00    +0.000 A 
ATOM      9  C   UNL     1       9.280  10.796  19.838  0.00  0.00    +0.000 A 
ATOM     10  C   UNL     1       9.174  10.493  18.484  0.00  0.00    +0.000 A 
ATOM     11  C   UNL     1      10.139  10.971  17.586  0.00  0.00    +0.000 A 
ATOM     12  C   UNL     1      11.216  11.739  18.034  0.00  0.00    +0.000 A 
BRANCH   7  14
ATOM     13  C   UNL     1      12.326  14.178  19.848  0.00  0.00    +0.000 C 
ATOM     14  O   UNL     1      12.332  12.763  20.008  0.00  0.00    +0.000 OA
ENDBRANCH   7  14
BRANCH  12  15
ATOM     15  O   UNL     1      12.117  12.180  17.106  0.00  0.00    +0.000 OA
ATOM     16  H   UNL     1      12.158  11.543  16.373  0.00  0.00    +0.000 HD
ENDBRANCH  12  15
ENDBRANCH   5  10
ENDBRANCH   1   6
BRANCH   2  17
ATOM     17  C   UNL     1       5.902   5.711  17.064  0.00  0.00    +0.000 C 
BRANCH  17  18
ATOM     18  C   UNL     1       5.051   4.885  18.045  0.00  0.00    +0.000 A 
ATOM     19  C   UNL     1       5.505   3.715  18.667  0.00  0.00    +0.000 A 
ATOM     20  C   UNL     1       4.694   3.012  19.566  0.00  0.00    +0.000 A 
ATOM     21  C   UNL     1       3.414   3.464  19.873  0.00  0.00    +0.000 A 
ATOM     22  C   UNL     1       2.922   4.596  19.242  0.00  0.00    +0.000 A 
ATOM     23  C   UNL     1       3.739   5.311  18.352  0.00  0.00    +0.000 A 
ATOM     24  O   UNL     1       1.645   5.049  19.400  0.00  0.00    +0.000 OA
ATOM     25  C   UNL     1       0.997   4.537  20.561  0.00  0.00    +0.000 C 
ATOM     26  C   UNL     1       1.375   3.121  20.978  0.00  0.00    +0.000 C 
ATOM     27  O   UNL     1       2.736   2.747  20.811  0.00  0.00    +0.000 OA
ENDBRANCH  17  18
BRANCH  17  28
ATOM     28  O   UNL     1       6.442   4.883  16.018  0.00  0.00    +0.000 OA
ATOM     29  C   UNL     1       5.523   4.636  14.953  0.00  0.00    +0.000 C 
ENDBRANCH  17  28
ENDBRANCH   2  17
TORSDOF 7
ENDMDL
MODEL 4
REMARK VINA RESULT:      -7.6      0.764      1.436
REMARK  Name = 
REMARK  9 active torsions:
REMARK  status: ('A' for Active; 'I' for Inactive)
REMARK    1  A    between atoms: C_1  and  O_2
REMARK    2  A    between atoms: O_2  and  C_3
REMARK    3  A    between atoms: C_6  and  C_7
REMARK    4  A    between atoms: N_8  and  N_9
REMARK    5  A    between atoms: C_10  and  C_12
REMARK    6  A    between atoms: C_12  and  O_13
REMARK    7  A    between atoms: C_12  and  C_15
REMARK    8  A    between atoms: O_13  and  C_14
REMARK    9  A    between atoms: C_26  and  O_27
REMARK                            x       y       z     vdW  Elec       q    Type
REMARK                         _______ _______ _______ _____ _____    ______ ____
ROOT
ATOM      1  N   UNL     1       7.390   7.327  17.071  0.00  0.00    +0.000 N 
ATOM      2  C   UNL     1       6.022   7.023  17.037  0.00  0.00    +0.000 C 
ATOM      3  O   UNL     1       5.159   7.828  17.420  0.00  0.00    +0.000 OA
ATOM      4  H   UNL     1       8.109   6.630  16.911  0.00  0.00    +0.000 HD
ENDROOT
BRANCH   1   6
ATOM      5  C   UNL     1       8.678   8.801  18.314  0.00  0.00    +0.000 C 
ATOM      6  N   UNL     1       7.715   8.581  17.488  0.00  0.00    +0.000 NA
BRANCH   5  10
ATOM      7  C   UNL     1       9.438  12.841  19.589  0.00  0.00    +0.000 A 
ATOM      8  C   UNL     1       9.084  12.566  18.256  0.00  0.00    +0.000 A 
ATOM      9  C   UNL     1       8.837  11.258  17.815  0.00  0.00    +0.000 A 
ATOM     10  C   UNL     1       8.938  10.207  18.722  0.00  0.00    +0.000 A 
ATOM     11  C   UNL     1       9.302  10.468  20.051  0.00  0.00    +0.000 A 
ATOM     12  C   UNL     1       9.552  11.772  20.482  0.00  0.00    +0.000 A 
BRANCH   7  14
ATOM     13  C   UNL     1       9.220  15.108  18.843  0.00  0.00    +0.000 C 
ATOM     14  O   UNL     1       9.634  14.173  19.834  0.00  0.00    +0.000 OA
ENDBRANCH   7  14
BRANCH  12  15
ATOM     15  O   UNL     1       9.909  11.956  21.788  0.00  0.00    +0.000 OA
ATOM     16  H   UNL     1       9.430  11.318  22.344  0.00  0.00    +0.000 HD
ENDBRANCH  12  15
ENDBRANCH   5  10
ENDBRANCH   1   6
BRANCH   2  17
ATOM     17  C   UNL     1       5.662   5.595  16.545  0.00  0.00    +0.000 C 
BRANCH  17  18
ATOM     18  C   UNL     1       4.869   4.692  17.505  0.00  0.00    +0.000 A 
ATOM     19  C   UNL     1       5.415   4.130  18.667  0.00  0.00    +0.000 A 
ATOM     20  C   UNL     1       4.642   3.329  19.516  0.00  0.00    +0.000 A 
ATOM     21  C   UNL     1       3.303   3.078  19.233  0.00  0.00    +0.000 A 
ATOM     22  C   UNL     1       2.746   3.587  18.070  0.00  0.00    +0.000 A 
ATOM     23  C   UNL     1       3.514   4.402  17.225  0.00  0.00    +0.000 A 
ATOM     24  O   UNL     1       1.476   3.303  17.659  0.00  0.00    +0.000 OA
ATOM     25  C   UNL     1       0.637   2.806  18.698  0.00  0.00    +0.000 C 
ATOM     26  C   UNL     1       1.314   1.956  19.766  0.00  0.00    +0.000 C 
ATOM     27  O   UNL     1       2.623   2.347  20.159  0.00  0.00    +0.000 OA
ENDBRANCH  17  18
BRANCH  17  28
ATOM     28  O   UNL     1       6.833   4.923  16.045  0.00  0.00    +0.000 OA
ATOM     29  C   UNL     1       6.660   4.364  14.743  0.00  0.00    +0.000 C 
ENDBRANCH  17  28
ENDBRANCH   2  17
TORSDOF 7
ENDMDL
MODEL 5
REMARK VINA RESULT:      -7.6      1.457      1.682
REMARK  Name = 
REMARK  9 active torsions:
REMARK  status: ('A' for Active; 'I' for Inactive)
REMARK    1  A    between atoms: C_1  and  O_2
REMARK    2  A    between atoms: O_2  and  C_3
REMARK    3  A    between atoms: C_6  and  C_7
REMARK    4  A    between atoms: N_8  and  N_9
REMARK    5  A    between atoms: C_10  and  C_12
REMARK    6  A    between atoms: C_12  and  O_13
REMARK    7  A    between atoms: C_12  and  C_15
REMARK    8  A    between atoms: O_13  and  C_14
REMARK    9  A    between atoms: C_26  and  O_27
REMARK                            x       y       z     vdW  Elec       q    Type
REMARK                         _______ _______ _______ _____ _____    ______ ____
ROOT
ATOM      1  N   UNL     1       7.167   7.915  17.139  0.00  0.00    +0.000 N 
ATOM      2  C   UNL     1       7.106   6.620  17.673  0.00  0.00    +0.000 C 
ATOM      3  O   UNL     1       7.658   6.323  18.743  0.00  0.00    +0.000 OA
ATOM      4  H   UNL     1       6.856   8.132  16.198  0.00  0.00    +0.000 HD
ENDROOT
BRANCH   1   6
ATOM      5  C   UNL     1       8.250   9.949  17.394  0.00  0.00    +0.000 C 
ATOM      6  N   UNL     1       7.815   8.844  17.892  0.00  0.00    +0.000 NA
BRANCH   5  10
ATOM      7  C   UNL     1      10.322  12.731  19.942  0.00  0.00    +0.000 A 
ATOM      8  C   UNL     1      10.031  11.431  20.390  0.00  0.00    +0.000 A 
ATOM      9  C   UNL     1       9.352  10.508  19.581  0.00  0.00    +0.000 A 
ATOM     10  C   UNL     1       8.964  10.888  18.299  0.00  0.00    +0.000 A 
ATOM     11  C   UNL     1       9.239  12.186  17.846  0.00  0.00    +0.000 A 
ATOM     12  C   UNL     1       9.910  13.101  18.658  0.00  0.00    +0.000 A 
BRANCH   7  14
ATOM     13  C   UNL     1      10.264  14.476  21.582  0.00  0.00    +0.000 C 
ATOM     14  O   UNL     1      10.994  13.486  20.865  0.00  0.00    +0.000 OA
ENDBRANCH   7  14
BRANCH  12  15
ATOM     15  O   UNL     1      10.140  14.352  18.157  0.00  0.00    +0.000 OA
ATOM     16  H   UNL     1       9.417  14.943  18.428  0.00  0.00    +0.000 HD
ENDBRANCH  12  15
ENDBRANCH   5  10
ENDBRANCH   1   6
BRANCH   2  17
ATOM     17  C   UNL     1       6.350   5.572  16.812  0.00  0.00    +0.000 C 
BRANCH  17  18
ATOM     18  C   UNL     1       5.136   4.873  17.450  0.00  0.00    +0.000 A 
ATOM     19  C   UNL     1       4.743   3.565  17.135  0.00  0.00    +0.000 A 
ATOM     20  C   UNL     1       3.640   2.971  17.759  0.00  0.00    +0.000 A 
ATOM     21  C   UNL     1       2.907   3.663  18.719  0.00  0.00    +0.000 A 
ATOM     22  C   UNL     1       3.248   4.972  19.023  0.00  0.00    +0.000 A 
ATOM     23  C   UNL     1       4.362   5.565  18.410  0.00  0.00    +0.000 A 
ATOM     24  O   UNL     1       2.524   5.759  19.870  0.00  0.00    +0.000 OA
ATOM     25  C   UNL     1       1.659   5.026  20.732  0.00  0.00    +0.000 C 
ATOM     26  C   UNL     1       1.060   3.746  20.161  0.00  0.00    +0.000 C 
ATOM     27  O   UNL     1       1.899   2.970  19.316  0.00  0.00    +0.000 OA
ENDBRANCH  17  18
BRANCH  17  28
ATOM     28  O   UNL     1       7.271   4.615  16.257  0.00  0.00    +0.000 OA
ATOM     29  C   UNL     1       7.282   4.594  14.829  0.00  0.00    +0.000 C 
ENDBRANCH  17  28
ENDBRANCH   2  17
TORSDOF 7
ENDMDL
MODEL 6
REMARK VINA RESULT:      -7.6      1.595      2.129
REMARK  Name = 
REMARK  9 active torsions:
REMARK  status: ('A' for Active; 'I' for Inactive)
REMARK    1  A    between atoms: C_1  and  O_2
REMARK    2  A    between atoms: O_2  and  C_3
REMARK    3  A    between atoms: C_6  and  C_7
REMARK    4  A    between atoms: N_8  and  N_9
REMARK    5  A    between atoms: C_10  and  C_12
REMARK    6  A    between atoms: C_12  and  O_13
REMARK    7  A    between atoms: C_12  and  C_15
REMARK    8  A    between atoms: O_13  and  C_14
REMARK    9  A    between atoms: C_26  and  O_27
REMARK                            x       y       z     vdW  Elec       q    Type
REMARK                         _______ _______ _______ _____ _____    ______ ____
ROOT
ATOM      1  N   UNL     1       6.958   8.008  17.136  0.00  0.00    +0.000 N 
ATOM      2  C   UNL     1       7.124   6.684  17.566  0.00  0.00    +0.000 C 
ATOM      3  O   UNL     1       7.851   6.390  18.527  0.00  0.00    +0.000 OA
ATOM      4  H   UNL     1       6.497   8.245  16.264  0.00  0.00    +0.000 HD
ENDROOT
BRANCH   1   6
ATOM      5  C   UNL     1       8.664   9.545  17.461  0.00  0.00    +0.000 C 
ATOM      6  N   UNL     1       7.592   8.961  17.872  0.00  0.00    +0.000 NA
BRANCH   5  10
ATOM      7  C   UNL     1      10.425  12.442  20.113  0.00  0.00    +0.000 A 
ATOM      8  C   UNL     1      10.639  12.519  18.725  0.00  0.00    +0.000 A 
ATOM      9  C   UNL     1      10.081  11.584  17.841  0.00  0.00    +0.000 A 
ATOM     10  C   UNL     1       9.289  10.559  18.351  0.00  0.00    +0.000 A 
ATOM     11  C   UNL     1       9.077  10.466  19.734  0.00  0.00    +0.000 A 
ATOM     12  C   UNL     1       9.640  11.397  20.609  0.00  0.00    +0.000 A 
BRANCH   7  14
ATOM     13  C   UNL     1      11.299  14.673  20.144  0.00  0.00    +0.000 C 
ATOM     14  O   UNL     1      11.042  13.442  20.813  0.00  0.00    +0.000 OA
ENDBRANCH   7  14
BRANCH  12  15
ATOM     15  O   UNL     1       9.401  11.244  21.946  0.00  0.00    +0.000 OA
ATOM     16  H   UNL     1      10.217  11.432  22.440  0.00  0.00    +0.000 HD
ENDBRANCH  12  15
ENDBRANCH   5  10
ENDBRANCH   1   6
BRANCH   2  17
ATOM     17  C   UNL     1       6.383   5.606  16.728  0.00  0.00    +0.000 C 
BRANCH  17  18
ATOM     18  C   UNL     1       5.226   4.853  17.407  0.00  0.00    +0.000 A 
ATOM     19  C   UNL     1       4.730   3.624  16.950  0.00  0.00    +0.000 A 
ATOM     20  C   UNL     1       3.685   2.973  17.616  0.00  0.00    +0.000 A 
ATOM     21  C   UNL     1       3.116   3.526  18.760  0.00  0.00    +0.000 A 
ATOM     22  C   UNL     1       3.558   4.760  19.212  0.00  0.00    +0.000 A 
ATOM     23  C   UNL     1       4.615   5.407  18.555  0.00  0.00    +0.000 A 
ATOM     24  O   UNL     1       2.987   5.425  20.258  0.00  0.00    +0.000 OA
ATOM     25  C   UNL     1       2.201   4.591  21.104  0.00  0.00    +0.000 C 
ATOM     26  C   UNL     1       1.471   3.437  20.428  0.00  0.00    +0.000 C 
ATOM     27  O   UNL     1       2.156   2.779  19.371  0.00  0.00    +0.000 OA
ENDBRANCH  17  18
BRANCH  17  28
ATOM     28  O   UNL     1       7.325   4.693  16.136  0.00  0.00    +0.000 OA
ATOM     29  C   UNL     1       7.321   4.715  14.708  0.00  0.00    +0.000 C 
ENDBRANCH  17  28
ENDBRANCH   2  17
TORSDOF 7
ENDMDL
MODEL 7
REMARK VINA RESULT:      -7.6      5.910      7.676
REMARK  Name = 
REMARK  9 active torsions:
REMARK  status: ('A' for Active; 'I' for Inactive)
REMARK    1  A    between atoms: C_1  and  O_2
REMARK    2  A    between atoms: O_2  and  C_3
REMARK    3  A    between atoms: C_6  and  C_7
REMARK    4  A    between atoms: N_8  and  N_9
REMARK    5  A    between atoms: C_10  and  C_12
REMARK    6  A    between atoms: C_12  and  O_13
REMARK    7  A    between atoms: C_12  and  C_15
REMARK    8  A    between atoms: O_13  and  C_14
REMARK    9  A    between atoms: C_26  and  O_27
REMARK                            x       y       z     vdW  Elec       q    Type
REMARK                         _______ _______ _______ _____ _____    ______ ____
ROOT
ATOM      1  N   UNL     1       2.425   6.889  20.433  0.00  0.00    +0.000 N 
ATOM      2  C   UNL     1       2.750   6.518  19.121  0.00  0.00    +0.000 C 
ATOM      3  O   UNL     1       2.278   7.105  18.135  0.00  0.00    +0.000 OA
ATOM      4  H   UNL     1       2.677   6.325  21.238  0.00  0.00    +0.000 HD
ENDROOT
BRANCH   1   6
ATOM      5  C   UNL     1       1.203   8.385  21.715  0.00  0.00    +0.000 C 
ATOM      6  N   UNL     1       1.611   7.970  20.566  0.00  0.00    +0.000 NA
BRANCH   5  10
ATOM      7  C   UNL     1      -1.390  11.821  21.722  0.00  0.00    +0.000 A 
ATOM      8  C   UNL     1      -1.159  11.096  22.905  0.00  0.00    +0.000 A 
ATOM      9  C   UNL     1      -0.324   9.970  22.927  0.00  0.00    +0.000 A 
ATOM     10  C   UNL     1       0.299   9.565  21.749  0.00  0.00    +0.000 A 
ATOM     11  C   UNL     1       0.067  10.273  20.561  0.00  0.00    +0.000 A 
ATOM     12  C   UNL     1      -0.770  11.389  20.545  0.00  0.00    +0.000 A 
BRANCH   7  14
ATOM     13  C   UNL     1      -2.320  13.468  23.192  0.00  0.00    +0.000 C 
ATOM     14  O   UNL     1      -2.227  12.889  21.894  0.00  0.00    +0.000 OA
ENDBRANCH   7  14
BRANCH  12  15
ATOM     15  O   UNL     1      -0.959  12.029  19.352  0.00  0.00    +0.000 OA
ATOM     16  H   UNL     1      -1.859  12.397  19.326  0.00  0.00    +0.000 HD
ENDBRANCH  12  15
ENDBRANCH   5  10
ENDBRANCH   1   6
BRANCH   2  17
ATOM     17  C   UNL     1       3.693   5.292  18.982  0.00  0.00    +0.000 C 
BRANCH  17  18
ATOM     18  C   UNL     1       4.784   5.357  17.899  0.00  0.00    +0.000 A 
ATOM     19  C   UNL     1       6.018   5.997  18.082  0.00  0.00    +0.000 A 
ATOM     20  C   UNL     1       6.983   6.010  17.067  0.00  0.00    +0.000 A 
ATOM     21  C   UNL     1       6.745   5.378  15.851  0.00  0.00    +0.000 A 
ATOM     22  C   UNL     1       5.519   4.772  15.626  0.00  0.00    +0.000 A 
ATOM     23  C   UNL     1       4.556   4.744  16.646  0.00  0.00    +0.000 A 
ATOM     24  O   UNL     1       5.160   4.223  14.429  0.00  0.00    +0.000 OA
ATOM     25  C   UNL     1       6.265   3.942  13.576  0.00  0.00    +0.000 C 
ATOM     26  C   UNL     1       7.451   4.895  13.667  0.00  0.00    +0.000 C 
ATOM     27  O   UNL     1       7.775   5.389  14.960  0.00  0.00    +0.000 OA
ENDBRANCH  17  18
BRANCH  17  28
ATOM     28  O   UNL     1       2.929   4.077  18.881  0.00  0.00    +0.000 OA
ATOM     29  C   UNL     1       2.835   3.357  20.111  0.00  0.00    +0.000 C 
ENDBRANCH  17  28
ENDBRANCH   2  17
TORSDOF 7
ENDMDL
MODEL 8
REMARK VINA RESULT:      -7.6      1.195      1.235
REMARK  Name = 
REMARK  9 active torsions:
REMARK  status: ('A' for Active; 'I' for Inactive)
REMARK    1  A    between atoms: C_1  and  O_2
REMARK    2  A    between atoms: O_2  and  C_3
REMARK    3  A    between atoms: C_6  and  C_7
REMARK    4  A    between atoms: N_8  and  N_9
REMARK    5  A    between atoms: C_10  and  C_12
REMARK    6  A    between atoms: C_12  and  O_13
REMARK    7  A    between atoms: C_12  and  C_15
REMARK    8  A    between atoms: O_13  and  C_14
REMARK    9  A    between atoms: C_26  and  O_27
REMARK                            x       y       z     vdW  Elec       q    Type
REMARK                         _______ _______ _______ _____ _____    ______ ____
ROOT
ATOM      1  N   UNL     1       6.586   6.596  17.382  0.00  0.00    +0.000 N 
ATOM      2  C   UNL     1       5.700   6.359  16.323  0.00  0.00    +0.000 C 
ATOM      3  O   UNL     1       5.327   7.265  15.562  0.00  0.00    +0.000 OA
ATOM      4  H   UNL     1       6.775   5.905  18.101  0.00  0.00    +0.000 HD
ENDROOT
BRANCH   1   6
ATOM      5  C   UNL     1       8.117   8.145  18.179  0.00  0.00    +0.000 C 
ATOM      6  N   UNL     1       7.064   7.865  17.492  0.00  0.00    +0.000 NA
BRANCH   5  10
ATOM      7  C   UNL     1       9.292  12.283  18.315  0.00  0.00    +0.000 A 
ATOM      8  C   UNL     1       9.963  11.323  19.093  0.00  0.00    +0.000 A 
ATOM      9  C   UNL     1       9.595   9.970  19.070  0.00  0.00    +0.000 A 
ATOM     10  C   UNL     1       8.544   9.567  18.251  0.00  0.00    +0.000 A 
ATOM     11  C   UNL     1       7.861  10.517  17.479  0.00  0.00    +0.000 A 
ATOM     12  C   UNL     1       8.228  11.863  17.510  0.00  0.00    +0.000 A 
BRANCH   7  14
ATOM     13  C   UNL     1      10.766  13.999  17.526  0.00  0.00    +0.000 C 
ATOM     14  O   UNL     1       9.793  13.548  18.462  0.00  0.00    +0.000 OA
ENDBRANCH   7  14
BRANCH  12  15
ATOM     15  O   UNL     1       7.516  12.739  16.739  0.00  0.00    +0.000 OA
ATOM     16  H   UNL     1       6.882  13.217  17.302  0.00  0.00    +0.000 HD
ENDBRANCH  12  15
ENDBRANCH   5  10
ENDBRANCH   1   6
BRANCH   2  17
ATOM     17  C   UNL     1       5.173   4.904  16.198  0.00  0.00    +0.000 C 
BRANCH  17  18
ATOM     18  C   UNL     1       4.539   4.270  17.449  0.00  0.00    +0.000 A 
ATOM     19  C   UNL     1       5.253   3.479  18.361  0.00  0.00    +0.000 A 
ATOM     20  C   UNL     1       4.630   2.941  19.493  0.00  0.00    +0.000 A 
ATOM     21  C   UNL     1       3.283   3.185  19.749  0.00  0.00    +0.000 A 
ATOM     22  C   UNL     1       2.543   3.929  18.843  0.00  0.00    +0.000 A 
ATOM     23  C   UNL     1       3.168   4.483  17.716  0.00  0.00    +0.000 A 
ATOM     24  O   UNL     1       1.197   4.128  18.957  0.00  0.00    +0.000 OA
ATOM     25  C   UNL     1       0.693   3.884  20.267  0.00  0.00    +0.000 C 
ATOM     26  C   UNL     1       1.385   2.785  21.066  0.00  0.00    +0.000 C 
ATOM     27  O   UNL     1       2.794   2.675  20.912  0.00  0.00    +0.000 OA
ENDBRANCH  17  18
BRANCH  17  28
ATOM     28  O   UNL     1       6.184   4.048  15.634  0.00  0.00    +0.000 OA
ATOM     29  C   UNL     1       6.225   4.077  14.207  0.00  0.00    +0.000 C 
ENDBRANCH  17  28
ENDBRANCH   2  17
TORSDOF 7
ENDMDL
MODEL 9
REMARK VINA RESULT:      -7.5      1.131      1.213
REMARK  Name = 
REMARK  9 active torsions:
REMARK  status: ('A' for Active; 'I' for Inactive)
REMARK    1  A    between atoms: C_1  and  O_2
REMARK    2  A    between atoms: O_2  and  C_3
REMARK    3  A    between atoms: C_6  and  C_7
REMARK    4  A    between atoms: N_8  and  N_9
REMARK    5  A    between atoms: C_10  and  C_12
REMARK    6  A    between atoms: C_12  and  O_13
REMARK    7  A    between atoms: C_12  and  C_15
REMARK    8  A    between atoms: O_13  and  C_14
REMARK    9  A    between atoms: C_26  and  O_27
REMARK                            x       y       z     vdW  Elec       q    Type
REMARK                         _______ _______ _______ _____ _____    ______ ____
ROOT
ATOM      1  N   UNL     1       7.207   8.013  17.255  0.00  0.00    +0.000 N 
ATOM      2  C   UNL     1       7.278   6.711  17.768  0.00  0.00    +0.000 C 
ATOM      3  O   UNL     1       7.944   6.438  18.779  0.00  0.00    +0.000 OA
ATOM      4  H   UNL     1       6.799   8.222  16.350  0.00  0.00    +0.000 HD
ENDROOT
BRANCH   1   6
ATOM      5  C   UNL     1       8.321  10.042  17.411  0.00  0.00    +0.000 C 
ATOM      6  N   UNL     1       7.859   8.974  17.964  0.00  0.00    +0.000 NA
BRANCH   5  10
ATOM      7  C   UNL     1      10.384  12.939  19.835  0.00  0.00    +0.000 A 
ATOM      8  C   UNL     1      10.254  11.607  20.267  0.00  0.00    +0.000 A 
ATOM      9  C   UNL     1       9.581  10.646  19.498  0.00  0.00    +0.000 A 
ATOM     10  C   UNL     1       9.035  11.020  18.273  0.00  0.00    +0.000 A 
ATOM     11  C   UNL     1       9.149  12.347  17.837  0.00  0.00    +0.000 A 
ATOM     12  C   UNL     1       9.815  13.300  18.609  0.00  0.00    +0.000 A 
BRANCH   7  14
ATOM     13  C   UNL     1      10.333  14.612  21.549  0.00  0.00    +0.000 C 
ATOM     14  O   UNL     1      11.074  13.730  20.712  0.00  0.00    +0.000 OA
ENDBRANCH   7  14
BRANCH  12  15
ATOM     15  O   UNL     1       9.883  14.578  18.130  0.00  0.00    +0.000 OA
ATOM     16  H   UNL     1      10.626  15.040  18.554  0.00  0.00    +0.000 HD
ENDBRANCH  12  15
ENDBRANCH   5  10
ENDBRANCH   1   6
BRANCH   2  17
ATOM     17  C   UNL     1       6.517   5.626  16.959  0.00  0.00    +0.000 C 
BRANCH  17  18
ATOM     18  C   UNL     1       5.477   4.779  17.713  0.00  0.00    +0.000 A 
ATOM     19  C   UNL     1       5.764   4.065  18.885  0.00  0.00    +0.000 A 
ATOM     20  C   UNL     1       4.774   3.324  19.541  0.00  0.00    +0.000 A 
ATOM     21  C   UNL     1       3.473   3.283  19.049  0.00  0.00    +0.000 A 
ATOM     22  C   UNL     1       3.169   3.946  17.870  0.00  0.00    +0.000 A 
ATOM     23  C   UNL     1       4.155   4.703  17.219  0.00  0.00    +0.000 A 
ATOM     24  O   UNL     1       1.950   3.874  17.261  0.00  0.00    +0.000 OA
ATOM     25  C   UNL     1       0.907   3.428  18.121  0.00  0.00    +0.000 C 
ATOM     26  C   UNL     1       1.298   2.418  19.194  0.00  0.00    +0.000 C 
ATOM     27  O   UNL     1       2.572   2.592  19.801  0.00  0.00    +0.000 OA
ENDBRANCH  17  18
BRANCH  17  28
ATOM     28  O   UNL     1       7.443   4.794  16.236  0.00  0.00    +0.000 OA
ATOM     29  C   UNL     1       7.083   4.596  14.868  0.00  0.00    +0.000 C 
ENDBRANCH  17  28
ENDBRANCH   2  17
TORSDOF 7
ENDMDL
