MODEL 1
REMARK VINA RESULT:      -7.7      0.000      0.000
REMARK  Name = 
REMARK  9 active torsions:
REMARK  status: ('A' for Active; 'I' for Inactive)
REMARK    1  A    between atoms: C_1  and  O_2
REMARK    2  A    between atoms: O_2  and  C_3
REMARK    3  A    between atoms: C_6  and  C_7
REMARK    4  A    between atoms: C_7  and  C_8
REMARK    5  A    between atoms: C_8  and  N_9
REMARK    6  A    between atoms: C_13  and  N_14
REMARK    7  A    between atoms: C_17  and  C_18
REMARK    8  A    between atoms: C_26  and  O_27
REMARK    9  A    between atoms: O_27  and  C_28
REMARK                            x       y       z     vdW  Elec       q    Type
REMARK                         _______ _______ _______ _____ _____    ______ ____
ROOT
ATOM      1  N   UNL     1       1.981   3.787  19.245  0.00  0.00    +0.000 N 
ATOM      2  C   UNL     1       1.763   3.864  17.896  0.00  0.00    +0.000 C 
ATOM      3  O   UNL     1       0.900   4.540  17.337  0.00  0.00    +0.000 OA
ATOM      4  C   UNL     1       2.716   2.969  17.177  0.00  0.00    +0.000 C 
ATOM      5  C   UNL     1       3.768   2.623  18.232  0.00  0.00    +0.000 C 
ATOM      6  C   UNL     1       3.076   3.022  19.541  0.00  0.00    +0.000 C 
ATOM      7  O   UNL     1       3.480   2.744  20.662  0.00  0.00    +0.000 OA
ENDROOT
BRANCH   5   8
ATOM      8  N   UNL     1       5.076   3.319  18.021  0.00  0.00    +0.000 NA
ATOM      9  C   UNL     1       5.334   3.621  16.603  0.00  0.00    +0.000 C 
ATOM     10  C   UNL     1       6.641   4.383  16.378  0.00  0.00    +0.000 C 
ATOM     11  C   UNL     1       6.672   5.675  17.196  0.00  0.00    +0.000 C 
ATOM     12  C   UNL     1       6.471   5.306  18.667  0.00  0.00    +0.000 C 
ATOM     13  C   UNL     1       5.182   4.507  18.887  0.00  0.00    +0.000 C 
BRANCH  11  14
ATOM     14  C   UNL     1       5.650   6.678  16.653  0.00  0.00    +0.000 C 
ATOM     15  N   UNL     1       5.438   6.672  15.310  0.00  0.00    +0.000 N 
ATOM     16  O   UNL     1       4.987   7.434  17.357  0.00  0.00    +0.000 OA
ATOM     17  H   UNL     1       5.848   6.010  14.670  0.00  0.00    +0.000 HD
ATOM     18  H   UNL     1       4.727   7.307  14.967  0.00  0.00    +0.000 HD
ENDBRANCH  11  14
ENDBRANCH   5   8
BRANCH   1  19
ATOM     19  C   UNL     1       1.295   4.620  20.223  0.00  0.00    +0.000 C 
BRANCH  19  20
ATOM     20  C   UNL     1       2.179   5.715  20.816  0.00  0.00    +0.000 C 
BRANCH  20  24
ATOM     21  C   UNL     1       1.097   9.595  19.234  0.00  0.00    +0.000 A 
ATOM     22  C   UNL     1       1.839   8.677  18.470  0.00  0.00    +0.000 A 
ATOM     23  C   UNL     1       2.168   7.418  18.966  0.00  0.00    +0.000 A 
ATOM     24  C   UNL     1       1.835   7.079  20.274  0.00  0.00    +0.000 A 
ATOM     25  C   UNL     1       1.176   8.025  21.069  0.00  0.00    +0.000 A 
ATOM     26  C   UNL     1       0.804   9.287  20.571  0.00  0.00    +0.000 A 
BRANCH  21  28
ATOM     27  C   UNL     1       1.570  11.880  18.865  0.00  0.00    +0.000 C 
ATOM     28  O   UNL     1       0.677  10.776  18.682  0.00  0.00    +0.000 OA
ENDBRANCH  21  28
BRANCH  26  29
ATOM     29  O   UNL     1       0.162  10.034  21.521  0.00  0.00    +0.000 OA
ATOM     30  C   UNL     1      -0.255   9.432  22.734  0.00  0.00    +0.000 C 
ENDBRANCH  26  29
ENDBRANCH  20  24
ENDBRANCH  19  20
ENDBRANCH   1  19
TORSDOF 7
ENDMDL
MODEL 2
REMARK VINA RESULT:      -7.6      3.578      5.724
REMARK  Name = 
REMARK  9 active torsions:
REMARK  status: ('A' for Active; 'I' for Inactive)
REMARK    1  A    between atoms: C_1  and  O_2
REMARK    2  A    between atoms: O_2  and  C_3
REMARK    3  A    between atoms: C_6  and  C_7
REMARK    4  A    between atoms: C_7  and  C_8
REMARK    5  A    between atoms: C_8  and  N_9
REMARK    6  A    between atoms: C_13  and  N_14
REMARK    7  A    between atoms: C_17  and  C_18
REMARK    8  A    between atoms: C_26  and  O_27
REMARK    9  A    between atoms: O_27  and  C_28
REMARK                            x       y       z     vdW  Elec       q    Type
REMARK                         _______ _______ _______ _____ _____    ______ ____
ROOT
ATOM      1  N   UNL     1       1.134   9.243  19.292  0.00  0.00    +0.000 N 
ATOM      2  C   UNL     1       0.815   8.911  20.580  0.00  0.00    +0.000 C 
ATOM      3  O   UNL     1      -0.037   9.457  21.281  0.00  0.00    +0.000 OA
ATOM      4  C   UNL     1       1.684   7.790  21.046  0.00  0.00    +0.000 C 
ATOM      5  C   UNL     1       2.314   7.251  19.761  0.00  0.00    +0.000 C 
ATOM      6  C   UNL     1       2.058   8.384  18.759  0.00  0.00    +0.000 C 
ATOM      7  O   UNL     1       2.558   8.464  17.645  0.00  0.00    +0.000 OA
ENDROOT
BRANCH   5   8
ATOM      8  N   UNL     1       1.746   5.938  19.322  0.00  0.00    +0.000 NA
ATOM      9  C   UNL     1       2.564   5.287  18.285  0.00  0.00    +0.000 C 
ATOM     10  C   UNL     1       2.026   3.918  17.867  0.00  0.00    +0.000 C 
ATOM     11  C   UNL     1       1.887   2.990  19.075  0.00  0.00    +0.000 C 
ATOM     12  C   UNL     1       0.976   3.675  20.094  0.00  0.00    +0.000 C 
ATOM     13  C   UNL     1       1.491   5.065  20.482  0.00  0.00    +0.000 C 
BRANCH  11  14
ATOM     14  C   UNL     1       3.267   2.609  19.621  0.00  0.00    +0.000 C 
ATOM     15  N   UNL     1       4.264   2.450  18.711  0.00  0.00    +0.000 N 
ATOM     16  O   UNL     1       3.527   2.497  20.815  0.00  0.00    +0.000 OA
ATOM     17  H   UNL     1       4.172   2.636  17.725  0.00  0.00    +0.000 HD
ATOM     18  H   UNL     1       5.183   2.244  19.086  0.00  0.00    +0.000 HD
ENDBRANCH  11  14
ENDBRANCH   5   8
BRANCH   1  19
ATOM     19  C   UNL     1       0.400  10.222  18.503  0.00  0.00    +0.000 C 
BRANCH  19  20
ATOM     20  C   UNL     1      -0.604   9.596  17.538  0.00  0.00    +0.000 C 
BRANCH  20  24
ATOM     21  C   UNL     1      -4.442  11.593  17.610  0.00  0.00    +0.000 A 
ATOM     22  C   UNL     1      -4.045  10.816  16.507  0.00  0.00    +0.000 A 
ATOM     23  C   UNL     1      -2.821  10.152  16.491  0.00  0.00    +0.000 A 
ATOM     24  C   UNL     1      -1.926  10.319  17.544  0.00  0.00    +0.000 A 
ATOM     25  C   UNL     1      -2.281  11.165  18.602  0.00  0.00    +0.000 A 
ATOM     26  C   UNL     1      -3.529  11.813  18.651  0.00  0.00    +0.000 A 
BRANCH  21  28
ATOM     27  C   UNL     1      -6.702  11.280  18.221  0.00  0.00    +0.000 C 
ATOM     28  O   UNL     1      -5.700  12.134  17.660  0.00  0.00    +0.000 OA
ENDBRANCH  21  28
BRANCH  26  29
ATOM     29  O   UNL     1      -3.656  12.574  19.782  0.00  0.00    +0.000 OA
ATOM     30  C   UNL     1      -2.639  12.552  20.769  0.00  0.00    +0.000 C 
ENDBRANCH  26  29
ENDBRANCH  20  24
ENDBRANCH  19  20
ENDBRANCH   1  19
TORSDOF 7
ENDMDL
MODEL 3
REMARK VINA RESULT:      -7.4      4.370      6.994
REMARK  Name = 
REMARK  9 active torsions:
REMARK  status: ('A' for Active; 'I' for Inactive)
REMARK    1  A    between atoms: C_1  and  O_2
REMARK    2  A    between atoms: O_2  and  C_3
REMARK    3  A    between atoms: C_6  and  C_7
REMARK    4  A    between atoms: C_7  and  C_8
REMARK    5  A    between atoms: C_8  and  N_9
REMARK    6  A    between atoms: C_13  and  N_14
REMARK    7  A    between atoms: C_17  and  C_18
REMARK    8  A    between atoms: C_26  and  O_27
REMARK    9  A    between atoms: O_27  and  C_28
REMARK                            x       y       z     vdW  Elec       q    Type
REMARK                         _______ _______ _______ _____ _____    ______ ____
ROOT
ATOM      1  N   UNL     1       6.957   6.780  17.476  0.00  0.00    +0.000 N 
ATOM      2  C   UNL     1       7.246   5.886  18.470  0.00  0.00    +0.000 C 
ATOM      3  O   UNL     1       8.054   6.050  19.383  0.00  0.00    +0.000 OA
ATOM      4  C   UNL     1       6.453   4.636  18.274  0.00  0.00    +0.000 C 
ATOM      5  C   UNL     1       5.388   5.030  17.249  0.00  0.00    +0.000 C 
ATOM      6  C   UNL     1       5.946   6.335  16.668  0.00  0.00    +0.000 C 
ATOM      7  O   UNL     1       5.511   6.905  15.676  0.00  0.00    +0.000 OA
ENDROOT
BRANCH   5   8
ATOM      8  N   UNL     1       4.021   5.185  17.838  0.00  0.00    +0.000 NA
ATOM      9  C   UNL     1       3.061   4.206  17.302  0.00  0.00    +0.000 C 
ATOM     10  C   UNL     1       1.673   4.316  17.937  0.00  0.00    +0.000 C 
ATOM     11  C   UNL     1       1.752   4.184  19.458  0.00  0.00    +0.000 C 
ATOM     12  C   UNL     1       2.704   5.263  19.976  0.00  0.00    +0.000 C 
ATOM     13  C   UNL     1       4.082   5.179  19.311  0.00  0.00    +0.000 C 
BRANCH  11  14
ATOM     14  C   UNL     1       2.143   2.757  19.854  0.00  0.00    +0.000 C 
ATOM     15  N   UNL     1       1.691   1.753  19.055  0.00  0.00    +0.000 N 
ATOM     16  O   UNL     1       2.873   2.481  20.801  0.00  0.00    +0.000 OA
ATOM     17  H   UNL     1       1.187   1.892  18.194  0.00  0.00    +0.000 HD
ATOM     18  H   UNL     1       1.994   0.818  19.299  0.00  0.00    +0.000 HD
ENDBRANCH  11  14
ENDBRANCH   5   8
BRANCH   1  19
ATOM     19  C   UNL     1       7.477   8.140  17.436  0.00  0.00    +0.000 C 
BRANCH  19  20
ATOM     20  C   UNL     1       8.493   8.434  18.538  0.00  0.00    +0.000 C 
BRANCH  20  24
ATOM     21  C   UNL     1       9.624  12.610  18.613  0.00  0.00    +0.000 A 
ATOM     22  C   UNL     1      10.252  11.669  19.448  0.00  0.00    +0.000 A 
ATOM     23  C   UNL     1       9.908  10.320  19.409  0.00  0.00    +0.000 A 
ATOM     24  C   UNL     1       8.865   9.894  18.593  0.00  0.00    +0.000 A 
ATOM     25  C   UNL     1       8.176  10.843  17.827  0.00  0.00    +0.000 A 
ATOM     26  C   UNL     1       8.536  12.203  17.827  0.00  0.00    +0.000 A 
BRANCH  21  28
ATOM     27  C   UNL     1      10.869  14.303  19.693  0.00  0.00    +0.000 C 
ATOM     28  O   UNL     1      10.064  13.908  18.577  0.00  0.00    +0.000 OA
ENDBRANCH  21  28
BRANCH  26  29
ATOM     29  O   UNL     1       7.733  12.936  16.997  0.00  0.00    +0.000 OA
ATOM     30  C   UNL     1       6.900  13.952  17.530  0.00  0.00    +0.000 C 
ENDBRANCH  26  29
ENDBRANCH  20  24
ENDBRANCH  19  20
ENDBRANCH   1  19
TORSDOF 7
ENDMDL
MODEL 4
REMARK VINA RESULT:      -7.4      3.775      6.072
REMARK  Name = 
REMARK  9 active torsions:
REMARK  status: ('A' for Active; 'I' for Inactive)
REMARK    1  A    between atoms: C_1  and  O_2
REMARK    2  A    between atoms: O_2  and  C_3
REMARK    3  A    between atoms: C_6  and  C_7
REMARK    4  A    between atoms: C_7  and  C_8
REMARK    5  A    between atoms: C_8  and  N_9
REMARK    6  A    between atoms: C_13  and  N_14
REMARK    7  A    between atoms: C_17  and  C_18
REMARK    8  A    between atoms: C_26  and  O_27
REMARK    9  A    between atoms: O_27  and  C_28
REMARK                            x       y       z     vdW  Elec       q    Type
REMARK                         _______ _______ _______ _____ _____    ______ ____
ROOT
ATOM      1  N   UNL     1       1.133   9.149  19.536  0.00  0.00    +0.000 N 
ATOM      2  C   UNL     1       0.885   8.714  20.809  0.00  0.00    +0.000 C 
ATOM      3  O   UNL     1       0.068   9.194  21.594  0.00  0.00    +0.000 OA
ATOM      4  C   UNL     1       1.785   7.570  21.139  0.00  0.00    +0.000 C 
ATOM      5  C   UNL     1       2.349   7.140  19.784  0.00  0.00    +0.000 C 
ATOM      6  C   UNL     1       2.032   8.345  18.889  0.00  0.00    +0.000 C 
ATOM      7  O   UNL     1       2.472   8.517  17.761  0.00  0.00    +0.000 OA
ENDROOT
BRANCH   5   8
ATOM      8  N   UNL     1       1.768   5.859  19.274  0.00  0.00    +0.000 NA
ATOM      9  C   UNL     1       2.607   5.230  18.241  0.00  0.00    +0.000 C 
ATOM     10  C   UNL     1       2.054   3.890  17.751  0.00  0.00    +0.000 C 
ATOM     11  C   UNL     1       1.851   2.920  18.915  0.00  0.00    +0.000 C 
ATOM     12  C   UNL     1       0.919   3.587  19.928  0.00  0.00    +0.000 C 
ATOM     13  C   UNL     1       1.452   4.947  20.389  0.00  0.00    +0.000 C 
BRANCH  11  14
ATOM     14  C   UNL     1       3.202   2.485  19.493  0.00  0.00    +0.000 C 
ATOM     15  N   UNL     1       4.117   1.998  18.613  0.00  0.00    +0.000 N 
ATOM     16  O   UNL     1       3.514   2.603  20.674  0.00  0.00    +0.000 OA
ATOM     17  H   UNL     1       3.992   1.975  17.614  0.00  0.00    +0.000 HD
ATOM     18  H   UNL     1       5.022   1.757  18.999  0.00  0.00    +0.000 HD
ENDBRANCH  11  14
ENDBRANCH   5   8
BRANCH   1  19
ATOM     19  C   UNL     1       0.351  10.179  18.866  0.00  0.00    +0.000 C 
BRANCH  19  20
ATOM     20  C   UNL     1      -0.376   9.676  17.621  0.00  0.00    +0.000 C 
BRANCH  20  24
ATOM     21  C   UNL     1      -4.218  11.605  17.124  0.00  0.00    +0.000 A 
ATOM     22  C   UNL     1      -3.638  11.451  18.396  0.00  0.00    +0.000 A 
ATOM     23  C   UNL     1      -2.391  10.853  18.557  0.00  0.00    +0.000 A 
ATOM     24  C   UNL     1      -1.731  10.317  17.456  0.00  0.00    +0.000 A 
ATOM     25  C   UNL     1      -2.347  10.387  16.200  0.00  0.00    +0.000 A 
ATOM     26  C   UNL     1      -3.589  11.021  16.015  0.00  0.00    +0.000 A 
BRANCH  21  28
ATOM     27  C   UNL     1      -6.481  11.830  17.761  0.00  0.00    +0.000 C 
ATOM     28  O   UNL     1      -5.385  12.308  16.975  0.00  0.00    +0.000 OA
ENDBRANCH  21  28
BRANCH  26  29
ATOM     29  O   UNL     1      -3.986  10.978  14.705  0.00  0.00    +0.000 OA
ATOM     30  C   UNL     1      -3.507   9.951  13.853  0.00  0.00    +0.000 C 
ENDBRANCH  26  29
ENDBRANCH  20  24
ENDBRANCH  19  20
ENDBRANCH   1  19
TORSDOF 7
ENDMDL
MODEL 5
REMARK VINA RESULT:      -7.4      1.467      1.796
REMARK  Name = 
REMARK  9 active torsions:
REMARK  status: ('A' for Active; 'I' for Inactive)
REMARK    1  A    between atoms: C_1  and  O_2
REMARK    2  A    between atoms: O_2  and  C_3
REMARK    3  A    between atoms: C_6  and  C_7
REMARK    4  A    between atoms: C_7  and  C_8
REMARK    5  A    between atoms: C_8  and  N_9
REMARK    6  A    between atoms: C_13  and  N_14
REMARK    7  A    between atoms: C_17  and  C_18
REMARK    8  A    between atoms: C_26  and  O_27
REMARK    9  A    between atoms: O_27  and  C_28
REMARK                            x       y       z     vdW  Elec       q    Type
REMARK                         _______ _______ _______ _____ _____    ______ ____
ROOT
ATOM      1  N   UNL     1       2.041   3.646  19.453  0.00  0.00    +0.000 N 
ATOM      2  C   UNL     1       1.440   2.806  18.556  0.00  0.00    +0.000 C 
ATOM      3  O   UNL     1       0.232   2.594  18.456  0.00  0.00    +0.000 OA
ATOM      4  C   UNL     1       2.476   2.139  17.714  0.00  0.00    +0.000 C 
ATOM      5  C   UNL     1       3.745   2.952  17.972  0.00  0.00    +0.000 C 
ATOM      6  C   UNL     1       3.391   3.733  19.244  0.00  0.00    +0.000 C 
ATOM      7  O   UNL     1       4.185   4.372  19.920  0.00  0.00    +0.000 OA
ENDROOT
BRANCH   5   8
ATOM      8  N   UNL     1       4.131   3.836  16.828  0.00  0.00    +0.000 NA
ATOM      9  C   UNL     1       4.406   5.219  17.251  0.00  0.00    +0.000 C 
ATOM     10  C   UNL     1       4.857   6.121  16.100  0.00  0.00    +0.000 C 
ATOM     11  C   UNL     1       6.085   5.541  15.396  0.00  0.00    +0.000 C 
ATOM     12  C   UNL     1       5.731   4.134  14.914  0.00  0.00    +0.000 C 
ATOM     13  C   UNL     1       5.239   3.242  16.059  0.00  0.00    +0.000 C 
BRANCH  11  14
ATOM     14  C   UNL     1       7.309   5.602  16.314  0.00  0.00    +0.000 C 
ATOM     15  N   UNL     1       7.624   6.817  16.836  0.00  0.00    +0.000 N 
ATOM     16  O   UNL     1       7.974   4.623  16.640  0.00  0.00    +0.000 OA
ATOM     17  H   UNL     1       7.069   7.651  16.720  0.00  0.00    +0.000 HD
ATOM     18  H   UNL     1       8.407   6.838  17.479  0.00  0.00    +0.000 HD
ENDBRANCH  11  14
ENDBRANCH   5   8
BRANCH   1  19
ATOM     19  C   UNL     1       1.308   4.532  20.347  0.00  0.00    +0.000 C 
BRANCH  19  20
ATOM     20  C   UNL     1       2.172   5.639  20.948  0.00  0.00    +0.000 C 
BRANCH  20  24
ATOM     21  C   UNL     1       1.092   9.496  19.311  0.00  0.00    +0.000 A 
ATOM     22  C   UNL     1       1.856   8.578  18.570  0.00  0.00    +0.000 A 
ATOM     23  C   UNL     1       2.185   7.326  19.084  0.00  0.00    +0.000 A 
ATOM     24  C   UNL     1       1.828   6.996  20.388  0.00  0.00    +0.000 A 
ATOM     25  C   UNL     1       1.146   7.944  21.161  0.00  0.00    +0.000 A 
ATOM     26  C   UNL     1       0.774   9.198  20.644  0.00  0.00    +0.000 A 
BRANCH  21  28
ATOM     27  C   UNL     1      -0.679  10.664  18.272  0.00  0.00    +0.000 C 
ATOM     28  O   UNL     1       0.673  10.670  18.740  0.00  0.00    +0.000 OA
ENDBRANCH  21  28
BRANCH  26  29
ATOM     29  O   UNL     1       0.108   9.948  21.575  0.00  0.00    +0.000 OA
ATOM     30  C   UNL     1      -0.224   9.386  22.833  0.00  0.00    +0.000 C 
ENDBRANCH  26  29
ENDBRANCH  20  24
ENDBRANCH  19  20
ENDBRANCH   1  19
TORSDOF 7
ENDMDL
MODEL 6
REMARK VINA RESULT:      -7.4      2.370      3.881
REMARK  Name = 
REMARK  9 active torsions:
REMARK  status: ('A' for Active; 'I' for Inactive)
REMARK    1  A    between atoms: C_1  and  O_2
REMARK    2  A    between atoms: O_2  and  C_3
REMARK    3  A    between atoms: C_6  and  C_7
REMARK    4  A    between atoms: C_7  and  C_8
REMARK    5  A    between atoms: C_8  and  N_9
REMARK    6  A    between atoms: C_13  and  N_14
REMARK    7  A    between atoms: C_17  and  C_18
REMARK    8  A    between atoms: C_26  and  O_27
REMARK    9  A    between atoms: O_27  and  C_28
REMARK                            x       y       z     vdW  Elec       q    Type
REMARK                         _______ _______ _______ _____ _____    ______ ____
ROOT
ATOM      1  N   UNL     1       2.009   7.690  19.723  0.00  0.00    +0.000 N 
ATOM      2  C   UNL     1       2.179   8.418  18.577  0.00  0.00    +0.000 C 
ATOM      3  O   UNL     1       1.941   9.617  18.436  0.00  0.00    +0.000 OA
ATOM      4  C   UNL     1       2.674   7.533  17.482  0.00  0.00    +0.000 C 
ATOM      5  C   UNL     1       3.124   6.263  18.206  0.00  0.00    +0.000 C 
ATOM      6  C   UNL     1       2.455   6.403  19.579  0.00  0.00    +0.000 C 
ATOM      7  O   UNL     1       2.388   5.519  20.422  0.00  0.00    +0.000 OA
ENDROOT
BRANCH   5   8
ATOM      8  N   UNL     1       4.611   6.118  18.288  0.00  0.00    +0.000 NA
ATOM      9  C   UNL     1       5.044   4.711  18.240  0.00  0.00    +0.000 C 
ATOM     10  C   UNL     1       6.565   4.550  18.266  0.00  0.00    +0.000 C 
ATOM     11  C   UNL     1       7.221   5.333  17.128  0.00  0.00    +0.000 C 
ATOM     12  C   UNL     1       6.800   6.797  17.260  0.00  0.00    +0.000 C 
ATOM     13  C   UNL     1       5.276   6.956  17.275  0.00  0.00    +0.000 C 
BRANCH  11  14
ATOM     14  C   UNL     1       6.882   4.699  15.775  0.00  0.00    +0.000 C 
ATOM     15  N   UNL     1       7.402   5.298  14.671  0.00  0.00    +0.000 N 
ATOM     16  O   UNL     1       6.226   3.671  15.643  0.00  0.00    +0.000 OA
ATOM     17  H   UNL     1       8.045   6.073  14.690  0.00  0.00    +0.000 HD
ATOM     18  H   UNL     1       7.210   4.844  13.785  0.00  0.00    +0.000 HD
ENDBRANCH  11  14
ENDBRANCH   5   8
BRANCH   1  19
ATOM     19  C   UNL     1       1.644   8.275  21.005  0.00  0.00    +0.000 C 
BRANCH  19  20
ATOM     20  C   UNL     1       0.139   8.275  21.266  0.00  0.00    +0.000 C 
BRANCH  20  24
ATOM     21  C   UNL     1      -1.314  12.305  21.873  0.00  0.00    +0.000 A 
ATOM     22  C   UNL     1      -1.113  11.432  22.956  0.00  0.00    +0.000 A 
ATOM     23  C   UNL     1      -0.623  10.142  22.767  0.00  0.00    +0.000 A 
ATOM     24  C   UNL     1      -0.401   9.666  21.479  0.00  0.00    +0.000 A 
ATOM     25  C   UNL     1      -0.686  10.502  20.392  0.00  0.00    +0.000 A 
ATOM     26  C   UNL     1      -1.147  11.820  20.568  0.00  0.00    +0.000 A 
BRANCH  21  28
ATOM     27  C   UNL     1      -0.840  14.321  23.009  0.00  0.00    +0.000 C 
ATOM     28  O   UNL     1      -1.676  13.609  22.092  0.00  0.00    +0.000 OA
ENDBRANCH  21  28
BRANCH  26  29
ATOM     29  O   UNL     1      -1.344  12.449  19.368  0.00  0.00    +0.000 OA
ATOM     30  C   UNL     1      -0.303  13.220  18.792  0.00  0.00    +0.000 C 
ENDBRANCH  26  29
ENDBRANCH  20  24
ENDBRANCH  19  20
ENDBRANCH   1  19
TORSDOF 7
ENDMDL
MODEL 7
REMARK VINA RESULT:      -7.2      4.516      6.892
REMARK  Name = 
REMARK  9 active torsions:
REMARK  status: ('A' for Active; 'I' for Inactive)
REMARK    1  A    between atoms: C_1  and  O_2
REMARK    2  A    between atoms: O_2  and  C_3
REMARK    3  A    between atoms: C_6  and  C_7
REMARK    4  A    between atoms: C_7  and  C_8
REMARK    5  A    between atoms: C_8  and  N_9
REMARK    6  A    between atoms: C_13  and  N_14
REMARK    7  A    between atoms: C_17  and  C_18
REMARK    8  A    between atoms: C_26  and  O_27
REMARK    9  A    between atoms: O_27  and  C_28
REMARK                            x       y       z     vdW  Elec       q    Type
REMARK                         _______ _______ _______ _____ _____    ______ ____
ROOT
ATOM      1  N   UNL     1       6.965   6.783  17.481  0.00  0.00    +0.000 N 
ATOM      2  C   UNL     1       7.209   5.892  18.490  0.00  0.00    +0.000 C 
ATOM      3  O   UNL     1       7.997   6.048  19.423  0.00  0.00    +0.000 OA
ATOM      4  C   UNL     1       6.394   4.658  18.287  0.00  0.00    +0.000 C 
ATOM      5  C   UNL     1       5.363   5.065  17.232  0.00  0.00    +0.000 C 
ATOM      6  C   UNL     1       5.965   6.351  16.652  0.00  0.00    +0.000 C 
ATOM      7  O   UNL     1       5.567   6.921  15.645  0.00  0.00    +0.000 OA
ENDROOT
BRANCH   5   8
ATOM      8  N   UNL     1       3.986   5.256  17.785  0.00  0.00    +0.000 NA
ATOM      9  C   UNL     1       3.109   4.102  17.527  0.00  0.00    +0.000 C 
ATOM     10  C   UNL     1       1.714   4.259  18.135  0.00  0.00    +0.000 C 
ATOM     11  C   UNL     1       1.797   4.520  19.640  0.00  0.00    +0.000 C 
ATOM     12  C   UNL     1       2.658   5.766  19.855  0.00  0.00    +0.000 C 
ATOM     13  C   UNL     1       4.041   5.626  19.211  0.00  0.00    +0.000 C 
BRANCH  11  14
ATOM     14  C   UNL     1       2.299   3.273  20.375  0.00  0.00    +0.000 C 
ATOM     15  N   UNL     1       1.393   2.605  21.137  0.00  0.00    +0.000 N 
ATOM     16  O   UNL     1       3.437   2.825  20.270  0.00  0.00    +0.000 OA
ATOM     17  H   UNL     1       0.413   2.830  21.188  0.00  0.00    +0.000 HD
ATOM     18  H   UNL     1       1.723   1.756  21.581  0.00  0.00    +0.000 HD
ENDBRANCH  11  14
ENDBRANCH   5   8
BRANCH   1  19
ATOM     19  C   UNL     1       7.516   8.130  17.441  0.00  0.00    +0.000 C 
BRANCH  19  20
ATOM     20  C   UNL     1       8.542   8.400  18.540  0.00  0.00    +0.000 C 
BRANCH  20  24
ATOM     21  C   UNL     1       9.258  12.636  19.053  0.00  0.00    +0.000 A 
ATOM     22  C   UNL     1       8.846  12.111  17.816  0.00  0.00    +0.000 A 
ATOM     23  C   UNL     1       8.591  10.752  17.653  0.00  0.00    +0.000 A 
ATOM     24  C   UNL     1       8.825   9.871  18.705  0.00  0.00    +0.000 A 
ATOM     25  C   UNL     1       9.323  10.379  19.912  0.00  0.00    +0.000 A 
ATOM     26  C   UNL     1       9.550  11.754  20.104  0.00  0.00    +0.000 A 
BRANCH  21  28
ATOM     27  C   UNL     1       9.496  14.744  18.014  0.00  0.00    +0.000 C 
ATOM     28  O   UNL     1       9.381  13.990  19.225  0.00  0.00    +0.000 OA
ENDBRANCH  21  28
BRANCH  26  29
ATOM     29  O   UNL     1      10.023  12.015  21.362  0.00  0.00    +0.000 OA
ATOM     30  C   UNL     1       9.167  12.587  22.336  0.00  0.00    +0.000 C 
ENDBRANCH  26  29
ENDBRANCH  20  24
ENDBRANCH  19  20
ENDBRANCH   1  19
TORSDOF 7
ENDMDL
MODEL 8
REMARK VINA RESULT:      -7.2      3.501      5.665
REMARK  Name = 
REMARK  9 active torsions:
REMARK  status: ('A' for Active; 'I' for Inactive)
REMARK    1  A    between atoms: C_1  and  O_2
REMARK    2  A    between atoms: O_2  and  C_3
REMARK    3  A    between atoms: C_6  and  C_7
REMARK    4  A    between atoms: C_7  and  C_8
REMARK    5  A    between atoms: C_8  and  N_9
REMARK    6  A    between atoms: C_13  and  N_14
REMARK    7  A    between atoms: C_17  and  C_18
REMARK    8  A    between atoms: C_26  and  O_27
REMARK    9  A    between atoms: O_27  and  C_28
REMARK                            x       y       z     vdW  Elec       q    Type
REMARK                         _______ _______ _______ _____ _____    ______ ____
ROOT
ATOM      1  N   UNL     1       1.460   9.016  19.036  0.00  0.00    +0.000 N 
ATOM      2  C   UNL     1       1.197   8.624  20.320  0.00  0.00    +0.000 C 
ATOM      3  O   UNL     1       0.413   9.164  21.099  0.00  0.00    +0.000 OA
ATOM      4  C   UNL     1       2.035   7.439  20.670  0.00  0.00    +0.000 C 
ATOM      5  C   UNL     1       2.566   6.949  19.321  0.00  0.00    +0.000 C 
ATOM      6  C   UNL     1       2.310   8.150  18.402  0.00  0.00    +0.000 C 
ATOM      7  O   UNL     1       2.751   8.274  17.268  0.00  0.00    +0.000 OA
ENDROOT
BRANCH   5   8
ATOM      8  N   UNL     1       1.911   5.691  18.843  0.00  0.00    +0.000 NA
ATOM      9  C   UNL     1       2.733   4.966  17.860  0.00  0.00    +0.000 C 
ATOM     10  C   UNL     1       2.102   3.649  17.404  0.00  0.00    +0.000 C 
ATOM     11  C   UNL     1       1.801   2.741  18.597  0.00  0.00    +0.000 C 
ATOM     12  C   UNL     1       0.890   3.510  19.556  0.00  0.00    +0.000 C 
ATOM     13  C   UNL     1       1.503   4.848  19.981  0.00  0.00    +0.000 C 
BRANCH  11  14
ATOM     14  C   UNL     1       3.102   2.239  19.231  0.00  0.00    +0.000 C 
ATOM     15  N   UNL     1       3.940   1.529  18.431  0.00  0.00    +0.000 N 
ATOM     16  O   UNL     1       3.445   2.486  20.384  0.00  0.00    +0.000 OA
ATOM     17  H   UNL     1       3.797   1.378  17.445  0.00  0.00    +0.000 HD
ATOM     18  H   UNL     1       4.818   1.241  18.847  0.00  0.00    +0.000 HD
ENDBRANCH  11  14
ENDBRANCH   5   8
BRANCH   1  19
ATOM     19  C   UNL     1       0.731  10.073  18.349  0.00  0.00    +0.000 C 
BRANCH  19  20
ATOM     20  C   UNL     1      -0.642   9.635  17.844  0.00  0.00    +0.000 C 
BRANCH  20  24
ATOM     21  C   UNL     1      -3.800  12.214  19.294  0.00  0.00    +0.000 A 
ATOM     22  C   UNL     1      -2.509  12.261  19.848  0.00  0.00    +0.000 A 
ATOM     23  C   UNL     1      -1.483  11.450  19.368  0.00  0.00    +0.000 A 
ATOM     24  C   UNL     1      -1.748  10.510  18.377  0.00  0.00    +0.000 A 
ATOM     25  C   UNL     1      -3.056  10.397  17.886  0.00  0.00    +0.000 A 
ATOM     26  C   UNL     1      -4.094  11.234  18.335  0.00  0.00    +0.000 A 
BRANCH  21  28
ATOM     27  C   UNL     1      -4.832  13.319  21.109  0.00  0.00    +0.000 C 
ATOM     28  O   UNL     1      -4.759  13.107  19.695  0.00  0.00    +0.000 OA
ENDBRANCH  21  28
BRANCH  26  29
ATOM     29  O   UNL     1      -5.276  10.950  17.706  0.00  0.00    +0.000 OA
ATOM     30  C   UNL     1      -6.417  10.595  18.469  0.00  0.00    +0.000 C 
ENDBRANCH  26  29
ENDBRANCH  20  24
ENDBRANCH  19  20
ENDBRANCH   1  19
TORSDOF 7
ENDMDL
MODEL 9
REMARK VINA RESULT:      -7.1      4.979      7.284
REMARK  Name = 
REMARK  9 active torsions:
REMARK  status: ('A' for Active; 'I' for Inactive)
REMARK    1  A    between atoms: C_1  and  O_2
REMARK    2  A    between atoms: O_2  and  C_3
REMARK    3  A    between atoms: C_6  and  C_7
REMARK    4  A    between atoms: C_7  and  C_8
REMARK    5  A    between atoms: C_8  and  N_9
REMARK    6  A    between atoms: C_13  and  N_14
REMARK    7  A    between atoms: C_17  and  C_18
REMARK    8  A    between atoms: C_26  and  O_27
REMARK    9  A    between atoms: O_27  and  C_28
REMARK                            x       y       z     vdW  Elec       q    Type
REMARK                         _______ _______ _______ _____ _____    ______ ____
ROOT
ATOM      1  N   UNL     1       7.765   6.763  18.325  0.00  0.00    +0.000 N 
ATOM      2  C   UNL     1       7.898   5.492  18.813  0.00  0.00    +0.000 C 
ATOM      3  O   UNL     1       8.635   5.140  19.733  0.00  0.00    +0.000 OA
ATOM      4  C   UNL     1       7.031   4.558  18.036  0.00  0.00    +0.000 C 
ATOM      5  C   UNL     1       6.091   5.482  17.261  0.00  0.00    +0.000 C 
ATOM      6  C   UNL     1       6.795   6.840  17.362  0.00  0.00    +0.000 C 
ATOM      7  O   UNL     1       6.492   7.839  16.723  0.00  0.00    +0.000 OA
ENDROOT
BRANCH   5   8
ATOM      8  N   UNL     1       4.694   5.501  17.799  0.00  0.00    +0.000 NA
ATOM      9  C   UNL     1       3.800   4.577  17.082  0.00  0.00    +0.000 C 
ATOM     10  C   UNL     1       2.383   4.545  17.658  0.00  0.00    +0.000 C 
ATOM     11  C   UNL     1       2.402   4.196  19.147  0.00  0.00    +0.000 C 
ATOM     12  C   UNL     1       3.285   5.221  19.859  0.00  0.00    +0.000 C 
ATOM     13  C   UNL     1       4.693   5.284  19.257  0.00  0.00    +0.000 C 
BRANCH  11  14
ATOM     14  C   UNL     1       2.836   2.741  19.352  0.00  0.00    +0.000 C 
ATOM     15  N   UNL     1       2.231   1.806  18.572  0.00  0.00    +0.000 N 
ATOM     16  O   UNL     1       3.720   2.390  20.126  0.00  0.00    +0.000 OA
ATOM     17  H   UNL     1       1.582   2.013  17.830  0.00  0.00    +0.000 HD
ATOM     18  H   UNL     1       2.558   0.853  18.683  0.00  0.00    +0.000 HD
ENDBRANCH  11  14
ENDBRANCH   5   8
BRANCH   1  19
ATOM     19  C   UNL     1       8.390   7.931  18.931  0.00  0.00    +0.000 C 
BRANCH  19  20
ATOM     20  C   UNL     1       8.364   9.168  18.035  0.00  0.00    +0.000 C 
BRANCH  20  24
ATOM     21  C   UNL     1      10.775  12.420  19.560  0.00  0.00    +0.000 A 
ATOM     22  C   UNL     1      10.891  11.991  18.227  0.00  0.00    +0.000 A 
ATOM     23  C   UNL     1      10.099  10.960  17.725  0.00  0.00    +0.000 A 
ATOM     24  C   UNL     1       9.231  10.277  18.572  0.00  0.00    +0.000 A 
ATOM     25  C   UNL     1       9.180  10.643  19.923  0.00  0.00    +0.000 A 
ATOM     26  C   UNL     1       9.946  11.706  20.436  0.00  0.00    +0.000 A 
BRANCH  21  28
ATOM     27  C   UNL     1      11.530  14.604  19.069  0.00  0.00    +0.000 C 
ATOM     28  O   UNL     1      11.472  13.517  19.998  0.00  0.00    +0.000 OA
ENDBRANCH  21  28
BRANCH  26  29
ATOM     29  O   UNL     1       9.722  11.886  21.775  0.00  0.00    +0.000 OA
ATOM     30  C   UNL     1       8.665  12.724  22.210  0.00  0.00    +0.000 C 
ENDBRANCH  26  29
ENDBRANCH  20  24
ENDBRANCH  19  20
ENDBRANCH   1  19
TORSDOF 7
ENDMDL
