MODEL 1
REMARK VINA RESULT:      -8.1      0.000      0.000
REMARK  Name = 
REMARK  10 active torsions:
REMARK  status: ('A' for Active; 'I' for Inactive)
REMARK    1  A    between atoms: S_2  and  N_4
REMARK    2  A    between atoms: S_2  and  C_26
REMARK    3  A    between atoms: N_4  and  C_5
REMARK    4  A    between atoms: C_5  and  C_6
REMARK    5  A    between atoms: C_6  and  C_7
REMARK    6  A    between atoms: C_10  and  N_11
REMARK    7  A    between atoms: N_11  and  S_12
REMARK    8  A    between atoms: S_12  and  C_15
REMARK    9  A    between atoms: C_22  and  C_23
REMARK   10  A    between atoms: C_23  and  O_24
REMARK                            x       y       z     vdW  Elec       q    Type
REMARK                         _______ _______ _______ _____ _____    ______ ____
ROOT
ATOM      1  C   UNL     1       2.439   5.850  19.015  0.00  0.00    +0.000 C 
ATOM      2  C   UNL     1       3.805   5.929  19.688  0.00  0.00    +0.000 C 
ATOM      3  C   UNL     1       4.913   5.543  18.729  0.00  0.00    +0.000 C 
ATOM      4  C   UNL     1       4.631   4.239  17.971  0.00  0.00    +0.000 C 
ATOM      5  C   UNL     1       3.153   4.117  17.507  0.00  0.00    +0.000 C 
ATOM      6  O   UNL     1       2.242   4.508  18.547  0.00  0.00    +0.000 OA
ENDROOT
BRANCH   4   7
ATOM      7  N   UNL     1       5.589   4.119  16.851  0.00  0.00    +0.000 NA
ATOM      8  H   UNL     1       6.239   3.334  16.922  0.00  0.00    +0.000 HD
BRANCH   7   9
ATOM      9  S   UNL     1       6.227   5.442  16.032  0.00  0.00    +0.000 S 
ATOM     10  O   UNL     1       5.191   6.436  15.939  0.00  0.00    +0.000 OA
ATOM     11  O   UNL     1       7.544   5.779  16.560  0.00  0.00    +0.000 OA
BRANCH   9  12
ATOM     12  C   UNL     1       6.466   4.814  14.405  0.00  0.00    +0.000 A 
ATOM     13  C   UNL     1       7.603   5.247  13.715  0.00  0.00    +0.000 A 
ATOM     14  C   UNL     1       7.839   4.775  12.431  0.00  0.00    +0.000 A 
ATOM     15  C   UNL     1       6.947   3.871  11.851  0.00  0.00    +0.000 A 
ATOM     16  C   UNL     1       5.824   3.445  12.559  0.00  0.00    +0.000 A 
ATOM     17  F   UNL     1       4.970   2.588  11.986  0.00  0.00    +0.000 F 
ATOM     18  C   UNL     1       5.574   3.902  13.844  0.00  0.00    +0.000 A 
ENDBRANCH   9  12
ENDBRANCH   7   9
ENDBRANCH   4   7
BRANCH   1  19
ATOM     19  C   UNL     1       2.201   6.923  17.927  0.00  0.00    +0.000 C 
BRANCH  19  20
ATOM     20  C   UNL     1       2.251   8.306  18.564  0.00  0.00    +0.000 C 
BRANCH  20  21
ATOM     21  N   UNL     1       1.206   9.194  18.034  0.00  0.00    +0.000 NA
ATOM     22  H   UNL     1       1.434   9.706  17.182  0.00  0.00    +0.000 HD
BRANCH  21  24
ATOM     23  O   UNL     1       0.266   9.411  20.392  0.00  0.00    +0.000 OA
ATOM     24  S   UNL     1       0.482  10.200  19.199  0.00  0.00    +0.000 S 
ATOM     25  O   UNL     1       1.195  11.459  19.216  0.00  0.00    +0.000 OA
BRANCH  24  26
ATOM     26  C   UNL     1      -1.118  10.480  18.474  0.00  0.00    +0.000 A 
ATOM     27  C   UNL     1      -1.451   9.781  17.305  0.00  0.00    +0.000 A 
ATOM     28  C   UNL     1      -2.692   9.987  16.706  0.00  0.00    +0.000 A 
ATOM     29  C   UNL     1      -3.596  10.880  17.281  0.00  0.00    +0.000 A 
ATOM     30  C   UNL     1      -3.254  11.560  18.448  0.00  0.00    +0.000 A 
ATOM     31  F   UNL     1      -4.136  12.408  18.991  0.00  0.00    +0.000 F 
ATOM     32  C   UNL     1      -2.018  11.376  19.055  0.00  0.00    +0.000 A 
ENDBRANCH  24  26
ENDBRANCH  21  24
ENDBRANCH  20  21
ENDBRANCH  19  20
ENDBRANCH   1  19
BRANCH   5  33
ATOM     33  C   UNL     1       2.756   2.721  16.999  0.00  0.00    +0.000 C 
BRANCH  33  34
ATOM     34  O   UNL     1       2.108   1.920  17.979  0.00  0.00    +0.000 OA
ATOM     35  H   UNL     1       1.336   2.417  18.311  0.00  0.00    +0.000 HD
ENDBRANCH  33  34
ENDBRANCH   5  33
TORSDOF 10
ENDMDL
MODEL 2
REMARK VINA RESULT:      -8.0      2.046      2.522
REMARK  Name = 
REMARK  10 active torsions:
REMARK  status: ('A' for Active; 'I' for Inactive)
REMARK    1  A    between atoms: S_2  and  N_4
REMARK    2  A    between atoms: S_2  and  C_26
REMARK    3  A    between atoms: N_4  and  C_5
REMARK    4  A    between atoms: C_5  and  C_6
REMARK    5  A    between atoms: C_6  and  C_7
REMARK    6  A    between atoms: C_10  and  N_11
REMARK    7  A    between atoms: N_11  and  S_12
REMARK    8  A    between atoms: S_12  and  C_15
REMARK    9  A    between atoms: C_22  and  C_23
REMARK   10  A    between atoms: C_23  and  O_24
REMARK                            x       y       z     vdW  Elec       q    Type
REMARK                         _______ _______ _______ _____ _____    ______ ____
ROOT
ATOM      1  C   UNL     1       2.738   5.637  19.040  0.00  0.00    +0.000 C 
ATOM      2  C   UNL     1       4.155   5.875  19.551  0.00  0.00    +0.000 C 
ATOM      3  C   UNL     1       5.185   5.536  18.492  0.00  0.00    +0.000 C 
ATOM      4  C   UNL     1       4.946   4.172  17.831  0.00  0.00    +0.000 C 
ATOM      5  C   UNL     1       3.445   3.893  17.543  0.00  0.00    +0.000 C 
ATOM      6  O   UNL     1       2.620   4.259  18.660  0.00  0.00    +0.000 OA
ENDROOT
BRANCH   4   7
ATOM      7  N   UNL     1       5.785   4.075  16.616  0.00  0.00    +0.000 NA
ATOM      8  H   UNL     1       6.428   3.281  16.599  0.00  0.00    +0.000 HD
BRANCH   7   9
ATOM      9  S   UNL     1       6.355   5.415  15.775  0.00  0.00    +0.000 S 
ATOM     10  O   UNL     1       5.279   6.365  15.692  0.00  0.00    +0.000 OA
ATOM     11  O   UNL     1       7.666   5.809  16.277  0.00  0.00    +0.000 OA
BRANCH   9  12
ATOM     12  C   UNL     1       6.591   4.781  14.149  0.00  0.00    +0.000 A 
ATOM     13  C   UNL     1       7.616   5.350  13.386  0.00  0.00    +0.000 A 
ATOM     14  C   UNL     1       7.845   4.880  12.101  0.00  0.00    +0.000 A 
ATOM     15  C   UNL     1       7.059   3.845  11.591  0.00  0.00    +0.000 A 
ATOM     16  C   UNL     1       6.048   3.286  12.372  0.00  0.00    +0.000 A 
ATOM     17  F   UNL     1       5.293   2.303  11.866  0.00  0.00    +0.000 F 
ATOM     18  C   UNL     1       5.807   3.739  13.659  0.00  0.00    +0.000 A 
ENDBRANCH   9  12
ENDBRANCH   7   9
ENDBRANCH   4   7
BRANCH   1  19
ATOM     19  C   UNL     1       2.284   6.623  17.938  0.00  0.00    +0.000 C 
BRANCH  19  20
ATOM     20  C   UNL     1       2.483   8.052  18.426  0.00  0.00    +0.000 C 
BRANCH  20  21
ATOM     21  N   UNL     1       1.415   8.474  19.345  0.00  0.00    +0.000 NA
ATOM     22  H   UNL     1       0.702   7.779  19.561  0.00  0.00    +0.000 HD
BRANCH  21  24
ATOM     23  O   UNL     1       1.815  10.921  18.756  0.00  0.00    +0.000 OA
ATOM     24  S   UNL     1       0.732   9.988  18.977  0.00  0.00    +0.000 S 
ATOM     25  O   UNL     1      -0.330   9.784  18.015  0.00  0.00    +0.000 OA
BRANCH  24  26
ATOM     26  C   UNL     1      -0.009  10.424  20.535  0.00  0.00    +0.000 A 
ATOM     27  C   UNL     1      -0.897  11.508  20.569  0.00  0.00    +0.000 A 
ATOM     28  C   UNL     1      -1.484  11.885  21.775  0.00  0.00    +0.000 A 
ATOM     29  C   UNL     1      -1.191  11.171  22.937  0.00  0.00    +0.000 A 
ATOM     30  C   UNL     1      -0.313  10.089  22.885  0.00  0.00    +0.000 A 
ATOM     31  F   UNL     1      -0.047   9.410  24.008  0.00  0.00    +0.000 F 
ATOM     32  C   UNL     1       0.291   9.705  21.693  0.00  0.00    +0.000 A 
ENDBRANCH  24  26
ENDBRANCH  21  24
ENDBRANCH  20  21
ENDBRANCH  19  20
ENDBRANCH   1  19
BRANCH   5  33
ATOM     33  C   UNL     1       3.129   2.441  17.148  0.00  0.00    +0.000 C 
BRANCH  33  34
ATOM     34  O   UNL     1       1.917   1.948  17.704  0.00  0.00    +0.000 OA
ATOM     35  H   UNL     1       1.270   2.680  17.710  0.00  0.00    +0.000 HD
ENDBRANCH  33  34
ENDBRANCH   5  33
TORSDOF 10
ENDMDL
MODEL 3
REMARK VINA RESULT:      -8.0      1.021      1.323
REMARK  Name = 
REMARK  10 active torsions:
REMARK  status: ('A' for Active; 'I' for Inactive)
REMARK    1  A    between atoms: S_2  and  N_4
REMARK    2  A    between atoms: S_2  and  C_26
REMARK    3  A    between atoms: N_4  and  C_5
REMARK    4  A    between atoms: C_5  and  C_6
REMARK    5  A    between atoms: C_6  and  C_7
REMARK    6  A    between atoms: C_10  and  N_11
REMARK    7  A    between atoms: N_11  and  S_12
REMARK    8  A    between atoms: S_12  and  C_15
REMARK    9  A    between atoms: C_22  and  C_23
REMARK   10  A    between atoms: C_23  and  O_24
REMARK                            x       y       z     vdW  Elec       q    Type
REMARK                         _______ _______ _______ _____ _____    ______ ____
ROOT
ATOM      1  C   UNL     1       2.455   5.678  19.103  0.00  0.00    +0.000 C 
ATOM      2  C   UNL     1       3.840   5.776  19.732  0.00  0.00    +0.000 C 
ATOM      3  C   UNL     1       4.914   5.296  18.775  0.00  0.00    +0.000 C 
ATOM      4  C   UNL     1       4.583   3.946  18.124  0.00  0.00    +0.000 C 
ATOM      5  C   UNL     1       3.091   3.823  17.710  0.00  0.00    +0.000 C 
ATOM      6  O   UNL     1       2.218   4.310  18.742  0.00  0.00    +0.000 OA
ENDROOT
BRANCH   4   7
ATOM      7  N   UNL     1       5.507   3.722  16.990  0.00  0.00    +0.000 NA
ATOM      8  H   UNL     1       5.745   2.744  16.815  0.00  0.00    +0.000 HD
BRANCH   7   9
ATOM      9  S   UNL     1       6.734   4.793  16.570  0.00  0.00    +0.000 S 
ATOM     10  O   UNL     1       6.252   6.125  16.821  0.00  0.00    +0.000 OA
ATOM     11  O   UNL     1       8.009   4.342  17.113  0.00  0.00    +0.000 OA
BRANCH   9  12
ATOM     12  C   UNL     1       6.822   4.615  14.821  0.00  0.00    +0.000 A 
ATOM     13  C   UNL     1       6.052   3.599  14.244  0.00  0.00    +0.000 A 
ATOM     14  C   UNL     1       6.083   3.422  12.868  0.00  0.00    +0.000 A 
ATOM     15  C   UNL     1       6.872   4.262  12.079  0.00  0.00    +0.000 A 
ATOM     16  C   UNL     1       7.624   5.274  12.673  0.00  0.00    +0.000 A 
ATOM     17  F   UNL     1       8.386   6.064  11.907  0.00  0.00    +0.000 F 
ATOM     18  C   UNL     1       7.603   5.469  14.045  0.00  0.00    +0.000 A 
ENDBRANCH   9  12
ENDBRANCH   7   9
ENDBRANCH   4   7
BRANCH   1  19
ATOM     19  C   UNL     1       2.209   6.673  17.945  0.00  0.00    +0.000 C 
BRANCH  19  20
ATOM     20  C   UNL     1       2.420   8.095  18.449  0.00  0.00    +0.000 C 
BRANCH  20  21
ATOM     21  N   UNL     1       1.408   9.022  17.920  0.00  0.00    +0.000 NA
ATOM     22  H   UNL     1       1.621   9.465  17.027  0.00  0.00    +0.000 HD
BRANCH  21  24
ATOM     23  O   UNL     1       0.688   9.458  20.324  0.00  0.00    +0.000 OA
ATOM     24  S   UNL     1       0.820  10.143  19.056  0.00  0.00    +0.000 S 
ATOM     25  O   UNL     1       1.569  11.372  18.909  0.00  0.00    +0.000 OA
BRANCH  24  26
ATOM     26  C   UNL     1      -0.829  10.422  18.452  0.00  0.00    +0.000 A 
ATOM     27  C   UNL     1      -1.259   9.699  17.331  0.00  0.00    +0.000 A 
ATOM     28  C   UNL     1      -2.540   9.904  16.824  0.00  0.00    +0.000 A 
ATOM     29  C   UNL     1      -3.389  10.821  17.445  0.00  0.00    +0.000 A 
ATOM     30  C   UNL     1      -2.951  11.526  18.564  0.00  0.00    +0.000 A 
ATOM     31  F   UNL     1      -3.779  12.397  19.153  0.00  0.00    +0.000 F 
ATOM     32  C   UNL     1      -1.672  11.342  19.079  0.00  0.00    +0.000 A 
ENDBRANCH  24  26
ENDBRANCH  21  24
ENDBRANCH  20  21
ENDBRANCH  19  20
ENDBRANCH   1  19
BRANCH   5  33
ATOM     33  C   UNL     1       2.651   2.403  17.318  0.00  0.00    +0.000 C 
BRANCH  33  34
ATOM     34  O   UNL     1       1.807   1.781  18.278  0.00  0.00    +0.000 OA
ATOM     35  H   UNL     1       1.322   2.484  18.751  0.00  0.00    +0.000 HD
ENDBRANCH  33  34
ENDBRANCH   5  33
TORSDOF 10
ENDMDL
MODEL 4
REMARK VINA RESULT:      -7.8      3.002     10.042
REMARK  Name = 
REMARK  10 active torsions:
REMARK  status: ('A' for Active; 'I' for Inactive)
REMARK    1  A    between atoms: S_2  and  N_4
REMARK    2  A    between atoms: S_2  and  C_26
REMARK    3  A    between atoms: N_4  and  C_5
REMARK    4  A    between atoms: C_5  and  C_6
REMARK    5  A    between atoms: C_6  and  C_7
REMARK    6  A    between atoms: C_10  and  N_11
REMARK    7  A    between atoms: N_11  and  S_12
REMARK    8  A    between atoms: S_12  and  C_15
REMARK    9  A    between atoms: C_22  and  C_23
REMARK   10  A    between atoms: C_23  and  O_24
REMARK                            x       y       z     vdW  Elec       q    Type
REMARK                         _______ _______ _______ _____ _____    ______ ____
ROOT
ATOM      1  C   UNL     1       2.840   6.305  18.394  0.00  0.00    +0.000 C 
ATOM      2  C   UNL     1       2.901   6.213  19.914  0.00  0.00    +0.000 C 
ATOM      3  C   UNL     1       1.804   7.039  20.558  0.00  0.00    +0.000 C 
ATOM      4  C   UNL     1       1.705   8.461  19.991  0.00  0.00    +0.000 C 
ATOM      5  C   UNL     1       1.882   8.511  18.448  0.00  0.00    +0.000 C 
ATOM      6  O   UNL     1       2.975   7.683  18.018  0.00  0.00    +0.000 OA
ENDROOT
BRANCH   4   7
ATOM      7  N   UNL     1       0.431   9.067  20.436  0.00  0.00    +0.000 NA
ATOM      8  H   UNL     1       0.020   9.736  19.782  0.00  0.00    +0.000 HD
BRANCH   7   9
ATOM      9  S   UNL     1       0.078   9.403  22.046  0.00  0.00    +0.000 S 
ATOM     10  O   UNL     1      -0.839   8.396  22.509  0.00  0.00    +0.000 OA
ATOM     11  O   UNL     1       1.302   9.698  22.782  0.00  0.00    +0.000 OA
BRANCH   9  12
ATOM     12  C   UNL     1      -0.837  10.903  21.937  0.00  0.00    +0.000 A 
ATOM     13  C   UNL     1      -1.012  11.452  20.663  0.00  0.00    +0.000 A 
ATOM     14  C   UNL     1      -1.732  12.630  20.524  0.00  0.00    +0.000 A 
ATOM     15  C   UNL     1      -2.277  13.245  21.653  0.00  0.00    +0.000 A 
ATOM     16  C   UNL     1      -2.098  12.677  22.913  0.00  0.00    +0.000 A 
ATOM     17  F   UNL     1      -2.615  13.284  23.989  0.00  0.00    +0.000 F 
ATOM     18  C   UNL     1      -1.386  11.498  23.071  0.00  0.00    +0.000 A 
ENDBRANCH   9  12
ENDBRANCH   7   9
ENDBRANCH   4   7
BRANCH   1  19
ATOM     19  C   UNL     1       1.612   5.610  17.761  0.00  0.00    +0.000 C 
BRANCH  19  20
ATOM     20  C   UNL     1       1.465   4.213  18.349  0.00  0.00    +0.000 C 
BRANCH  20  21
ATOM     21  N   UNL     1       2.185   3.204  17.558  0.00  0.00    +0.000 NA
ATOM     22  H   UNL     1       1.621   2.455  17.157  0.00  0.00    +0.000 HD
BRANCH  21  24
ATOM     23  O   UNL     1       3.506   2.891  19.714  0.00  0.00    +0.000 OA
ATOM     24  S   UNL     1       3.594   2.605  18.298  0.00  0.00    +0.000 S 
ATOM     25  O   UNL     1       3.845   1.276  17.785  0.00  0.00    +0.000 OA
BRANCH  24  26
ATOM     26  C   UNL     1       4.830   3.698  17.633  0.00  0.00    +0.000 A 
ATOM     27  C   UNL     1       5.774   4.248  18.510  0.00  0.00    +0.000 A 
ATOM     28  C   UNL     1       6.747   5.118  18.023  0.00  0.00    +0.000 A 
ATOM     29  C   UNL     1       6.780   5.425  16.663  0.00  0.00    +0.000 A 
ATOM     30  C   UNL     1       5.840   4.863  15.801  0.00  0.00    +0.000 A 
ATOM     31  F   UNL     1       5.888   5.163  14.497  0.00  0.00    +0.000 F 
ATOM     32  C   UNL     1       4.855   4.001  16.270  0.00  0.00    +0.000 A 
ENDBRANCH  24  26
ENDBRANCH  21  24
ENDBRANCH  20  21
ENDBRANCH  19  20
ENDBRANCH   1  19
BRANCH   5  33
ATOM     33  C   UNL     1       2.072   9.923  17.872  0.00  0.00    +0.000 C 
BRANCH  33  34
ATOM     34  O   UNL     1       0.878  10.695  17.846  0.00  0.00    +0.000 OA
ATOM     35  H   UNL     1       1.126  11.634  17.938  0.00  0.00    +0.000 HD
ENDBRANCH  33  34
ENDBRANCH   5  33
TORSDOF 10
ENDMDL
MODEL 5
REMARK VINA RESULT:      -7.8      3.359      9.032
REMARK  Name = 
REMARK  10 active torsions:
REMARK  status: ('A' for Active; 'I' for Inactive)
REMARK    1  A    between atoms: S_2  and  N_4
REMARK    2  A    between atoms: S_2  and  C_26
REMARK    3  A    between atoms: N_4  and  C_5
REMARK    4  A    between atoms: C_5  and  C_6
REMARK    5  A    between atoms: C_6  and  C_7
REMARK    6  A    between atoms: C_10  and  N_11
REMARK    7  A    between atoms: N_11  and  S_12
REMARK    8  A    between atoms: S_12  and  C_15
REMARK    9  A    between atoms: C_22  and  C_23
REMARK   10  A    between atoms: C_23  and  O_24
REMARK                            x       y       z     vdW  Elec       q    Type
REMARK                         _______ _______ _______ _____ _____    ______ ____
ROOT
ATOM      1  C   UNL     1       3.082   6.965  17.690  0.00  0.00    +0.000 C 
ATOM      2  C   UNL     1       2.095   8.122  17.579  0.00  0.00    +0.000 C 
ATOM      3  C   UNL     1       1.856   8.771  18.928  0.00  0.00    +0.000 C 
ATOM      4  C   UNL     1       1.558   7.759  20.043  0.00  0.00    +0.000 C 
ATOM      5  C   UNL     1       2.449   6.488  19.961  0.00  0.00    +0.000 C 
ATOM      6  O   UNL     1       2.550   6.004  18.613  0.00  0.00    +0.000 OA
ENDROOT
BRANCH   4   7
ATOM      7  N   UNL     1       1.660   8.442  21.351  0.00  0.00    +0.000 NA
ATOM      8  H   UNL     1       2.330   8.028  22.001  0.00  0.00    +0.000 HD
BRANCH   7   9
ATOM      9  S   UNL     1       0.356   9.180  22.114  0.00  0.00    +0.000 S 
ATOM     10  O   UNL     1      -0.778   8.306  21.979  0.00  0.00    +0.000 OA
ATOM     11  O   UNL     1       0.756   9.693  23.419  0.00  0.00    +0.000 OA
BRANCH   9  12
ATOM     12  C   UNL     1       0.041  10.573  21.084  0.00  0.00    +0.000 A 
ATOM     13  C   UNL     1       0.981  11.608  21.107  0.00  0.00    +0.000 A 
ATOM     14  C   UNL     1       0.780  12.725  20.308  0.00  0.00    +0.000 A 
ATOM     15  C   UNL     1      -0.348  12.796  19.489  0.00  0.00    +0.000 A 
ATOM     16  C   UNL     1      -1.268  11.749  19.474  0.00  0.00    +0.000 A 
ATOM     17  F   UNL     1      -2.353  11.836  18.694  0.00  0.00    +0.000 F 
ATOM     18  C   UNL     1      -1.083  10.624  20.262  0.00  0.00    +0.000 A 
ENDBRANCH   9  12
ENDBRANCH   7   9
ENDBRANCH   4   7
BRANCH   1  19
ATOM     19  C   UNL     1       4.533   7.392  18.012  0.00  0.00    +0.000 C 
BRANCH  19  20
ATOM     20  C   UNL     1       5.467   6.851  16.938  0.00  0.00    +0.000 C 
BRANCH  20  21
ATOM     21  N   UNL     1       4.930   5.640  16.299  0.00  0.00    +0.000 NA
ATOM     22  H   UNL     1       3.917   5.525  16.327  0.00  0.00    +0.000 HD
BRANCH  21  24
ATOM     23  O   UNL     1       5.929   3.434  15.510  0.00  0.00    +0.000 OA
ATOM     24  S   UNL     1       5.741   4.205  16.719  0.00  0.00    +0.000 S 
ATOM     25  O   UNL     1       6.834   4.545  17.605  0.00  0.00    +0.000 OA
BRANCH  24  26
ATOM     26  C   UNL     1       4.496   3.365  17.673  0.00  0.00    +0.000 A 
ATOM     27  C   UNL     1       3.325   2.953  17.022  0.00  0.00    +0.000 A 
ATOM     28  C   UNL     1       2.325   2.304  17.743  0.00  0.00    +0.000 A 
ATOM     29  C   UNL     1       2.503   2.061  19.105  0.00  0.00    +0.000 A 
ATOM     30  C   UNL     1       3.677   2.469  19.736  0.00  0.00    +0.000 A 
ATOM     31  F   UNL     1       3.836   2.223  21.042  0.00  0.00    +0.000 F 
ATOM     32  C   UNL     1       4.682   3.127  19.036  0.00  0.00    +0.000 A 
ENDBRANCH  24  26
ENDBRANCH  21  24
ENDBRANCH  20  21
ENDBRANCH  19  20
ENDBRANCH   1  19
BRANCH   5  33
ATOM     33  C   UNL     1       2.000   5.334  20.872  0.00  0.00    +0.000 C 
BRANCH  33  34
ATOM     34  O   UNL     1       0.802   4.700  20.442  0.00  0.00    +0.000 OA
ATOM     35  H   UNL     1       0.475   4.147  21.177  0.00  0.00    +0.000 HD
ENDBRANCH  33  34
ENDBRANCH   5  33
TORSDOF 10
ENDMDL
MODEL 6
REMARK VINA RESULT:      -7.8      3.671      9.322
REMARK  Name = 
REMARK  10 active torsions:
REMARK  status: ('A' for Active; 'I' for Inactive)
REMARK    1  A    between atoms: S_2  and  N_4
REMARK    2  A    between atoms: S_2  and  C_26
REMARK    3  A    between atoms: N_4  and  C_5
REMARK    4  A    between atoms: C_5  and  C_6
REMARK    5  A    between atoms: C_6  and  C_7
REMARK    6  A    between atoms: C_10  and  N_11
REMARK    7  A    between atoms: N_11  and  S_12
REMARK    8  A    between atoms: S_12  and  C_15
REMARK    9  A    between atoms: C_22  and  C_23
REMARK   10  A    between atoms: C_23  and  O_24
REMARK                            x       y       z     vdW  Elec       q    Type
REMARK                         _______ _______ _______ _____ _____    ______ ____
ROOT
ATOM      1  C   UNL     1       1.957   7.295  20.859  0.00  0.00    +0.000 C 
ATOM      2  C   UNL     1       1.337   8.310  21.812  0.00  0.00    +0.000 C 
ATOM      3  C   UNL     1       0.218   9.082  21.141  0.00  0.00    +0.000 C 
ATOM      4  C   UNL     1       0.604   9.629  19.761  0.00  0.00    +0.000 C 
ATOM      5  C   UNL     1       1.437   8.622  18.921  0.00  0.00    +0.000 C 
ATOM      6  O   UNL     1       2.459   7.997  19.714  0.00  0.00    +0.000 OA
ENDROOT
BRANCH   4   7
ATOM      7  N   UNL     1      -0.622  10.074  19.062  0.00  0.00    +0.000 NA
ATOM      8  H   UNL     1      -0.821   9.584  18.188  0.00  0.00    +0.000 HD
BRANCH   7   9
ATOM      9  S   UNL     1      -1.172  11.663  19.077  0.00  0.00    +0.000 S 
ATOM     10  O   UNL     1      -1.533  11.985  20.431  0.00  0.00    +0.000 OA
ATOM     11  O   UNL     1      -0.267  12.520  18.319  0.00  0.00    +0.000 OA
BRANCH   9  12
ATOM     12  C   UNL     1      -2.676  11.563  18.167  0.00  0.00    +0.000 A 
ATOM     13  C   UNL     1      -3.850  11.926  18.835  0.00  0.00    +0.000 A 
ATOM     14  C   UNL     1      -5.060  11.869  18.159  0.00  0.00    +0.000 A 
ATOM     15  C   UNL     1      -5.089  11.461  16.824  0.00  0.00    +0.000 A 
ATOM     16  C   UNL     1      -3.906  11.112  16.174  0.00  0.00    +0.000 A 
ATOM     17  F   UNL     1      -3.950  10.710  14.898  0.00  0.00    +0.000 F 
ATOM     18  C   UNL     1      -2.687  11.166  16.832  0.00  0.00    +0.000 A 
ENDBRANCH   9  12
ENDBRANCH   7   9
ENDBRANCH   4   7
BRANCH   1  19
ATOM     19  C   UNL     1       1.030   6.110  20.497  0.00  0.00    +0.000 C 
BRANCH  19  20
ATOM     20  C   UNL     1       1.816   4.809  20.590  0.00  0.00    +0.000 C 
BRANCH  20  21
ATOM     21  N   UNL     1       1.156   3.714  19.862  0.00  0.00    +0.000 NA
ATOM     22  H   UNL     1       1.045   2.836  20.368  0.00  0.00    +0.000 HD
BRANCH  21  24
ATOM     23  O   UNL     1       2.034   2.055  18.140  0.00  0.00    +0.000 OA
ATOM     24  S   UNL     1       1.742   3.465  18.285  0.00  0.00    +0.000 S 
ATOM     25  O   UNL     1       0.886   4.183  17.365  0.00  0.00    +0.000 OA
BRANCH  24  26
ATOM     26  C   UNL     1       3.308   4.306  18.356  0.00  0.00    +0.000 A 
ATOM     27  C   UNL     1       4.345   3.721  19.096  0.00  0.00    +0.000 A 
ATOM     28  C   UNL     1       5.579   4.361  19.183  0.00  0.00    +0.000 A 
ATOM     29  C   UNL     1       5.775   5.574  18.522  0.00  0.00    +0.000 A 
ATOM     30  C   UNL     1       4.737   6.139  17.783  0.00  0.00    +0.000 A 
ATOM     31  F   UNL     1       4.944   7.300  17.150  0.00  0.00    +0.000 F 
ATOM     32  C   UNL     1       3.495   5.521  17.693  0.00  0.00    +0.000 A 
ENDBRANCH  24  26
ENDBRANCH  21  24
ENDBRANCH  20  21
ENDBRANCH  19  20
ENDBRANCH   1  19
BRANCH   5  33
ATOM     33  C   UNL     1       2.082   9.220  17.660  0.00  0.00    +0.000 C 
BRANCH  33  34
ATOM     34  O   UNL     1       1.953  10.633  17.569  0.00  0.00    +0.000 OA
ATOM     35  H   UNL     1       2.571  11.033  18.210  0.00  0.00    +0.000 HD
ENDBRANCH  33  34
ENDBRANCH   5  33
TORSDOF 10
ENDMDL
MODEL 7
REMARK VINA RESULT:      -7.7      4.164     10.374
REMARK  Name = 
REMARK  10 active torsions:
REMARK  status: ('A' for Active; 'I' for Inactive)
REMARK    1  A    between atoms: S_2  and  N_4
REMARK    2  A    between atoms: S_2  and  C_26
REMARK    3  A    between atoms: N_4  and  C_5
REMARK    4  A    between atoms: C_5  and  C_6
REMARK    5  A    between atoms: C_6  and  C_7
REMARK    6  A    between atoms: C_10  and  N_11
REMARK    7  A    between atoms: N_11  and  S_12
REMARK    8  A    between atoms: S_12  and  C_15
REMARK    9  A    between atoms: C_22  and  C_23
REMARK   10  A    between atoms: C_23  and  O_24
REMARK                            x       y       z     vdW  Elec       q    Type
REMARK                         _______ _______ _______ _____ _____    ______ ____
ROOT
ATOM      1  C   UNL     1       0.628   9.188  18.518  0.00  0.00    +0.000 C 
ATOM      2  C   UNL     1      -0.342  10.330  18.236  0.00  0.00    +0.000 C 
ATOM      3  C   UNL     1       0.017  11.566  19.037  0.00  0.00    +0.000 C 
ATOM      4  C   UNL     1       0.269  11.272  20.522  0.00  0.00    +0.000 C 
ATOM      5  C   UNL     1       1.073   9.962  20.752  0.00  0.00    +0.000 C 
ATOM      6  O   UNL     1       0.586   8.895  19.922  0.00  0.00    +0.000 OA
ENDROOT
BRANCH   4   7
ATOM      7  N   UNL     1       0.915  12.450  21.140  0.00  0.00    +0.000 NA
ATOM      8  H   UNL     1       1.623  12.234  21.844  0.00  0.00    +0.000 HD
BRANCH   7   9
ATOM      9  S   UNL     1       0.116  13.903  21.422  0.00  0.00    +0.000 S 
ATOM     10  O   UNL     1       0.660  14.472  22.626  0.00  0.00    +0.000 OA
ATOM     11  O   UNL     1       0.037  14.685  20.193  0.00  0.00    +0.000 OA
BRANCH   9  12
ATOM     12  C   UNL     1      -1.519  13.378  21.809  0.00  0.00    +0.000 A 
ATOM     13  C   UNL     1      -1.763  12.971  23.125  0.00  0.00    +0.000 A 
ATOM     14  C   UNL     1      -3.038  12.554  23.481  0.00  0.00    +0.000 A 
ATOM     15  C   UNL     1      -4.058  12.555  22.528  0.00  0.00    +0.000 A 
ATOM     16  C   UNL     1      -3.796  12.974  21.225  0.00  0.00    +0.000 A 
ATOM     17  F   UNL     1      -4.781  12.957  20.317  0.00  0.00    +0.000 F 
ATOM     18  C   UNL     1      -2.531  13.398  20.851  0.00  0.00    +0.000 A 
ENDBRANCH   9  12
ENDBRANCH   7   9
ENDBRANCH   4   7
BRANCH   1  19
ATOM     19  C   UNL     1       2.059   9.418  17.979  0.00  0.00    +0.000 C 
BRANCH  19  20
ATOM     20  C   UNL     1       2.700   8.074  17.659  0.00  0.00    +0.000 C 
BRANCH  20  21
ATOM     21  N   UNL     1       2.775   7.204  18.843  0.00  0.00    +0.000 NA
ATOM     22  H   UNL     1       3.019   7.657  19.724  0.00  0.00    +0.000 HD
BRANCH  21  24
ATOM     23  O   UNL     1       3.624   5.460  17.192  0.00  0.00    +0.000 OA
ATOM     24  S   UNL     1       3.654   5.768  18.606  0.00  0.00    +0.000 S 
ATOM     25  O   UNL     1       4.887   5.862  19.357  0.00  0.00    +0.000 OA
BRANCH  24  26
ATOM     26  C   UNL     1       2.604   4.578  19.411  0.00  0.00    +0.000 A 
ATOM     27  C   UNL     1       2.674   4.466  20.806  0.00  0.00    +0.000 A 
ATOM     28  C   UNL     1       1.875   3.534  21.466  0.00  0.00    +0.000 A 
ATOM     29  C   UNL     1       1.004   2.729  20.731  0.00  0.00    +0.000 A 
ATOM     30  C   UNL     1       0.940   2.858  19.345  0.00  0.00    +0.000 A 
ATOM     31  F   UNL     1       0.095   2.082  18.655  0.00  0.00    +0.000 F 
ATOM     32  C   UNL     1       1.737   3.775  18.668  0.00  0.00    +0.000 A 
ENDBRANCH  24  26
ENDBRANCH  21  24
ENDBRANCH  20  21
ENDBRANCH  19  20
ENDBRANCH   1  19
BRANCH   5  33
ATOM     33  C   UNL     1       1.106   9.480  22.211  0.00  0.00    +0.000 C 
BRANCH  33  34
ATOM     34  O   UNL     1       0.135  10.106  23.040  0.00  0.00    +0.000 OA
ATOM     35  H   UNL     1      -0.080  10.974  22.649  0.00  0.00    +0.000 HD
ENDBRANCH  33  34
ENDBRANCH   5  33
TORSDOF 10
ENDMDL
MODEL 8
REMARK VINA RESULT:      -7.7      3.101      9.157
REMARK  Name = 
REMARK  10 active torsions:
REMARK  status: ('A' for Active; 'I' for Inactive)
REMARK    1  A    between atoms: S_2  and  N_4
REMARK    2  A    between atoms: S_2  and  C_26
REMARK    3  A    between atoms: N_4  and  C_5
REMARK    4  A    between atoms: C_5  and  C_6
REMARK    5  A    between atoms: C_6  and  C_7
REMARK    6  A    between atoms: C_10  and  N_11
REMARK    7  A    between atoms: N_11  and  S_12
REMARK    8  A    between atoms: S_12  and  C_15
REMARK    9  A    between atoms: C_22  and  C_23
REMARK   10  A    between atoms: C_23  and  O_24
REMARK                            x       y       z     vdW  Elec       q    Type
REMARK                         _______ _______ _______ _____ _____    ______ ____
ROOT
ATOM      1  C   UNL     1       2.974   7.007  17.524  0.00  0.00    +0.000 C 
ATOM      2  C   UNL     1       2.138   8.280  17.482  0.00  0.00    +0.000 C 
ATOM      3  C   UNL     1       1.966   8.870  18.868  0.00  0.00    +0.000 C 
ATOM      4  C   UNL     1       1.534   7.836  19.916  0.00  0.00    +0.000 C 
ATOM      5  C   UNL     1       2.264   6.473  19.759  0.00  0.00    +0.000 C 
ATOM      6  O   UNL     1       2.320   6.063  18.383  0.00  0.00    +0.000 OA
ENDROOT
BRANCH   4   7
ATOM      7  N   UNL     1       1.705   8.420  21.264  0.00  0.00    +0.000 NA
ATOM      8  H   UNL     1       2.348   7.913  21.875  0.00  0.00    +0.000 HD
BRANCH   7   9
ATOM      9  S   UNL     1       0.472   9.204  22.097  0.00  0.00    +0.000 S 
ATOM     10  O   UNL     1      -0.683   8.348  22.070  0.00  0.00    +0.000 OA
ATOM     11  O   UNL     1       0.974   9.746  23.354  0.00  0.00    +0.000 OA
BRANCH   9  12
ATOM     12  C   UNL     1       0.107  10.573  21.052  0.00  0.00    +0.000 A 
ATOM     13  C   UNL     1      -0.994  10.447  20.198  0.00  0.00    +0.000 A 
ATOM     14  C   UNL     1      -1.327  11.501  19.359  0.00  0.00    +0.000 A 
ATOM     15  C   UNL     1      -0.567  12.672  19.384  0.00  0.00    +0.000 A 
ATOM     16  C   UNL     1       0.521  12.780  20.248  0.00  0.00    +0.000 A 
ATOM     17  F   UNL     1       1.250  13.904  20.252  0.00  0.00    +0.000 F 
ATOM     18  C   UNL     1       0.866  11.740  21.097  0.00  0.00    +0.000 A 
ENDBRANCH   9  12
ENDBRANCH   7   9
ENDBRANCH   4   7
BRANCH   1  19
ATOM     19  C   UNL     1       4.463   7.232  17.876  0.00  0.00    +0.000 C 
BRANCH  19  20
ATOM     20  C   UNL     1       5.310   7.062  16.621  0.00  0.00    +0.000 C 
BRANCH  20  21
ATOM     21  N   UNL     1       6.629   6.487  16.921  0.00  0.00    +0.000 NA
ATOM     22  H   UNL     1       7.439   7.050  16.663  0.00  0.00    +0.000 HD
BRANCH  21  24
ATOM     23  O   UNL     1       6.432   4.766  15.052  0.00  0.00    +0.000 OA
ATOM     24  S   UNL     1       6.812   4.864  16.444  0.00  0.00    +0.000 S 
ATOM     25  O   UNL     1       8.085   4.387  16.940  0.00  0.00    +0.000 OA
BRANCH  24  26
ATOM     26  C   UNL     1       5.522   4.076  17.382  0.00  0.00    +0.000 A 
ATOM     27  C   UNL     1       5.658   4.012  18.776  0.00  0.00    +0.000 A 
ATOM     28  C   UNL     1       4.671   3.390  19.539  0.00  0.00    +0.000 A 
ATOM     29  C   UNL     1       3.552   2.846  18.908  0.00  0.00    +0.000 A 
ATOM     30  C   UNL     1       3.428   2.926  17.522  0.00  0.00    +0.000 A 
ATOM     31  F   UNL     1       2.345   2.405  16.933  0.00  0.00    +0.000 F 
ATOM     32  C   UNL     1       4.406   3.534  16.743  0.00  0.00    +0.000 A 
ENDBRANCH  24  26
ENDBRANCH  21  24
ENDBRANCH  20  21
ENDBRANCH  19  20
ENDBRANCH   1  19
BRANCH   5  33
ATOM     33  C   UNL     1       1.668   5.329  20.595  0.00  0.00    +0.000 C 
BRANCH  33  34
ATOM     34  O   UNL     1       2.507   4.904  21.661  0.00  0.00    +0.000 OA
ATOM     35  H   UNL     1       2.527   3.928  21.656  0.00  0.00    +0.000 HD
ENDBRANCH  33  34
ENDBRANCH   5  33
TORSDOF 10
ENDMDL
MODEL 9
REMARK VINA RESULT:      -7.7      3.725      8.396
REMARK  Name = 
REMARK  10 active torsions:
REMARK  status: ('A' for Active; 'I' for Inactive)
REMARK    1  A    between atoms: S_2  and  N_4
REMARK    2  A    between atoms: S_2  and  C_26
REMARK    3  A    between atoms: N_4  and  C_5
REMARK    4  A    between atoms: C_5  and  C_6
REMARK    5  A    between atoms: C_6  and  C_7
REMARK    6  A    between atoms: C_10  and  N_11
REMARK    7  A    between atoms: N_11  and  S_12
REMARK    8  A    between atoms: S_12  and  C_15
REMARK    9  A    between atoms: C_22  and  C_23
REMARK   10  A    between atoms: C_23  and  O_24
REMARK                            x       y       z     vdW  Elec       q    Type
REMARK                         _______ _______ _______ _____ _____    ______ ____
ROOT
ATOM      1  C   UNL     1       3.159   2.041  18.502  0.00  0.00    +0.000 C 
ATOM      2  C   UNL     1       1.945   2.463  17.682  0.00  0.00    +0.000 C 
ATOM      3  C   UNL     1       1.489   3.860  18.055  0.00  0.00    +0.000 C 
ATOM      4  C   UNL     1       1.363   4.071  19.569  0.00  0.00    +0.000 C 
ATOM      5  C   UNL     1       2.521   3.414  20.371  0.00  0.00    +0.000 C 
ATOM      6  O   UNL     1       2.806   2.090  19.891  0.00  0.00    +0.000 OA
ENDROOT
BRANCH   4   7
ATOM      7  N   UNL     1       1.234   5.519  19.842  0.00  0.00    +0.000 NA
ATOM      8  H   UNL     1       0.275   5.852  19.954  0.00  0.00    +0.000 HD
BRANCH   7   9
ATOM      9  S   UNL     1       2.274   6.678  19.206  0.00  0.00    +0.000 S 
ATOM     10  O   UNL     1       3.565   6.480  19.809  0.00  0.00    +0.000 OA
ATOM     11  O   UNL     1       2.127   6.750  17.757  0.00  0.00    +0.000 OA
BRANCH   9  12
ATOM     12  C   UNL     1       1.635   8.178  19.869  0.00  0.00    +0.000 A 
ATOM     13  C   UNL     1       1.380   8.210  21.244  0.00  0.00    +0.000 A 
ATOM     14  C   UNL     1       0.882   9.372  21.815  0.00  0.00    +0.000 A 
ATOM     15  C   UNL     1       0.651  10.493  21.015  0.00  0.00    +0.000 A 
ATOM     16  C   UNL     1       0.921  10.444  19.648  0.00  0.00    +0.000 A 
ATOM     17  F   UNL     1       0.683  11.521  18.890  0.00  0.00    +0.000 F 
ATOM     18  C   UNL     1       1.423   9.293  19.061  0.00  0.00    +0.000 A 
ENDBRANCH   9  12
ENDBRANCH   7   9
ENDBRANCH   4   7
BRANCH   1  19
ATOM     19  C   UNL     1       4.455   2.814  18.167  0.00  0.00    +0.000 C 
BRANCH  19  20
ATOM     20  C   UNL     1       4.348   3.394  16.762  0.00  0.00    +0.000 C 
BRANCH  20  21
ATOM     21  N   UNL     1       4.467   4.860  16.761  0.00  0.00    +0.000 NA
ATOM     22  H   UNL     1       3.608   5.385  16.601  0.00  0.00    +0.000 HD
BRANCH  21  24
ATOM     23  O   UNL     1       6.464   4.325  15.272  0.00  0.00    +0.000 OA
ATOM     24  S   UNL     1       5.757   5.459  15.828  0.00  0.00    +0.000 S 
ATOM     25  O   UNL     1       5.258   6.543  15.009  0.00  0.00    +0.000 OA
BRANCH  24  26
ATOM     26  C   UNL     1       6.807   6.151  17.085  0.00  0.00    +0.000 A 
ATOM     27  C   UNL     1       7.202   5.329  18.150  0.00  0.00    +0.000 A 
ATOM     28  C   UNL     1       8.013   5.844  19.158  0.00  0.00    +0.000 A 
ATOM     29  C   UNL     1       8.436   7.172  19.093  0.00  0.00    +0.000 A 
ATOM     30  C   UNL     1       8.043   7.974  18.023  0.00  0.00    +0.000 A 
ATOM     31  F   UNL     1       8.461   9.245  17.971  0.00  0.00    +0.000 F 
ATOM     32  C   UNL     1       7.224   7.481  17.013  0.00  0.00    +0.000 A 
ENDBRANCH  24  26
ENDBRANCH  21  24
ENDBRANCH  20  21
ENDBRANCH  19  20
ENDBRANCH   1  19
BRANCH   5  33
ATOM     33  C   UNL     1       2.293   3.354  21.890  0.00  0.00    +0.000 C 
BRANCH  33  34
ATOM     34  O   UNL     1       1.535   2.226  22.309  0.00  0.00    +0.000 OA
ATOM     35  H   UNL     1       1.919   1.433  21.889  0.00  0.00    +0.000 HD
ENDBRANCH  33  34
ENDBRANCH   5  33
TORSDOF 10
ENDMDL
