MODEL 1
REMARK VINA RESULT:      -7.5      0.000      0.000
REMARK  Name = 
REMARK  7 active torsions:
REMARK  status: ('A' for Active; 'I' for Inactive)
REMARK    1  A    between atoms: C_1  and  C_2
REMARK    2  A    between atoms: C_2  and  O_3
REMARK    3  A    between atoms: C_2  and  C_4
REMARK    4  A    between atoms: C_4  and  C_5
REMARK    5  A    between atoms: C_6  and  C_7
REMARK    6  A    between atoms: C_14  and  N_15
REMARK    7  A    between atoms: C_17  and  C_18
REMARK                            x       y       z     vdW  Elec       q    Type
REMARK                         _______ _______ _______ _____ _____    ______ ____
ROOT
ATOM      1  C   UNL     1       3.431   6.026  18.092  0.00  0.00    +0.000 A 
ATOM      2  C   UNL     1       3.004   5.412  19.273  0.00  0.00    +0.000 A 
ATOM      3  C   UNL     1       2.237   6.130  20.183  0.00  0.00    +0.000 A 
ATOM      4  C   UNL     1       1.891   7.443  19.878  0.00  0.00    +0.000 A 
ATOM      5  O   UNL     1       1.151   8.151  20.828  0.00  0.00    +0.000 OA
ATOM      6  C   UNL     1       0.756   9.466  20.615  0.00  0.00    +0.000 A 
ATOM      7  O   UNL     1       0.122  10.049  21.487  0.00  0.00    +0.000 OA
ATOM      8  C   UNL     1       1.083  10.091  19.300  0.00  0.00    +0.000 A 
ATOM      9  C   UNL     1       1.793   9.386  18.399  0.00  0.00    +0.000 A 
ATOM     10  C   UNL     1       2.266   8.046  18.685  0.00  0.00    +0.000 A 
ATOM     11  C   UNL     1       3.062   7.338  17.791  0.00  0.00    +0.000 A 
ENDROOT
BRANCH   8  12
ATOM     12  N   UNL     1       0.628  11.386  18.988  0.00  0.00    +0.000 N 
ATOM     13  C   UNL     1       1.322  12.574  19.128  0.00  0.00    +0.000 A 
ATOM     14  C   UNL     1       0.460  13.569  18.754  0.00  0.00    +0.000 A 
ATOM     15  N   UNL     1      -0.715  13.014  18.354  0.00  0.00    +0.000 NA
ATOM     16  N   UNL     1      -0.592  11.696  18.435  0.00  0.00    +0.000 NA
BRANCH  14  17
ATOM     17  C   UNL     1       0.697  15.005  18.721  0.00  0.00    +0.000 A 
ATOM     18  C   UNL     1       2.006  15.570  18.624  0.00  0.00    +0.000 A 
ATOM     19  C   UNL     1       1.974  16.945  18.603  0.00  0.00    +0.000 A 
ATOM     20  S   UNL     1       0.379  17.555  18.711  0.00  0.00    +0.000 S 
ATOM     21  C   UNL     1      -0.280  15.976  18.778  0.00  0.00    +0.000 A 
ENDBRANCH  14  17
ENDBRANCH   8  12
BRANCH   1  23
ATOM     22  C   UNL     1       5.006   4.623  16.368  0.00  0.00    +0.000 C 
ATOM     23  C   UNL     1       4.265   5.314  17.189  0.00  0.00    +0.000 C 
BRANCH  22  24
ATOM     24  C   UNL     1       5.871   3.818  15.412  0.00  0.00    +0.000 C 
BRANCH  24  26
ATOM     25  C   UNL     1       7.170   4.968  13.529  0.00  0.00    +0.000 C 
ATOM     26  C   UNL     1       7.123   4.616  15.014  0.00  0.00    +0.000 C 
BRANCH  26  27
ATOM     27  O   UNL     1       7.223   5.816  15.785  0.00  0.00    +0.000 OA
ATOM     28  H   UNL     1       7.432   6.544  15.173  0.00  0.00    +0.000 HD
ENDBRANCH  26  27
ENDBRANCH  24  26
ENDBRANCH  22  24
ENDBRANCH   1  23
TORSDOF 6
ENDMDL
MODEL 2
REMARK VINA RESULT:      -7.5      1.646      2.267
REMARK  Name = 
REMARK  7 active torsions:
REMARK  status: ('A' for Active; 'I' for Inactive)
REMARK    1  A    between atoms: C_1  and  C_2
REMARK    2  A    between atoms: C_2  and  O_3
REMARK    3  A    between atoms: C_2  and  C_4
REMARK    4  A    between atoms: C_4  and  C_5
REMARK    5  A    between atoms: C_6  and  C_7
REMARK    6  A    between atoms: C_14  and  N_15
REMARK    7  A    between atoms: C_17  and  C_18
REMARK                            x       y       z     vdW  Elec       q    Type
REMARK                         _______ _______ _______ _____ _____    ______ ____
ROOT
ATOM      1  C   UNL     1       4.579   5.416  16.727  0.00  0.00    +0.000 A 
ATOM      2  C   UNL     1       4.433   4.567  17.828  0.00  0.00    +0.000 A 
ATOM      3  C   UNL     1       3.719   4.999  18.939  0.00  0.00    +0.000 A 
ATOM      4  C   UNL     1       3.143   6.264  18.914  0.00  0.00    +0.000 A 
ATOM      5  O   UNL     1       2.462   6.685  20.061  0.00  0.00    +0.000 OA
ATOM      6  C   UNL     1       1.853   7.932  20.132  0.00  0.00    +0.000 A 
ATOM      7  O   UNL     1       1.282   8.260  21.166  0.00  0.00    +0.000 OA
ATOM      8  C   UNL     1       1.878   8.795  18.915  0.00  0.00    +0.000 A 
ATOM      9  C   UNL     1       2.537   8.364  17.822  0.00  0.00    +0.000 A 
ATOM     10  C   UNL     1       3.238   7.096  17.807  0.00  0.00    +0.000 A 
ATOM     11  C   UNL     1       3.982   6.677  16.709  0.00  0.00    +0.000 A 
ENDROOT
BRANCH   8  12
ATOM     12  N   UNL     1       1.198  10.026  18.894  0.00  0.00    +0.000 N 
ATOM     13  C   UNL     1       1.755  11.291  18.854  0.00  0.00    +0.000 A 
ATOM     14  C   UNL     1       0.710  12.174  18.904  0.00  0.00    +0.000 A 
ATOM     15  N   UNL     1      -0.459  11.480  18.932  0.00  0.00    +0.000 NA
ATOM     16  N   UNL     1      -0.167  10.188  18.862  0.00  0.00    +0.000 NA
BRANCH  14  17
ATOM     17  C   UNL     1       0.755  13.629  18.893  0.00  0.00    +0.000 A 
ATOM     18  C   UNL     1      -0.417  14.439  18.998  0.00  0.00    +0.000 A 
ATOM     19  C   UNL     1      -0.120  15.782  18.972  0.00  0.00    +0.000 A 
ATOM     20  S   UNL     1       1.560  16.068  18.809  0.00  0.00    +0.000 S 
ATOM     21  C   UNL     1       1.900  14.390  18.782  0.00  0.00    +0.000 A 
ENDBRANCH  14  17
ENDBRANCH   8  12
BRANCH   1  23
ATOM     22  C   UNL     1       6.037   4.613  14.570  0.00  0.00    +0.000 C 
ATOM     23  C   UNL     1       5.359   5.000  15.615  0.00  0.00    +0.000 C 
BRANCH  22  24
ATOM     24  C   UNL     1       6.827   4.161  13.353  0.00  0.00    +0.000 C 
BRANCH  24  26
ATOM     25  C   UNL     1       4.838   3.563  11.855  0.00  0.00    +0.000 C 
ATOM     26  C   UNL     1       6.071   3.056  12.598  0.00  0.00    +0.000 C 
BRANCH  26  27
ATOM     27  O   UNL     1       6.937   2.394  11.673  0.00  0.00    +0.000 OA
ATOM     28  H   UNL     1       6.420   1.697  11.231  0.00  0.00    +0.000 HD
ENDBRANCH  26  27
ENDBRANCH  24  26
ENDBRANCH  22  24
ENDBRANCH   1  23
TORSDOF 6
ENDMDL
MODEL 3
REMARK VINA RESULT:      -7.4      0.909      1.142
REMARK  Name = 
REMARK  7 active torsions:
REMARK  status: ('A' for Active; 'I' for Inactive)
REMARK    1  A    between atoms: C_1  and  C_2
REMARK    2  A    between atoms: C_2  and  O_3
REMARK    3  A    between atoms: C_2  and  C_4
REMARK    4  A    between atoms: C_4  and  C_5
REMARK    5  A    between atoms: C_6  and  C_7
REMARK    6  A    between atoms: C_14  and  N_15
REMARK    7  A    between atoms: C_17  and  C_18
REMARK                            x       y       z     vdW  Elec       q    Type
REMARK                         _______ _______ _______ _____ _____    ______ ____
ROOT
ATOM      1  C   UNL     1       3.340   5.720  18.269  0.00  0.00    +0.000 A 
ATOM      2  C   UNL     1       2.915   5.152  19.474  0.00  0.00    +0.000 A 
ATOM      3  C   UNL     1       2.178   5.916  20.371  0.00  0.00    +0.000 A 
ATOM      4  C   UNL     1       1.860   7.227  20.031  0.00  0.00    +0.000 A 
ATOM      5  O   UNL     1       1.151   7.982  20.970  0.00  0.00    +0.000 OA
ATOM      6  C   UNL     1       0.786   9.299  20.722  0.00  0.00    +0.000 A 
ATOM      7  O   UNL     1       0.178   9.923  21.585  0.00  0.00    +0.000 OA
ATOM      8  C   UNL     1       1.110   9.876  19.385  0.00  0.00    +0.000 A 
ATOM      9  C   UNL     1       1.790   9.127  18.496  0.00  0.00    +0.000 A 
ATOM     10  C   UNL     1       2.234   7.785  18.816  0.00  0.00    +0.000 A 
ATOM     11  C   UNL     1       3.000   7.031  17.934  0.00  0.00    +0.000 A 
ENDROOT
BRANCH   8  12
ATOM     12  N   UNL     1       0.683  11.172  19.040  0.00  0.00    +0.000 N 
ATOM     13  C   UNL     1       1.373  12.357  19.218  0.00  0.00    +0.000 A 
ATOM     14  C   UNL     1       0.542  13.356  18.787  0.00  0.00    +0.000 A 
ATOM     15  N   UNL     1      -0.609  12.805  18.317  0.00  0.00    +0.000 NA
ATOM     16  N   UNL     1      -0.498  11.487  18.411  0.00  0.00    +0.000 NA
BRANCH  14  17
ATOM     17  C   UNL     1       0.790  14.789  18.763  0.00  0.00    +0.000 A 
ATOM     18  C   UNL     1      -0.257  15.757  18.866  0.00  0.00    +0.000 A 
ATOM     19  C   UNL     1       0.224  17.044  18.826  0.00  0.00    +0.000 A 
ATOM     20  S   UNL     1       1.926  17.092  18.655  0.00  0.00    +0.000 S 
ATOM     21  C   UNL     1       2.029  15.383  18.641  0.00  0.00    +0.000 A 
ENDBRANCH  14  17
ENDBRANCH   8  12
BRANCH   1  23
ATOM     22  C   UNL     1       4.843   4.247  16.539  0.00  0.00    +0.000 C 
ATOM     23  C   UNL     1       4.143   4.960  17.376  0.00  0.00    +0.000 C 
BRANCH  22  24
ATOM     24  C   UNL     1       5.659   3.415  15.563  0.00  0.00    +0.000 C 
BRANCH  24  26
ATOM     25  C   UNL     1       7.186   5.144  14.452  0.00  0.00    +0.000 C 
ATOM     26  C   UNL     1       5.977   4.227  14.296  0.00  0.00    +0.000 C 
BRANCH  26  27
ATOM     27  O   UNL     1       6.186   3.358  13.180  0.00  0.00    +0.000 OA
ATOM     28  H   UNL     1       6.078   2.443  13.494  0.00  0.00    +0.000 HD
ENDBRANCH  26  27
ENDBRANCH  24  26
ENDBRANCH  22  24
ENDBRANCH   1  23
TORSDOF 6
ENDMDL
MODEL 4
REMARK VINA RESULT:      -7.3      2.742      3.291
REMARK  Name = 
REMARK  7 active torsions:
REMARK  status: ('A' for Active; 'I' for Inactive)
REMARK    1  A    between atoms: C_1  and  C_2
REMARK    2  A    between atoms: C_2  and  O_3
REMARK    3  A    between atoms: C_2  and  C_4
REMARK    4  A    between atoms: C_4  and  C_5
REMARK    5  A    between atoms: C_6  and  C_7
REMARK    6  A    between atoms: C_14  and  N_15
REMARK    7  A    between atoms: C_17  and  C_18
REMARK                            x       y       z     vdW  Elec       q    Type
REMARK                         _______ _______ _______ _____ _____    ______ ____
ROOT
ATOM      1  C   UNL     1       4.487   5.474  16.944  0.00  0.00    +0.000 A 
ATOM      2  C   UNL     1       4.470   4.639  18.065  0.00  0.00    +0.000 A 
ATOM      3  C   UNL     1       3.785   5.036  19.207  0.00  0.00    +0.000 A 
ATOM      4  C   UNL     1       3.109   6.251  19.194  0.00  0.00    +0.000 A 
ATOM      5  O   UNL     1       2.460   6.641  20.369  0.00  0.00    +0.000 OA
ATOM      6  C   UNL     1       1.757   7.836  20.453  0.00  0.00    +0.000 A 
ATOM      7  O   UNL     1       1.219   8.140  21.513  0.00  0.00    +0.000 OA
ATOM      8  C   UNL     1       1.646   8.673  19.223  0.00  0.00    +0.000 A 
ATOM      9  C   UNL     1       2.277   8.273  18.102  0.00  0.00    +0.000 A 
ATOM     10  C   UNL     1       3.076   7.065  18.069  0.00  0.00    +0.000 A 
ATOM     11  C   UNL     1       3.790   6.683  16.938  0.00  0.00    +0.000 A 
ENDROOT
BRANCH   8  12
ATOM     12  N   UNL     1       0.869   9.845  19.220  0.00  0.00    +0.000 N 
ATOM     13  C   UNL     1      -0.433   9.988  19.662  0.00  0.00    +0.000 A 
ATOM     14  C   UNL     1      -0.786  11.287  19.409  0.00  0.00    +0.000 A 
ATOM     15  N   UNL     1       0.277  11.940  18.867  0.00  0.00    +0.000 NA
ATOM     16  N   UNL     1       1.293  11.088  18.812  0.00  0.00    +0.000 NA
BRANCH  14  17
ATOM     17  C   UNL     1      -2.053  11.949  19.683  0.00  0.00    +0.000 A 
ATOM     18  C   UNL     1      -3.217  11.753  18.878  0.00  0.00    +0.000 A 
ATOM     19  C   UNL     1      -4.290  12.479  19.338  0.00  0.00    +0.000 A 
ATOM     20  S   UNL     1      -3.898  13.401  20.725  0.00  0.00    +0.000 S 
ATOM     21  C   UNL     1      -2.286  12.825  20.721  0.00  0.00    +0.000 A 
ENDBRANCH  14  17
ENDBRANCH   8  12
BRANCH   1  23
ATOM     22  C   UNL     1       5.932   4.796  14.736  0.00  0.00    +0.000 C 
ATOM     23  C   UNL     1       5.236   5.098  15.796  0.00  0.00    +0.000 C 
BRANCH  22  24
ATOM     24  C   UNL     1       6.742   4.445  13.499  0.00  0.00    +0.000 C 
BRANCH  24  26
ATOM     25  C   UNL     1       4.848   3.597  12.000  0.00  0.00    +0.000 C 
ATOM     26  C   UNL     1       6.119   3.244  12.767  0.00  0.00    +0.000 C 
BRANCH  26  27
ATOM     27  O   UNL     1       7.062   2.656  11.869  0.00  0.00    +0.000 OA
ATOM     28  H   UNL     1       6.979   1.689  11.945  0.00  0.00    +0.000 HD
ENDBRANCH  26  27
ENDBRANCH  24  26
ENDBRANCH  22  24
ENDBRANCH   1  23
TORSDOF 6
ENDMDL
MODEL 5
REMARK VINA RESULT:      -7.3      3.777      4.754
REMARK  Name = 
REMARK  7 active torsions:
REMARK  status: ('A' for Active; 'I' for Inactive)
REMARK    1  A    between atoms: C_1  and  C_2
REMARK    2  A    between atoms: C_2  and  O_3
REMARK    3  A    between atoms: C_2  and  C_4
REMARK    4  A    between atoms: C_4  and  C_5
REMARK    5  A    between atoms: C_6  and  C_7
REMARK    6  A    between atoms: C_14  and  N_15
REMARK    7  A    between atoms: C_17  and  C_18
REMARK                            x       y       z     vdW  Elec       q    Type
REMARK                         _______ _______ _______ _____ _____    ______ ____
ROOT
ATOM      1  C   UNL     1       2.428   6.720  19.429  0.00  0.00    +0.000 A 
ATOM      2  C   UNL     1       2.893   7.176  18.191  0.00  0.00    +0.000 A 
ATOM      3  C   UNL     1       2.588   8.467  17.776  0.00  0.00    +0.000 A 
ATOM      4  C   UNL     1       1.844   9.284  18.621  0.00  0.00    +0.000 A 
ATOM      5  O   UNL     1       1.521  10.563  18.160  0.00  0.00    +0.000 OA
ATOM      6  C   UNL     1       0.783  11.453  18.931  0.00  0.00    +0.000 A 
ATOM      7  O   UNL     1       0.513  12.558  18.474  0.00  0.00    +0.000 OA
ATOM      8  C   UNL     1       0.400  11.034  20.311  0.00  0.00    +0.000 A 
ATOM      9  C   UNL     1       0.727   9.797  20.732  0.00  0.00    +0.000 A 
ATOM     10  C   UNL     1       1.421   8.859  19.873  0.00  0.00    +0.000 A 
ATOM     11  C   UNL     1       1.697   7.556  20.273  0.00  0.00    +0.000 A 
ENDROOT
BRANCH   8  12
ATOM     12  N   UNL     1      -0.265  11.925  21.173  0.00  0.00    +0.000 N 
ATOM     13  C   UNL     1      -1.618  11.969  21.451  0.00  0.00    +0.000 A 
ATOM     14  C   UNL     1      -1.803  13.032  22.295  0.00  0.00    +0.000 A 
ATOM     15  N   UNL     1      -0.598  13.601  22.565  0.00  0.00    +0.000 NA
ATOM     16  N   UNL     1       0.335  12.896  21.940  0.00  0.00    +0.000 NA
BRANCH  14  17
ATOM     17  C   UNL     1      -3.044  13.513  22.883  0.00  0.00    +0.000 A 
ATOM     18  C   UNL     1      -3.942  12.662  23.599  0.00  0.00    +0.000 A 
ATOM     19  C   UNL     1      -5.040  13.346  24.065  0.00  0.00    +0.000 A 
ATOM     20  S   UNL     1      -4.999  15.001  23.635  0.00  0.00    +0.000 S 
ATOM     21  C   UNL     1      -3.502  14.812  22.827  0.00  0.00    +0.000 A 
ENDBRANCH  14  17
ENDBRANCH   8  12
BRANCH   1  23
ATOM     22  C   UNL     1       2.884   4.151  20.213  0.00  0.00    +0.000 C 
ATOM     23  C   UNL     1       2.688   5.382  19.830  0.00  0.00    +0.000 C 
BRANCH  22  24
ATOM     24  C   UNL     1       3.113   2.716  20.659  0.00  0.00    +0.000 C 
BRANCH  24  26
ATOM     25  C   UNL     1       3.371   1.884  18.251  0.00  0.00    +0.000 C 
ATOM     26  C   UNL     1       3.992   1.968  19.642  0.00  0.00    +0.000 C 
BRANCH  26  27
ATOM     27  O   UNL     1       5.281   2.578  19.546  0.00  0.00    +0.000 OA
ATOM     28  H   UNL     1       5.149   3.541  19.485  0.00  0.00    +0.000 HD
ENDBRANCH  26  27
ENDBRANCH  24  26
ENDBRANCH  22  24
ENDBRANCH   1  23
TORSDOF 6
ENDMDL
MODEL 6
REMARK VINA RESULT:      -7.2      3.779      4.642
REMARK  Name = 
REMARK  7 active torsions:
REMARK  status: ('A' for Active; 'I' for Inactive)
REMARK    1  A    between atoms: C_1  and  C_2
REMARK    2  A    between atoms: C_2  and  O_3
REMARK    3  A    between atoms: C_2  and  C_4
REMARK    4  A    between atoms: C_4  and  C_5
REMARK    5  A    between atoms: C_6  and  C_7
REMARK    6  A    between atoms: C_14  and  N_15
REMARK    7  A    between atoms: C_17  and  C_18
REMARK                            x       y       z     vdW  Elec       q    Type
REMARK                         _______ _______ _______ _____ _____    ______ ____
ROOT
ATOM      1  C   UNL     1       2.706   6.560  19.170  0.00  0.00    +0.000 A 
ATOM      2  C   UNL     1       3.095   7.176  17.976  0.00  0.00    +0.000 A 
ATOM      3  C   UNL     1       2.631   8.452  17.679  0.00  0.00    +0.000 A 
ATOM      4  C   UNL     1       1.807   9.096  18.597  0.00  0.00    +0.000 A 
ATOM      5  O   UNL     1       1.327  10.363  18.253  0.00  0.00    +0.000 OA
ATOM      6  C   UNL     1       0.499  11.086  19.104  0.00  0.00    +0.000 A 
ATOM      7  O   UNL     1       0.092  12.186  18.749  0.00  0.00    +0.000 OA
ATOM      8  C   UNL     1       0.189  10.502  20.442  0.00  0.00    +0.000 A 
ATOM      9  C   UNL     1       0.668   9.282  20.750  0.00  0.00    +0.000 A 
ATOM     10  C   UNL     1       1.456   8.514  19.808  0.00  0.00    +0.000 A 
ATOM     11  C   UNL     1       1.893   7.224  20.089  0.00  0.00    +0.000 A 
ENDROOT
BRANCH   8  12
ATOM     12  N   UNL     1      -0.565  11.227  21.383  0.00  0.00    +0.000 N 
ATOM     13  C   UNL     1      -1.740  11.921  21.160  0.00  0.00    +0.000 A 
ATOM     14  C   UNL     1      -2.071  12.511  22.351  0.00  0.00    +0.000 A 
ATOM     15  N   UNL     1      -1.155  12.159  23.292  0.00  0.00    +0.000 NA
ATOM     16  N   UNL     1      -0.283  11.336  22.724  0.00  0.00    +0.000 NA
BRANCH  14  17
ATOM     17  C   UNL     1      -3.218  13.354  22.653  0.00  0.00    +0.000 A 
ATOM     18  C   UNL     1      -4.271  13.592  21.718  0.00  0.00    +0.000 A 
ATOM     19  C   UNL     1      -5.245  14.414  22.235  0.00  0.00    +0.000 A 
ATOM     20  S   UNL     1      -4.890  14.908  23.834  0.00  0.00    +0.000 S 
ATOM     21  C   UNL     1      -3.429  14.014  23.846  0.00  0.00    +0.000 A 
ENDBRANCH  14  17
ENDBRANCH   8  12
BRANCH   1  23
ATOM     22  C   UNL     1       3.478   4.001  19.695  0.00  0.00    +0.000 C 
ATOM     23  C   UNL     1       3.130   5.233  19.449  0.00  0.00    +0.000 C 
BRANCH  22  24
ATOM     24  C   UNL     1       3.883   2.564  19.982  0.00  0.00    +0.000 C 
BRANCH  24  26
ATOM     25  C   UNL     1       2.906   2.366  17.623  0.00  0.00    +0.000 C 
ATOM     26  C   UNL     1       3.371   1.627  18.875  0.00  0.00    +0.000 C 
BRANCH  26  27
ATOM     27  O   UNL     1       4.375   0.676  18.515  0.00  0.00    +0.000 OA
ATOM     28  H   UNL     1       4.537   0.109  19.290  0.00  0.00    +0.000 HD
ENDBRANCH  26  27
ENDBRANCH  24  26
ENDBRANCH  22  24
ENDBRANCH   1  23
TORSDOF 6
ENDMDL
MODEL 7
REMARK VINA RESULT:      -7.1      1.326      1.745
REMARK  Name = 
REMARK  7 active torsions:
REMARK  status: ('A' for Active; 'I' for Inactive)
REMARK    1  A    between atoms: C_1  and  C_2
REMARK    2  A    between atoms: C_2  and  O_3
REMARK    3  A    between atoms: C_2  and  C_4
REMARK    4  A    between atoms: C_4  and  C_5
REMARK    5  A    between atoms: C_6  and  C_7
REMARK    6  A    between atoms: C_14  and  N_15
REMARK    7  A    between atoms: C_17  and  C_18
REMARK                            x       y       z     vdW  Elec       q    Type
REMARK                         _______ _______ _______ _____ _____    ______ ____
ROOT
ATOM      1  C   UNL     1       4.393   5.818  17.515  0.00  0.00    +0.000 A 
ATOM      2  C   UNL     1       4.130   5.014  18.628  0.00  0.00    +0.000 A 
ATOM      3  C   UNL     1       3.265   5.468  19.615  0.00  0.00    +0.000 A 
ATOM      4  C   UNL     1       2.660   6.710  19.455  0.00  0.00    +0.000 A 
ATOM      5  O   UNL     1       1.824   7.157  20.483  0.00  0.00    +0.000 OA
ATOM      6  C   UNL     1       1.173   8.383  20.414  0.00  0.00    +0.000 A 
ATOM      7  O   UNL     1       0.463   8.735  21.350  0.00  0.00    +0.000 OA
ATOM      8  C   UNL     1       1.332   9.192  19.171  0.00  0.00    +0.000 A 
ATOM      9  C   UNL     1       2.140   8.737  18.194  0.00  0.00    +0.000 A 
ATOM     10  C   UNL     1       2.874   7.496  18.330  0.00  0.00    +0.000 A 
ATOM     11  C   UNL     1       3.767   7.055  17.359  0.00  0.00    +0.000 A 
ENDROOT
BRANCH   8  12
ATOM     12  N   UNL     1       0.624  10.396  19.003  0.00  0.00    +0.000 N 
ATOM     13  C   UNL     1       0.994  11.654  19.442  0.00  0.00    +0.000 A 
ATOM     14  C   UNL     1      -0.028  12.498  19.100  0.00  0.00    +0.000 A 
ATOM     15  N   UNL     1      -0.982  11.794  18.434  0.00  0.00    +0.000 NA
ATOM     16  N   UNL     1      -0.560  10.542  18.320  0.00  0.00    +0.000 NA
BRANCH  14  17
ATOM     17  C   UNL     1      -0.135  13.930  19.337  0.00  0.00    +0.000 A 
ATOM     18  C   UNL     1      -1.190  14.509  20.108  0.00  0.00    +0.000 A 
ATOM     19  C   UNL     1      -1.073  15.876  20.197  0.00  0.00    +0.000 A 
ATOM     20  S   UNL     1       0.291  16.464  19.347  0.00  0.00    +0.000 S 
ATOM     21  C   UNL     1       0.739  14.884  18.862  0.00  0.00    +0.000 A 
ENDBRANCH  14  17
ENDBRANCH   8  12
BRANCH   1  23
ATOM     22  C   UNL     1       6.198   5.021  15.637  0.00  0.00    +0.000 C 
ATOM     23  C   UNL     1       5.323   5.382  16.533  0.00  0.00    +0.000 C 
BRANCH  22  24
ATOM     24  C   UNL     1       7.219   4.599  14.592  0.00  0.00    +0.000 C 
BRANCH  24  26
ATOM     25  C   UNL     1       7.328   4.809  12.042  0.00  0.00    +0.000 C 
ATOM     26  C   UNL     1       6.529   4.319  13.246  0.00  0.00    +0.000 C 
BRANCH  26  27
ATOM     27  O   UNL     1       6.263   2.922  13.097  0.00  0.00    +0.000 OA
ATOM     28  H   UNL     1       6.830   2.445  13.730  0.00  0.00    +0.000 HD
ENDBRANCH  26  27
ENDBRANCH  24  26
ENDBRANCH  22  24
ENDBRANCH   1  23
TORSDOF 6
ENDMDL
MODEL 8
REMARK VINA RESULT:      -7.1      2.417      3.242
REMARK  Name = 
REMARK  7 active torsions:
REMARK  status: ('A' for Active; 'I' for Inactive)
REMARK    1  A    between atoms: C_1  and  C_2
REMARK    2  A    between atoms: C_2  and  O_3
REMARK    3  A    between atoms: C_2  and  C_4
REMARK    4  A    between atoms: C_4  and  C_5
REMARK    5  A    between atoms: C_6  and  C_7
REMARK    6  A    between atoms: C_14  and  N_15
REMARK    7  A    between atoms: C_17  and  C_18
REMARK                            x       y       z     vdW  Elec       q    Type
REMARK                         _______ _______ _______ _____ _____    ______ ____
ROOT
ATOM      1  C   UNL     1       4.571   4.984  16.757  0.00  0.00    +0.000 A 
ATOM      2  C   UNL     1       4.444   4.040  17.780  0.00  0.00    +0.000 A 
ATOM      3  C   UNL     1       3.745   4.369  18.935  0.00  0.00    +0.000 A 
ATOM      4  C   UNL     1       3.165   5.630  19.031  0.00  0.00    +0.000 A 
ATOM      5  O   UNL     1       2.500   5.945  20.219  0.00  0.00    +0.000 OA
ATOM      6  C   UNL     1       1.888   7.178  20.409  0.00  0.00    +0.000 A 
ATOM      7  O   UNL     1       1.332   7.411  21.476  0.00  0.00    +0.000 OA
ATOM      8  C   UNL     1       1.894   8.145  19.273  0.00  0.00    +0.000 A 
ATOM      9  C   UNL     1       2.538   7.815  18.137  0.00  0.00    +0.000 A 
ATOM     10  C   UNL     1       3.242   6.557  17.999  0.00  0.00    +0.000 A 
ATOM     11  C   UNL     1       3.971   6.239  16.859  0.00  0.00    +0.000 A 
ENDROOT
BRANCH   8  12
ATOM     12  N   UNL     1       1.210   9.370  19.371  0.00  0.00    +0.000 N 
ATOM     13  C   UNL     1       0.756   9.988  20.522  0.00  0.00    +0.000 A 
ATOM     14  C   UNL     1       0.105  11.123  20.120  0.00  0.00    +0.000 A 
ATOM     15  N   UNL     1       0.189  11.229  18.767  0.00  0.00    +0.000 NA
ATOM     16  N   UNL     1       0.908  10.207  18.322  0.00  0.00    +0.000 NA
BRANCH  14  17
ATOM     17  C   UNL     1      -0.557  12.124  20.943  0.00  0.00    +0.000 A 
ATOM     18  C   UNL     1      -0.660  12.012  22.364  0.00  0.00    +0.000 A 
ATOM     19  C   UNL     1      -1.322  13.082  22.919  0.00  0.00    +0.000 A 
ATOM     20  S   UNL     1      -1.828  14.211  21.737  0.00  0.00    +0.000 S 
ATOM     21  C   UNL     1      -1.154  13.275  20.472  0.00  0.00    +0.000 A 
ENDBRANCH  14  17
ENDBRANCH   8  12
BRANCH   1  23
ATOM     22  C   UNL     1       6.005   4.401  14.514  0.00  0.00    +0.000 C 
ATOM     23  C   UNL     1       5.336   4.671  15.601  0.00  0.00    +0.000 C 
BRANCH  22  24
ATOM     24  C   UNL     1       6.784   4.086  13.248  0.00  0.00    +0.000 C 
BRANCH  24  26
ATOM     25  C   UNL     1       4.877   3.381  11.692  0.00  0.00    +0.000 C 
ATOM     26  C   UNL     1       6.113   2.941  12.471  0.00  0.00    +0.000 C 
BRANCH  26  27
ATOM     27  O   UNL     1       7.042   2.328  11.574  0.00  0.00    +0.000 OA
ATOM     28  H   UNL     1       7.866   2.845  11.604  0.00  0.00    +0.000 HD
ENDBRANCH  26  27
ENDBRANCH  24  26
ENDBRANCH  22  24
ENDBRANCH   1  23
TORSDOF 6
ENDMDL
MODEL 9
REMARK VINA RESULT:      -7.1      3.009      3.448
REMARK  Name = 
REMARK  7 active torsions:
REMARK  status: ('A' for Active; 'I' for Inactive)
REMARK    1  A    between atoms: C_1  and  C_2
REMARK    2  A    between atoms: C_2  and  O_3
REMARK    3  A    between atoms: C_2  and  C_4
REMARK    4  A    between atoms: C_4  and  C_5
REMARK    5  A    between atoms: C_6  and  C_7
REMARK    6  A    between atoms: C_14  and  N_15
REMARK    7  A    between atoms: C_17  and  C_18
REMARK                            x       y       z     vdW  Elec       q    Type
REMARK                         _______ _______ _______ _____ _____    ______ ____
ROOT
ATOM      1  C   UNL     1       4.591   5.921  17.188  0.00  0.00    +0.000 A 
ATOM      2  C   UNL     1       4.631   5.179  18.373  0.00  0.00    +0.000 A 
ATOM      3  C   UNL     1       3.854   5.573  19.456  0.00  0.00    +0.000 A 
ATOM      4  C   UNL     1       3.034   6.688  19.322  0.00  0.00    +0.000 A 
ATOM      5  O   UNL     1       2.293   7.081  20.440  0.00  0.00    +0.000 OA
ATOM      6  C   UNL     1       1.444   8.180  20.404  0.00  0.00    +0.000 A 
ATOM      7  O   UNL     1       0.828   8.494  21.417  0.00  0.00    +0.000 OA
ATOM      8  C   UNL     1       1.283   8.899  19.107  0.00  0.00    +0.000 A 
ATOM      9  C   UNL     1       2.005   8.498  18.043  0.00  0.00    +0.000 A 
ATOM     10  C   UNL     1       2.948   7.402  18.134  0.00  0.00    +0.000 A 
ATOM     11  C   UNL     1       3.751   7.027  17.062  0.00  0.00    +0.000 A 
ENDROOT
BRANCH   8  12
ATOM     12  N   UNL     1       0.367   9.960  18.983  0.00  0.00    +0.000 N 
ATOM     13  C   UNL     1      -1.013   9.877  18.956  0.00  0.00    +0.000 A 
ATOM     14  C   UNL     1      -1.473  11.152  18.766  0.00  0.00    +0.000 A 
ATOM     15  N   UNL     1      -0.414  12.005  18.719  0.00  0.00    +0.000 NA
ATOM     16  N   UNL     1       0.689  11.295  18.914  0.00  0.00    +0.000 NA
BRANCH  14  17
ATOM     17  C   UNL     1      -2.850  11.610  18.661  0.00  0.00    +0.000 A 
ATOM     18  C   UNL     1      -3.499  12.351  19.696  0.00  0.00    +0.000 A 
ATOM     19  C   UNL     1      -4.793  12.677  19.364  0.00  0.00    +0.000 A 
ATOM     20  S   UNL     1      -5.231  12.084  17.819  0.00  0.00    +0.000 S 
ATOM     21  C   UNL     1      -3.682  11.394  17.583  0.00  0.00    +0.000 A 
ENDBRANCH  14  17
ENDBRANCH   8  12
BRANCH   1  23
ATOM     22  C   UNL     1       6.188   5.260  15.082  0.00  0.00    +0.000 C 
ATOM     23  C   UNL     1       5.428   5.556  16.100  0.00  0.00    +0.000 C 
BRANCH  22  24
ATOM     24  C   UNL     1       7.073   4.916  13.895  0.00  0.00    +0.000 C 
BRANCH  24  26
ATOM     25  C   UNL     1       4.991   3.776  12.935  0.00  0.00    +0.000 C 
ATOM     26  C   UNL     1       6.504   3.711  13.129  0.00  0.00    +0.000 C 
BRANCH  26  27
ATOM     27  O   UNL     1       7.136   3.580  11.853  0.00  0.00    +0.000 OA
ATOM     28  H   UNL     1       8.072   3.363  12.009  0.00  0.00    +0.000 HD
ENDBRANCH  26  27
ENDBRANCH  24  26
ENDBRANCH  22  24
ENDBRANCH   1  23
TORSDOF 6
ENDMDL
