MODEL 1
REMARK VINA RESULT:      -5.9      0.000      0.000
REMARK  Name = 
REMARK  8 active torsions:
REMARK  status: ('A' for Active; 'I' for Inactive)
REMARK    1  A    between atoms: C_1  and  C_2
REMARK    2  A    between atoms: C_5  and  O_6
REMARK    3  A    between atoms: C_7  and  C_8
REMARK    4  A    between atoms: C_9  and  O_10
REMARK    5  A    between atoms: O_10  and  C_11
REMARK    6  A    between atoms: C_11  and  C_12
REMARK    7  A    between atoms: C_12  and  C_13
REMARK    8  A    between atoms: C_12  and  N_14
REMARK                            x       y       z     vdW  Elec       q    Type
REMARK                         _______ _______ _______ _____ _____    ______ ____
ROOT
ATOM      1  C   UNL     1       2.684   7.743  18.248  0.00  0.00    +0.000 C 
ATOM      2  C   UNL     1       3.393   6.526  17.718  0.00  0.00    +0.000 A 
ATOM      3  C   UNL     1       4.534   6.760  16.928  0.00  0.00    +0.000 A 
ATOM      4  C   UNL     1       5.312   5.714  16.443  0.00  0.00    +0.000 A 
ATOM      5  C   UNL     1       4.958   4.402  16.744  0.00  0.00    +0.000 A 
ATOM      6  C   UNL     1       3.826   4.123  17.519  0.00  0.00    +0.000 A 
ATOM      7  C   UNL     1       3.453   2.697  17.842  0.00  0.00    +0.000 C 
ATOM      8  C   UNL     1       3.026   5.191  17.996  0.00  0.00    +0.000 A 
ENDROOT
BRANCH   5   9
ATOM      9  O   UNL     1       5.734   3.375  16.283  0.00  0.00    +0.000 OA
ATOM     10  H   UNL     1       6.663   3.656  16.276  0.00  0.00    +0.000 HD
ENDBRANCH   5   9
BRANCH   8  11
ATOM     11  O   UNL     1       1.973   4.787  18.783  0.00  0.00    +0.000 OA
BRANCH  11  12
ATOM     12  C   UNL     1       2.097   4.926  20.198  0.00  0.00    +0.000 C 
BRANCH  12  13
ATOM     13  C   UNL     1       1.350   3.781  20.916  0.00  0.00    +0.000 C 
ATOM     14  C   UNL     1       2.354   2.811  21.536  0.00  0.00    +0.000 C 
BRANCH  13  15
ATOM     15  N   UNL     1       0.449   3.037  20.022  0.00  0.00    +0.000 NA
ATOM     16  H   UNL     1       0.069   2.228  20.512  0.00  0.00    +0.000 HD
ATOM     17  H   UNL     1       1.018   2.645  19.268  0.00  0.00    +0.000 HD
ENDBRANCH  13  15
ENDBRANCH  12  13
ENDBRANCH  11  12
ENDBRANCH   8  11
TORSDOF 5
ENDMDL
MODEL 2
REMARK VINA RESULT:      -5.8      3.018      4.695
REMARK  Name = 
REMARK  8 active torsions:
REMARK  status: ('A' for Active; 'I' for Inactive)
REMARK    1  A    between atoms: C_1  and  C_2
REMARK    2  A    between atoms: C_5  and  O_6
REMARK    3  A    between atoms: C_7  and  C_8
REMARK    4  A    between atoms: C_9  and  O_10
REMARK    5  A    between atoms: O_10  and  C_11
REMARK    6  A    between atoms: C_11  and  C_12
REMARK    7  A    between atoms: C_12  and  C_13
REMARK    8  A    between atoms: C_12  and  N_14
REMARK                            x       y       z     vdW  Elec       q    Type
REMARK                         _______ _______ _______ _____ _____    ______ ____
ROOT
ATOM      1  C   UNL     1       4.148   6.224  17.101  0.00  0.00    +0.000 C 
ATOM      2  C   UNL     1       3.554   5.148  17.969  0.00  0.00    +0.000 A 
ATOM      3  C   UNL     1       2.149   5.068  17.994  0.00  0.00    +0.000 A 
ATOM      4  C   UNL     1       1.488   4.069  18.702  0.00  0.00    +0.000 A 
ATOM      5  C   UNL     1       2.230   3.125  19.406  0.00  0.00    +0.000 A 
ATOM      6  C   UNL     1       3.630   3.173  19.416  0.00  0.00    +0.000 A 
ATOM      7  C   UNL     1       4.424   2.142  20.179  0.00  0.00    +0.000 C 
ATOM      8  C   UNL     1       4.298   4.202  18.708  0.00  0.00    +0.000 A 
ENDROOT
BRANCH   5   9
ATOM      9  O   UNL     1       1.580   2.132  20.086  0.00  0.00    +0.000 OA
ATOM     10  H   UNL     1       2.207   1.419  20.282  0.00  0.00    +0.000 HD
ENDBRANCH   5   9
BRANCH   8  11
ATOM     11  O   UNL     1       5.669   4.110  18.758  0.00  0.00    +0.000 OA
BRANCH  11  12
ATOM     12  C   UNL     1       6.398   5.203  19.318  0.00  0.00    +0.000 C 
BRANCH  12  13
ATOM     13  C   UNL     1       7.722   5.413  18.551  0.00  0.00    +0.000 C 
ATOM     14  C   UNL     1       7.640   6.686  17.710  0.00  0.00    +0.000 C 
BRANCH  13  15
ATOM     15  N   UNL     1       8.063   4.279  17.678  0.00  0.00    +0.000 NA
ATOM     16  H   UNL     1       7.209   3.855  17.316  0.00  0.00    +0.000 HD
ATOM     17  H   UNL     1       8.490   3.557  18.263  0.00  0.00    +0.000 HD
ENDBRANCH  13  15
ENDBRANCH  12  13
ENDBRANCH  11  12
ENDBRANCH   8  11
TORSDOF 5
ENDMDL
MODEL 3
REMARK VINA RESULT:      -5.7      1.149      2.591
REMARK  Name = 
REMARK  8 active torsions:
REMARK  status: ('A' for Active; 'I' for Inactive)
REMARK    1  A    between atoms: C_1  and  C_2
REMARK    2  A    between atoms: C_5  and  O_6
REMARK    3  A    between atoms: C_7  and  C_8
REMARK    4  A    between atoms: C_9  and  O_10
REMARK    5  A    between atoms: O_10  and  C_11
REMARK    6  A    between atoms: C_11  and  C_12
REMARK    7  A    between atoms: C_12  and  C_13
REMARK    8  A    between atoms: C_12  and  N_14
REMARK                            x       y       z     vdW  Elec       q    Type
REMARK                         _______ _______ _______ _____ _____    ______ ____
ROOT
ATOM      1  C   UNL     1       3.196   2.196  17.982  0.00  0.00    +0.000 C 
ATOM      2  C   UNL     1       3.755   3.524  17.551  0.00  0.00    +0.000 A 
ATOM      3  C   UNL     1       4.787   3.489  16.593  0.00  0.00    +0.000 A 
ATOM      4  C   UNL     1       5.331   4.654  16.065  0.00  0.00    +0.000 A 
ATOM      5  C   UNL     1       4.849   5.889  16.491  0.00  0.00    +0.000 A 
ATOM      6  C   UNL     1       3.831   5.971  17.449  0.00  0.00    +0.000 A 
ATOM      7  C   UNL     1       3.313   7.314  17.902  0.00  0.00    +0.000 C 
ATOM      8  C   UNL     1       3.291   4.781  17.997  0.00  0.00    +0.000 A 
ENDROOT
BRANCH   5   9
ATOM      9  O   UNL     1       5.372   7.034  15.957  0.00  0.00    +0.000 OA
ATOM     10  H   UNL     1       4.758   7.385  15.293  0.00  0.00    +0.000 HD
ENDBRANCH   5   9
BRANCH   8  11
ATOM     11  O   UNL     1       2.267   4.996  18.890  0.00  0.00    +0.000 OA
BRANCH  11  12
ATOM     12  C   UNL     1       2.567   4.938  20.284  0.00  0.00    +0.000 C 
BRANCH  12  13
ATOM     13  C   UNL     1       1.595   3.974  21.001  0.00  0.00    +0.000 C 
ATOM     14  C   UNL     1       2.366   2.787  21.574  0.00  0.00    +0.000 C 
BRANCH  13  15
ATOM     15  N   UNL     1       0.529   3.476  20.118  0.00  0.00    +0.000 NA
ATOM     16  H   UNL     1       0.941   3.010  19.311  0.00  0.00    +0.000 HD
ATOM     17  H   UNL     1       0.041   4.290  19.734  0.00  0.00    +0.000 HD
ENDBRANCH  13  15
ENDBRANCH  12  13
ENDBRANCH  11  12
ENDBRANCH   8  11
TORSDOF 5
ENDMDL
MODEL 4
REMARK VINA RESULT:      -5.7      2.600      4.523
REMARK  Name = 
REMARK  8 active torsions:
REMARK  status: ('A' for Active; 'I' for Inactive)
REMARK    1  A    between atoms: C_1  and  C_2
REMARK    2  A    between atoms: C_5  and  O_6
REMARK    3  A    between atoms: C_7  and  C_8
REMARK    4  A    between atoms: C_9  and  O_10
REMARK    5  A    between atoms: O_10  and  C_11
REMARK    6  A    between atoms: C_11  and  C_12
REMARK    7  A    between atoms: C_12  and  C_13
REMARK    8  A    between atoms: C_12  and  N_14
REMARK                            x       y       z     vdW  Elec       q    Type
REMARK                         _______ _______ _______ _____ _____    ______ ____
ROOT
ATOM      1  C   UNL     1       2.212   6.828  20.178  0.00  0.00    +0.000 C 
ATOM      2  C   UNL     1       2.175   5.365  19.832  0.00  0.00    +0.000 A 
ATOM      3  C   UNL     1       1.129   4.613  20.400  0.00  0.00    +0.000 A 
ATOM      4  C   UNL     1       0.949   3.268  20.096  0.00  0.00    +0.000 A 
ATOM      5  C   UNL     1       1.823   2.644  19.210  0.00  0.00    +0.000 A 
ATOM      6  C   UNL     1       2.883   3.351  18.629  0.00  0.00    +0.000 A 
ATOM      7  C   UNL     1       3.822   2.667  17.667  0.00  0.00    +0.000 C 
ATOM      8  C   UNL     1       3.072   4.717  18.955  0.00  0.00    +0.000 A 
ENDROOT
BRANCH   5   9
ATOM      9  O   UNL     1       1.635   1.327  18.897  0.00  0.00    +0.000 OA
ATOM     10  H   UNL     1       1.555   0.813  19.717  0.00  0.00    +0.000 HD
ENDBRANCH   5   9
BRANCH   8  11
ATOM     11  O   UNL     1       4.116   5.309  18.283  0.00  0.00    +0.000 OA
BRANCH  11  12
ATOM     12  C   UNL     1       5.367   5.436  18.959  0.00  0.00    +0.000 C 
BRANCH  12  13
ATOM     13  C   UNL     1       6.522   5.520  17.936  0.00  0.00    +0.000 C 
ATOM     14  C   UNL     1       5.960   5.745  16.533  0.00  0.00    +0.000 C 
BRANCH  13  15
ATOM     15  N   UNL     1       7.369   4.318  17.930  0.00  0.00    +0.000 NA
ATOM     16  H   UNL     1       6.874   3.550  17.478  0.00  0.00    +0.000 HD
ATOM     17  H   UNL     1       7.489   4.020  18.901  0.00  0.00    +0.000 HD
ENDBRANCH  13  15
ENDBRANCH  12  13
ENDBRANCH  11  12
ENDBRANCH   8  11
TORSDOF 5
ENDMDL
MODEL 5
REMARK VINA RESULT:      -5.7      2.841      4.862
REMARK  Name = 
REMARK  8 active torsions:
REMARK  status: ('A' for Active; 'I' for Inactive)
REMARK    1  A    between atoms: C_1  and  C_2
REMARK    2  A    between atoms: C_5  and  O_6
REMARK    3  A    between atoms: C_7  and  C_8
REMARK    4  A    between atoms: C_9  and  O_10
REMARK    5  A    between atoms: O_10  and  C_11
REMARK    6  A    between atoms: C_11  and  C_12
REMARK    7  A    between atoms: C_12  and  C_13
REMARK    8  A    between atoms: C_12  and  N_14
REMARK                            x       y       z     vdW  Elec       q    Type
REMARK                         _______ _______ _______ _____ _____    ______ ____
ROOT
ATOM      1  C   UNL     1       2.834   6.534  18.166  0.00  0.00    +0.000 C 
ATOM      2  C   UNL     1       2.798   5.415  19.171  0.00  0.00    +0.000 A 
ATOM      3  C   UNL     1       1.783   5.480  20.145  0.00  0.00    +0.000 A 
ATOM      4  C   UNL     1       1.606   4.467  21.081  0.00  0.00    +0.000 A 
ATOM      5  C   UNL     1       2.450   3.360  21.060  0.00  0.00    +0.000 A 
ATOM      6  C   UNL     1       3.479   3.259  20.115  0.00  0.00    +0.000 A 
ATOM      7  C   UNL     1       4.386   2.054  20.099  0.00  0.00    +0.000 C 
ATOM      8  C   UNL     1       3.667   4.302  19.174  0.00  0.00    +0.000 A 
ENDROOT
BRANCH   5   9
ATOM      9  O   UNL     1       2.263   2.356  21.969  0.00  0.00    +0.000 OA
ATOM     10  H   UNL     1       1.718   1.661  21.567  0.00  0.00    +0.000 HD
ENDBRANCH   5   9
BRANCH   8  11
ATOM     11  O   UNL     1       4.677   4.060  18.273  0.00  0.00    +0.000 OA
BRANCH  11  12
ATOM     12  C   UNL     1       5.932   4.709  18.478  0.00  0.00    +0.000 C 
BRANCH  12  13
ATOM     13  C   UNL     1       6.695   4.835  17.140  0.00  0.00    +0.000 C 
ATOM     14  C   UNL     1       5.869   4.222  16.011  0.00  0.00    +0.000 C 
BRANCH  13  15
ATOM     15  N   UNL     1       8.018   4.193  17.174  0.00  0.00    +0.000 NA
ATOM     16  H   UNL     1       8.601   4.570  16.427  0.00  0.00    +0.000 HD
ATOM     17  H   UNL     1       7.888   3.207  16.936  0.00  0.00    +0.000 HD
ENDBRANCH  13  15
ENDBRANCH  12  13
ENDBRANCH  11  12
ENDBRANCH   8  11
TORSDOF 5
ENDMDL
MODEL 6
REMARK VINA RESULT:      -5.6      2.294      3.362
REMARK  Name = 
REMARK  8 active torsions:
REMARK  status: ('A' for Active; 'I' for Inactive)
REMARK    1  A    between atoms: C_1  and  C_2
REMARK    2  A    between atoms: C_5  and  O_6
REMARK    3  A    between atoms: C_7  and  C_8
REMARK    4  A    between atoms: C_9  and  O_10
REMARK    5  A    between atoms: O_10  and  C_11
REMARK    6  A    between atoms: C_11  and  C_12
REMARK    7  A    between atoms: C_12  and  C_13
REMARK    8  A    between atoms: C_12  and  N_14
REMARK                            x       y       z     vdW  Elec       q    Type
REMARK                         _______ _______ _______ _____ _____    ______ ____
ROOT
ATOM      1  C   UNL     1       5.424   4.090  14.804  0.00  0.00    +0.000 C 
ATOM      2  C   UNL     1       5.791   4.392  16.232  0.00  0.00    +0.000 A 
ATOM      3  C   UNL     1       7.166   4.495  16.517  0.00  0.00    +0.000 A 
ATOM      4  C   UNL     1       7.623   4.842  17.784  0.00  0.00    +0.000 A 
ATOM      5  C   UNL     1       6.704   5.093  18.798  0.00  0.00    +0.000 A 
ATOM      6  C   UNL     1       5.327   4.993  18.561  0.00  0.00    +0.000 A 
ATOM      7  C   UNL     1       4.339   5.272  19.667  0.00  0.00    +0.000 C 
ATOM      8  C   UNL     1       4.866   4.623  17.274  0.00  0.00    +0.000 A 
ENDROOT
BRANCH   5   9
ATOM      9  O   UNL     1       7.154   5.452  20.038  0.00  0.00    +0.000 OA
ATOM     10  H   UNL     1       6.402   5.744  20.578  0.00  0.00    +0.000 HD
ENDBRANCH   5   9
BRANCH   8  11
ATOM     11  O   UNL     1       3.496   4.607  17.158  0.00  0.00    +0.000 OA
BRANCH  11  12
ATOM     12  C   UNL     1       2.855   3.357  16.902  0.00  0.00    +0.000 C 
BRANCH  12  13
ATOM     13  C   UNL     1       2.525   2.642  18.231  0.00  0.00    +0.000 C 
ATOM     14  C   UNL     1       3.518   1.506  18.472  0.00  0.00    +0.000 C 
BRANCH  13  15
ATOM     15  N   UNL     1       1.157   2.104  18.266  0.00  0.00    +0.000 NA
ATOM     16  H   UNL     1       0.586   2.569  17.562  0.00  0.00    +0.000 HD
ATOM     17  H   UNL     1       0.743   2.372  19.162  0.00  0.00    +0.000 HD
ENDBRANCH  13  15
ENDBRANCH  12  13
ENDBRANCH  11  12
ENDBRANCH   8  11
TORSDOF 5
ENDMDL
MODEL 7
REMARK VINA RESULT:      -5.6      2.725      4.845
REMARK  Name = 
REMARK  8 active torsions:
REMARK  status: ('A' for Active; 'I' for Inactive)
REMARK    1  A    between atoms: C_1  and  C_2
REMARK    2  A    between atoms: C_5  and  O_6
REMARK    3  A    between atoms: C_7  and  C_8
REMARK    4  A    between atoms: C_9  and  O_10
REMARK    5  A    between atoms: O_10  and  C_11
REMARK    6  A    between atoms: C_11  and  C_12
REMARK    7  A    between atoms: C_12  and  C_13
REMARK    8  A    between atoms: C_12  and  N_14
REMARK                            x       y       z     vdW  Elec       q    Type
REMARK                         _______ _______ _______ _____ _____    ______ ____
ROOT
ATOM      1  C   UNL     1       4.034   7.089  17.452  0.00  0.00    +0.000 C 
ATOM      2  C   UNL     1       3.393   5.909  18.129  0.00  0.00    +0.000 A 
ATOM      3  C   UNL     1       2.636   6.183  19.285  0.00  0.00    +0.000 A 
ATOM      4  C   UNL     1       1.939   5.184  19.954  0.00  0.00    +0.000 A 
ATOM      5  C   UNL     1       1.986   3.878  19.475  0.00  0.00    +0.000 A 
ATOM      6  C   UNL     1       2.734   3.558  18.334  0.00  0.00    +0.000 A 
ATOM      7  C   UNL     1       2.777   2.140  17.821  0.00  0.00    +0.000 C 
ATOM      8  C   UNL     1       3.458   4.576  17.666  0.00  0.00    +0.000 A 
ENDROOT
BRANCH   5   9
ATOM      9  O   UNL     1       1.285   2.899  20.122  0.00  0.00    +0.000 OA
ATOM     10  H   UNL     1       0.378   3.206  20.276  0.00  0.00    +0.000 HD
ENDBRANCH   5   9
BRANCH   8  11
ATOM     11  O   UNL     1       4.111   4.143  16.536  0.00  0.00    +0.000 OA
BRANCH  11  12
ATOM     12  C   UNL     1       5.538   4.157  16.535  0.00  0.00    +0.000 C 
BRANCH  12  13
ATOM     13  C   UNL     1       6.066   4.889  15.281  0.00  0.00    +0.000 C 
ATOM     14  C   UNL     1       6.105   3.926  14.095  0.00  0.00    +0.000 C 
BRANCH  13  15
ATOM     15  N   UNL     1       7.403   5.467  15.477  0.00  0.00    +0.000 NA
ATOM     16  H   UNL     1       7.809   5.709  14.573  0.00  0.00    +0.000 HD
ATOM     17  H   UNL     1       8.007   4.730  15.848  0.00  0.00    +0.000 HD
ENDBRANCH  13  15
ENDBRANCH  12  13
ENDBRANCH  11  12
ENDBRANCH   8  11
TORSDOF 5
ENDMDL
MODEL 8
REMARK VINA RESULT:      -5.6      2.573      4.595
REMARK  Name = 
REMARK  8 active torsions:
REMARK  status: ('A' for Active; 'I' for Inactive)
REMARK    1  A    between atoms: C_1  and  C_2
REMARK    2  A    between atoms: C_5  and  O_6
REMARK    3  A    between atoms: C_7  and  C_8
REMARK    4  A    between atoms: C_9  and  O_10
REMARK    5  A    between atoms: O_10  and  C_11
REMARK    6  A    between atoms: C_11  and  C_12
REMARK    7  A    between atoms: C_12  and  C_13
REMARK    8  A    between atoms: C_12  and  N_14
REMARK                            x       y       z     vdW  Elec       q    Type
REMARK                         _______ _______ _______ _____ _____    ______ ____
ROOT
ATOM      1  C   UNL     1       2.215   7.071  20.023  0.00  0.00    +0.000 C 
ATOM      2  C   UNL     1       2.173   5.602  19.702  0.00  0.00    +0.000 A 
ATOM      3  C   UNL     1       1.307   4.815  20.485  0.00  0.00    +0.000 A 
ATOM      4  C   UNL     1       1.129   3.458  20.235  0.00  0.00    +0.000 A 
ATOM      5  C   UNL     1       1.822   2.859  19.187  0.00  0.00    +0.000 A 
ATOM      6  C   UNL     1       2.701   3.602  18.389  0.00  0.00    +0.000 A 
ATOM      7  C   UNL     1       3.445   2.944  17.253  0.00  0.00    +0.000 C 
ATOM      8  C   UNL     1       2.892   4.980  18.658  0.00  0.00    +0.000 A 
ENDROOT
BRANCH   5   9
ATOM      9  O   UNL     1       1.632   1.530  18.930  0.00  0.00    +0.000 OA
ATOM     10  H   UNL     1       1.338   1.422  18.012  0.00  0.00    +0.000 HD
ENDBRANCH   5   9
BRANCH   8  11
ATOM     11  O   UNL     1       3.741   5.605  17.776  0.00  0.00    +0.000 OA
BRANCH  11  12
ATOM     12  C   UNL     1       5.077   5.875  18.201  0.00  0.00    +0.000 C 
BRANCH  12  13
ATOM     13  C   UNL     1       6.008   6.030  16.978  0.00  0.00    +0.000 C 
ATOM     14  C   UNL     1       7.227   6.869  17.355  0.00  0.00    +0.000 C 
BRANCH  13  15
ATOM     15  N   UNL     1       5.337   6.645  15.823  0.00  0.00    +0.000 NA
ATOM     16  H   UNL     1       5.900   7.417  15.469  0.00  0.00    +0.000 HD
ATOM     17  H   UNL     1       4.475   7.081  16.163  0.00  0.00    +0.000 HD
ENDBRANCH  13  15
ENDBRANCH  12  13
ENDBRANCH  11  12
ENDBRANCH   8  11
TORSDOF 5
ENDMDL
MODEL 9
REMARK VINA RESULT:      -5.6      2.687      5.382
REMARK  Name = 
REMARK  8 active torsions:
REMARK  status: ('A' for Active; 'I' for Inactive)
REMARK    1  A    between atoms: C_1  and  C_2
REMARK    2  A    between atoms: C_5  and  O_6
REMARK    3  A    between atoms: C_7  and  C_8
REMARK    4  A    between atoms: C_9  and  O_10
REMARK    5  A    between atoms: O_10  and  C_11
REMARK    6  A    between atoms: C_11  and  C_12
REMARK    7  A    between atoms: C_12  and  C_13
REMARK    8  A    between atoms: C_12  and  N_14
REMARK                            x       y       z     vdW  Elec       q    Type
REMARK                         _______ _______ _______ _____ _____    ______ ____
ROOT
ATOM      1  C   UNL     1       3.264   1.867  18.193  0.00  0.00    +0.000 C 
ATOM      2  C   UNL     1       3.001   3.271  18.664  0.00  0.00    +0.000 A 
ATOM      3  C   UNL     1       2.373   3.404  19.918  0.00  0.00    +0.000 A 
ATOM      4  C   UNL     1       2.144   4.651  20.489  0.00  0.00    +0.000 A 
ATOM      5  C   UNL     1       2.542   5.799  19.810  0.00  0.00    +0.000 A 
ATOM      6  C   UNL     1       3.161   5.714  18.556  0.00  0.00    +0.000 A 
ATOM      7  C   UNL     1       3.591   6.964  17.829  0.00  0.00    +0.000 C 
ATOM      8  C   UNL     1       3.377   4.442  17.970  0.00  0.00    +0.000 A 
ENDROOT
BRANCH   5   9
ATOM      9  O   UNL     1       2.333   7.023  20.381  0.00  0.00    +0.000 OA
ATOM     10  H   UNL     1       1.396   7.260  20.294  0.00  0.00    +0.000 HD
ENDBRANCH   5   9
BRANCH   8  11
ATOM     11  O   UNL     1       4.034   4.492  16.763  0.00  0.00    +0.000 OA
BRANCH  11  12
ATOM     12  C   UNL     1       5.450   4.307  16.759  0.00  0.00    +0.000 C 
BRANCH  12  13
ATOM     13  C   UNL     1       6.077   5.002  15.529  0.00  0.00    +0.000 C 
ATOM     14  C   UNL     1       6.137   4.026  14.355  0.00  0.00    +0.000 C 
BRANCH  13  15
ATOM     15  N   UNL     1       7.426   5.523  15.793  0.00  0.00    +0.000 NA
ATOM     16  H   UNL     1       7.455   6.522  15.591  0.00  0.00    +0.000 HD
ATOM     17  H   UNL     1       8.060   5.097  15.112  0.00  0.00    +0.000 HD
ENDBRANCH  13  15
ENDBRANCH  12  13
ENDBRANCH  11  12
ENDBRANCH   8  11
TORSDOF 5
ENDMDL
