MODEL 1
REMARK VINA RESULT:      -7.1      0.000      0.000
REMARK  Name = 
REMARK  1 active torsions:
REMARK  status: ('A' for Active; 'I' for Inactive)
REMARK    1  A    between atoms: C_1  and  C_2
REMARK                            x       y       z     vdW  Elec       q    Type
REMARK                         _______ _______ _______ _____ _____    ______ ____
ROOT
ATOM      1  C   UNL     1       2.174   7.469  19.096  0.00  0.00    +0.000 C 
ATOM      2  C   UNL     1       3.073   6.632  18.233  0.00  0.00    +0.000 A 
ATOM      3  C   UNL     1       4.101   7.184  17.564  0.00  0.00    +0.000 A 
ATOM      4  C   UNL     1       4.974   6.352  16.724  0.00  0.00    +0.000 A 
ATOM      5  N   UNL     1       5.984   6.772  16.021  0.00  0.00    +0.000 NA
ATOM      6  N   UNL     1       6.458   5.631  15.433  0.00  0.00    +0.000 N 
ATOM      7  C   UNL     1       5.697   4.521  15.808  0.00  0.00    +0.000 A 
ATOM      8  O   UNL     1       5.900   3.379  15.427  0.00  0.00    +0.000 OA
ATOM      9  N   UNL     1       4.735   5.022  16.652  0.00  0.00    +0.000 N 
ATOM     10  C   UNL     1       3.683   4.377  17.319  0.00  0.00    +0.000 A 
ATOM     11  C   UNL     1       3.462   2.999  17.208  0.00  0.00    +0.000 A 
ATOM     12  C   UNL     1       2.390   2.401  17.874  0.00  0.00    +0.000 A 
ATOM     13  C   UNL     1       1.538   3.173  18.655  0.00  0.00    +0.000 A 
ATOM     14  C   UNL     1       1.755   4.546  18.779  0.00  0.00    +0.000 A 
ATOM     15  C   UNL     1       2.825   5.169  18.118  0.00  0.00    +0.000 A 
ATOM     16  H   UNL     1       7.250   5.623  14.804  0.00  0.00    +0.000 HD
ENDROOT
TORSDOF 0
ENDMDL
MODEL 2
REMARK VINA RESULT:      -6.9      2.321      4.003
REMARK  Name = 
REMARK  1 active torsions:
REMARK  status: ('A' for Active; 'I' for Inactive)
REMARK    1  A    between atoms: C_1  and  C_2
REMARK                            x       y       z     vdW  Elec       q    Type
REMARK                         _______ _______ _______ _____ _____    ______ ____
ROOT
ATOM      1  C   UNL     1       2.674   7.935  18.166  0.00  0.00    +0.000 C 
ATOM      2  C   UNL     1       2.812   6.441  18.232  0.00  0.00    +0.000 A 
ATOM      3  C   UNL     1       2.021   5.708  19.037  0.00  0.00    +0.000 A 
ATOM      4  C   UNL     1       2.166   4.246  19.091  0.00  0.00    +0.000 A 
ATOM      5  N   UNL     1       1.474   3.438  19.837  0.00  0.00    +0.000 NA
ATOM      6  N   UNL     1       1.981   2.205  19.525  0.00  0.00    +0.000 N 
ATOM      7  C   UNL     1       2.996   2.309  18.570  0.00  0.00    +0.000 A 
ATOM      8  O   UNL     1       3.620   1.364  18.115  0.00  0.00    +0.000 OA
ATOM      9  N   UNL     1       3.096   3.654  18.306  0.00  0.00    +0.000 N 
ATOM     10  C   UNL     1       3.955   4.352  17.445  0.00  0.00    +0.000 A 
ATOM     11  C   UNL     1       4.913   3.702  16.657  0.00  0.00    +0.000 A 
ATOM     12  C   UNL     1       5.761   4.438  15.828  0.00  0.00    +0.000 A 
ATOM     13  C   UNL     1       5.657   5.822  15.779  0.00  0.00    +0.000 A 
ATOM     14  C   UNL     1       4.701   6.480  16.553  0.00  0.00    +0.000 A 
ATOM     15  C   UNL     1       3.837   5.761  17.395  0.00  0.00    +0.000 A 
ATOM     16  H   UNL     1       1.653   1.349  19.952  0.00  0.00    +0.000 HD
ENDROOT
TORSDOF 0
ENDMDL
MODEL 3
REMARK VINA RESULT:      -6.8      2.666      4.111
REMARK  Name = 
REMARK  1 active torsions:
REMARK  status: ('A' for Active; 'I' for Inactive)
REMARK    1  A    between atoms: C_1  and  C_2
REMARK                            x       y       z     vdW  Elec       q    Type
REMARK                         _______ _______ _______ _____ _____    ______ ____
ROOT
ATOM      1  C   UNL     1       2.418   8.224  18.241  0.00  0.00    +0.000 C 
ATOM      2  C   UNL     1       2.782   6.825  18.651  0.00  0.00    +0.000 A 
ATOM      3  C   UNL     1       2.236   6.260  19.741  0.00  0.00    +0.000 A 
ATOM      4  C   UNL     1       2.600   4.890  20.131  0.00  0.00    +0.000 A 
ATOM      5  N   UNL     1       2.153   4.246  21.168  0.00  0.00    +0.000 NA
ATOM      6  N   UNL     1       2.784   3.034  21.085  0.00  0.00    +0.000 N 
ATOM      7  C   UNL     1       3.620   2.980  19.967  0.00  0.00    +0.000 A 
ATOM      8  O   UNL     1       4.303   2.017  19.656  0.00  0.00    +0.000 OA
ATOM      9  N   UNL     1       3.481   4.207  19.363  0.00  0.00    +0.000 N 
ATOM     10  C   UNL     1       4.091   4.731  18.214  0.00  0.00    +0.000 A 
ATOM     11  C   UNL     1       5.007   3.995  17.453  0.00  0.00    +0.000 A 
ATOM     12  C   UNL     1       5.606   4.563  16.328  0.00  0.00    +0.000 A 
ATOM     13  C   UNL     1       5.294   5.865  15.955  0.00  0.00    +0.000 A 
ATOM     14  C   UNL     1       4.376   6.605  16.701  0.00  0.00    +0.000 A 
ATOM     15  C   UNL     1       3.762   6.055  17.838  0.00  0.00    +0.000 A 
ATOM     16  H   UNL     1       2.653   2.296  21.764  0.00  0.00    +0.000 HD
ENDROOT
TORSDOF 0
ENDMDL
MODEL 4
REMARK VINA RESULT:      -6.8      2.923      4.351
REMARK  Name = 
REMARK  1 active torsions:
REMARK  status: ('A' for Active; 'I' for Inactive)
REMARK    1  A    between atoms: C_1  and  C_2
REMARK                            x       y       z     vdW  Elec       q    Type
REMARK                         _______ _______ _______ _____ _____    ______ ____
ROOT
ATOM      1  C   UNL     1       4.740   6.435  16.454  0.00  0.00    +0.000 C 
ATOM      2  C   UNL     1       4.054   5.401  17.300  0.00  0.00    +0.000 A 
ATOM      3  C   UNL     1       4.213   4.089  17.052  0.00  0.00    +0.000 A 
ATOM      4  C   UNL     1       3.536   3.087  17.888  0.00  0.00    +0.000 A 
ATOM      5  N   UNL     1       3.600   1.797  17.737  0.00  0.00    +0.000 NA
ATOM      6  N   UNL     1       2.811   1.319  18.749  0.00  0.00    +0.000 N 
ATOM      7  C   UNL     1       2.276   2.367  19.503  0.00  0.00    +0.000 A 
ATOM      8  O   UNL     1       1.536   2.223  20.463  0.00  0.00    +0.000 OA
ATOM      9  N   UNL     1       2.766   3.510  18.918  0.00  0.00    +0.000 N 
ATOM     10  C   UNL     1       2.553   4.860  19.235  0.00  0.00    +0.000 A 
ATOM     11  C   UNL     1       1.739   5.256  20.302  0.00  0.00    +0.000 A 
ATOM     12  C   UNL     1       1.539   6.611  20.571  0.00  0.00    +0.000 A 
ATOM     13  C   UNL     1       2.151   7.575  19.779  0.00  0.00    +0.000 A 
ATOM     14  C   UNL     1       2.971   7.191  18.717  0.00  0.00    +0.000 A 
ATOM     15  C   UNL     1       3.186   5.834  18.428  0.00  0.00    +0.000 A 
ATOM     16  H   UNL     1       2.644   0.333  18.900  0.00  0.00    +0.000 HD
ENDROOT
TORSDOF 0
ENDMDL
MODEL 5
REMARK VINA RESULT:      -6.7      2.761      4.321
REMARK  Name = 
REMARK  1 active torsions:
REMARK  status: ('A' for Active; 'I' for Inactive)
REMARK    1  A    between atoms: C_1  and  C_2
REMARK                            x       y       z     vdW  Elec       q    Type
REMARK                         _______ _______ _______ _____ _____    ______ ____
ROOT
ATOM      1  C   UNL     1       2.667   7.954  17.807  0.00  0.00    +0.000 C 
ATOM      2  C   UNL     1       3.109   6.633  18.368  0.00  0.00    +0.000 A 
ATOM      3  C   UNL     1       2.289   5.902  19.144  0.00  0.00    +0.000 A 
ATOM      4  C   UNL     1       2.734   4.610  19.687  0.00  0.00    +0.000 A 
ATOM      5  N   UNL     1       2.040   3.825  20.457  0.00  0.00    +0.000 NA
ATOM      6  N   UNL     1       2.885   2.771  20.678  0.00  0.00    +0.000 N 
ATOM      7  C   UNL     1       4.101   2.955  20.016  0.00  0.00    +0.000 A 
ATOM      8  O   UNL     1       5.034   2.169  20.045  0.00  0.00    +0.000 OA
ATOM      9  N   UNL     1       3.974   4.166  19.376  0.00  0.00    +0.000 N 
ATOM     10  C   UNL     1       4.883   4.873  18.576  0.00  0.00    +0.000 A 
ATOM     11  C   UNL     1       6.163   4.383  18.289  0.00  0.00    +0.000 A 
ATOM     12  C   UNL     1       7.043   5.129  17.503  0.00  0.00    +0.000 A 
ATOM     13  C   UNL     1       6.652   6.363  16.999  0.00  0.00    +0.000 A 
ATOM     14  C   UNL     1       5.375   6.857  17.273  0.00  0.00    +0.000 A 
ATOM     15  C   UNL     1       4.473   6.125  18.061  0.00  0.00    +0.000 A 
ATOM     16  H   UNL     1       2.639   1.980  21.259  0.00  0.00    +0.000 HD
ENDROOT
TORSDOF 0
ENDMDL
MODEL 6
REMARK VINA RESULT:      -6.7      2.461      4.418
REMARK  Name = 
REMARK  1 active torsions:
REMARK  status: ('A' for Active; 'I' for Inactive)
REMARK    1  A    between atoms: C_1  and  C_2
REMARK                            x       y       z     vdW  Elec       q    Type
REMARK                         _______ _______ _______ _____ _____    ______ ____
ROOT
ATOM      1  C   UNL     1       7.864   5.983  18.956  0.00  0.00    +0.000 C 
ATOM      2  C   UNL     1       6.550   5.363  18.577  0.00  0.00    +0.000 A 
ATOM      3  C   UNL     1       5.589   5.162  19.496  0.00  0.00    +0.000 A 
ATOM      4  C   UNL     1       4.307   4.555  19.111  0.00  0.00    +0.000 A 
ATOM      5  N   UNL     1       3.312   4.299  19.908  0.00  0.00    +0.000 NA
ATOM      6  N   UNL     1       2.373   3.747  19.079  0.00  0.00    +0.000 N 
ATOM      7  C   UNL     1       2.843   3.684  17.764  0.00  0.00    +0.000 A 
ATOM      8  O   UNL     1       2.209   3.235  16.822  0.00  0.00    +0.000 OA
ATOM      9  N   UNL     1       4.108   4.218  17.815  0.00  0.00    +0.000 N 
ATOM     10  C   UNL     1       5.064   4.396  16.803  0.00  0.00    +0.000 A 
ATOM     11  C   UNL     1       4.823   4.022  15.475  0.00  0.00    +0.000 A 
ATOM     12  C   UNL     1       5.810   4.199  14.504  0.00  0.00    +0.000 A 
ATOM     13  C   UNL     1       7.037   4.750  14.851  0.00  0.00    +0.000 A 
ATOM     14  C   UNL     1       7.285   5.133  16.170  0.00  0.00    +0.000 A 
ATOM     15  C   UNL     1       6.308   4.964  17.164  0.00  0.00    +0.000 A 
ATOM     16  H   UNL     1       1.471   3.426  19.403  0.00  0.00    +0.000 HD
ENDROOT
TORSDOF 0
ENDMDL
MODEL 7
REMARK VINA RESULT:      -6.7      2.710      4.605
REMARK  Name = 
REMARK  1 active torsions:
REMARK  status: ('A' for Active; 'I' for Inactive)
REMARK    1  A    between atoms: C_1  and  C_2
REMARK                            x       y       z     vdW  Elec       q    Type
REMARK                         _______ _______ _______ _____ _____    ______ ____
ROOT
ATOM      1  C   UNL     1       5.956   5.121  15.694  0.00  0.00    +0.000 C 
ATOM      2  C   UNL     1       4.869   4.642  16.613  0.00  0.00    +0.000 A 
ATOM      3  C   UNL     1       4.661   3.328  16.812  0.00  0.00    +0.000 A 
ATOM      4  C   UNL     1       3.594   2.872  17.715  0.00  0.00    +0.000 A 
ATOM      5  N   UNL     1       3.289   1.636  17.974  0.00  0.00    +0.000 NA
ATOM      6  N   UNL     1       2.248   1.744  18.856  0.00  0.00    +0.000 N 
ATOM      7  C   UNL     1       1.945   3.084  19.111  0.00  0.00    +0.000 A 
ATOM      8  O   UNL     1       1.058   3.464  19.859  0.00  0.00    +0.000 OA
ATOM      9  N   UNL     1       2.840   3.799  18.352  0.00  0.00    +0.000 N 
ATOM     10  C   UNL     1       2.998   5.183  18.192  0.00  0.00    +0.000 A 
ATOM     11  C   UNL     1       2.187   6.109  18.861  0.00  0.00    +0.000 A 
ATOM     12  C   UNL     1       2.366   7.478  18.658  0.00  0.00    +0.000 A 
ATOM     13  C   UNL     1       3.354   7.930  17.791  0.00  0.00    +0.000 A 
ATOM     14  C   UNL     1       4.172   7.016  17.126  0.00  0.00    +0.000 A 
ATOM     15  C   UNL     1       4.010   5.635  17.313  0.00  0.00    +0.000 A 
ATOM     16  H   UNL     1       1.771   0.942  19.248  0.00  0.00    +0.000 HD
ENDROOT
TORSDOF 0
ENDMDL
MODEL 8
REMARK VINA RESULT:      -6.6      3.044      4.666
REMARK  Name = 
REMARK  1 active torsions:
REMARK  status: ('A' for Active; 'I' for Inactive)
REMARK    1  A    between atoms: C_1  and  C_2
REMARK                            x       y       z     vdW  Elec       q    Type
REMARK                         _______ _______ _______ _____ _____    ______ ____
ROOT
ATOM      1  C   UNL     1       5.243   5.746  15.858  0.00  0.00    +0.000 C 
ATOM      2  C   UNL     1       4.576   5.287  17.122  0.00  0.00    +0.000 A 
ATOM      3  C   UNL     1       4.771   4.043  17.594  0.00  0.00    +0.000 A 
ATOM      4  C   UNL     1       4.113   3.606  18.834  0.00  0.00    +0.000 A 
ATOM      5  N   UNL     1       4.212   2.429  19.378  0.00  0.00    +0.000 NA
ATOM      6  N   UNL     1       3.427   2.528  20.494  0.00  0.00    +0.000 N 
ATOM      7  C   UNL     1       2.858   3.801  20.595  0.00  0.00    +0.000 A 
ATOM      8  O   UNL     1       2.113   4.159  21.493  0.00  0.00    +0.000 OA
ATOM      9  N   UNL     1       3.323   4.483  19.496  0.00  0.00    +0.000 N 
ATOM     10  C   UNL     1       3.072   5.794  19.064  0.00  0.00    +0.000 A 
ATOM     11  C   UNL     1       2.238   6.666  19.773  0.00  0.00    +0.000 A 
ATOM     12  C   UNL     1       2.000   7.957  19.296  0.00  0.00    +0.000 A 
ATOM     13  C   UNL     1       2.594   8.383  18.114  0.00  0.00    +0.000 A 
ATOM     14  C   UNL     1       3.434   7.523  17.404  0.00  0.00    +0.000 A 
ATOM     15  C   UNL     1       3.687   6.221  17.864  0.00  0.00    +0.000 A 
ATOM     16  H   UNL     1       3.285   1.762  21.139  0.00  0.00    +0.000 HD
ENDROOT
TORSDOF 0
ENDMDL
MODEL 9
REMARK VINA RESULT:      -6.6      1.392      1.751
REMARK  Name = 
REMARK  1 active torsions:
REMARK  status: ('A' for Active; 'I' for Inactive)
REMARK    1  A    between atoms: C_1  and  C_2
REMARK                            x       y       z     vdW  Elec       q    Type
REMARK                         _______ _______ _______ _____ _____    ______ ____
ROOT
ATOM      1  C   UNL     1       1.405   7.343  20.768  0.00  0.00    +0.000 C 
ATOM      2  C   UNL     1       2.191   6.563  19.754  0.00  0.00    +0.000 A 
ATOM      3  C   UNL     1       2.988   7.187  18.868  0.00  0.00    +0.000 A 
ATOM      4  C   UNL     1       3.753   6.411  17.881  0.00  0.00    +0.000 A 
ATOM      5  N   UNL     1       4.539   6.900  16.969  0.00  0.00    +0.000 NA
ATOM      6  N   UNL     1       5.004   5.787  16.320  0.00  0.00    +0.000 N 
ATOM      7  C   UNL     1       4.467   4.623  16.876  0.00  0.00    +0.000 A 
ATOM      8  O   UNL     1       4.711   3.492  16.489  0.00  0.00    +0.000 OA
ATOM      9  N   UNL     1       3.653   5.061  17.894  0.00  0.00    +0.000 N 
ATOM     10  C   UNL     1       2.843   4.343  18.786  0.00  0.00    +0.000 A 
ATOM     11  C   UNL     1       2.758   2.946  18.758  0.00  0.00    +0.000 A 
ATOM     12  C   UNL     1       1.924   2.273  19.652  0.00  0.00    +0.000 A 
ATOM     13  C   UNL     1       1.174   2.987  20.578  0.00  0.00    +0.000 A 
ATOM     14  C   UNL     1       1.257   4.380  20.620  0.00  0.00    +0.000 A 
ATOM     15  C   UNL     1       2.089   5.079  19.730  0.00  0.00    +0.000 A 
ATOM     16  H   UNL     1       5.642   5.832  15.537  0.00  0.00    +0.000 HD
ENDROOT
TORSDOF 0
ENDMDL
