MODEL 1
REMARK VINA RESULT:      -8.6      0.000      0.000
REMARK  Name = 
REMARK  6 active torsions:
REMARK  status: ('A' for Active; 'I' for Inactive)
REMARK    1  A    between atoms: P_2  and  O_3
REMARK    2  A    between atoms: P_2  and  O_4
REMARK    3  A    between atoms: P_2  and  C_5
REMARK    4  A    between atoms: C_12  and  N_13
REMARK    5  A    between atoms: N_13  and  C_14
REMARK    6  A    between atoms: C_16  and  C_17
REMARK                            x       y       z     vdW  Elec       q    Type
REMARK                         _______ _______ _______ _____ _____    ______ ____
ROOT
ATOM      1  C   UNL     1       2.538   7.428  19.208  0.00  0.00    +0.000 A 
ATOM      2  N   UNL     1       1.899   7.894  20.292  0.00  0.00    +0.000 NA
ATOM      3  C   UNL     1       1.209   9.038  20.146  0.00  0.00    +0.000 A 
ATOM      4  N   UNL     1       1.108   9.757  19.010  0.00  0.00    +0.000 NA
ATOM      5  C   UNL     1       1.781   9.273  17.951  0.00  0.00    +0.000 A 
ATOM      6  C   UNL     1       2.515   8.115  18.000  0.00  0.00    +0.000 A 
ATOM      7  F   UNL     1       3.114   7.632  16.903  0.00  0.00    +0.000 F 
ENDROOT
BRANCH   3   8
ATOM      8  C   UNL     1       0.394   9.459  21.267  0.00  0.00    +0.000 A 
ATOM      9  C   UNL     1      -0.234   8.590  22.147  0.00  0.00    +0.000 A 
ATOM     10  N   UNL     1      -0.946   9.339  23.049  0.00  0.00    +0.000 N 
ATOM     11  C   UNL     1      -0.811  10.669  22.755  0.00  0.00    +0.000 A 
ATOM     12  N   UNL     1      -1.410  11.665  23.436  0.00  0.00    +0.000 NA
ATOM     13  C   UNL     1      -1.124  12.889  22.922  0.00  0.00    +0.000 A 
ATOM     14  C   UNL     1      -0.316  13.137  21.823  0.00  0.00    +0.000 A 
ATOM     15  F   UNL     1      -0.112  14.390  21.398  0.00  0.00    +0.000 F 
ATOM     16  C   UNL     1       0.281  12.076  21.158  0.00  0.00    +0.000 A 
ATOM     17  C   UNL     1       0.024  10.784  21.648  0.00  0.00    +0.000 A 
ATOM     18  H   UNL     1      -1.510   8.989  23.807  0.00  0.00    +0.000 HD
ENDBRANCH   3   8
BRANCH   1  19
ATOM     19  N   UNL     1       3.291   6.247  19.304  0.00  0.00    +0.000 N 
ATOM     20  H   UNL     1       4.100   6.336  18.692  0.00  0.00    +0.000 HD
BRANCH  19  28
ATOM     21  C   UNL     1       3.210   3.833  19.943  0.00  0.00    +0.000 C 
ATOM     22  C   UNL     1       3.725   2.761  18.917  0.00  0.00    +0.000 C 
ATOM     23  C   UNL     1       2.541   2.189  18.116  0.00  0.00    +0.000 C 
ATOM     24  C   UNL     1       1.784   3.322  17.416  0.00  0.00    +0.000 C 
ATOM     25  C   UNL     1       2.542   4.645  17.609  0.00  0.00    +0.000 C 
ATOM     26  C   UNL     1       3.977   4.447  17.075  0.00  0.00    +0.000 C 
ATOM     27  C   UNL     1       4.710   3.418  17.935  0.00  0.00    +0.000 C 
ATOM     28  C   UNL     1       2.550   4.984  19.134  0.00  0.00    +0.000 C 
BRANCH  21  30
ATOM     29  O   UNL     1       1.086   2.509  22.211  0.00  0.00    +0.000 OA
ATOM     30  P   UNL     1       2.059   3.116  21.172  0.00  0.00    +0.000 P 
BRANCH  30  31
ATOM     31  O   UNL     1       0.900   4.138  20.621  0.00  0.00    +0.000 OA
ATOM     32  H   UNL     1       0.422   4.502  21.391  0.00  0.00    +0.000 HD
ENDBRANCH  30  31
BRANCH  30  33
ATOM     33  O   UNL     1       2.645   4.154  22.301  0.00  0.00    +0.000 OA
ATOM     34  H   UNL     1       1.989   4.872  22.402  0.00  0.00    +0.000 HD
ENDBRANCH  30  33
ENDBRANCH  21  30
ENDBRANCH  19  28
ENDBRANCH   1  19
TORSDOF 6
ENDMDL
MODEL 2
REMARK VINA RESULT:      -8.0      2.298      2.643
REMARK  Name = 
REMARK  6 active torsions:
REMARK  status: ('A' for Active; 'I' for Inactive)
REMARK    1  A    between atoms: P_2  and  O_3
REMARK    2  A    between atoms: P_2  and  O_4
REMARK    3  A    between atoms: P_2  and  C_5
REMARK    4  A    between atoms: C_12  and  N_13
REMARK    5  A    between atoms: N_13  and  C_14
REMARK    6  A    between atoms: C_16  and  C_17
REMARK                            x       y       z     vdW  Elec       q    Type
REMARK                         _______ _______ _______ _____ _____    ______ ____
ROOT
ATOM      1  C   UNL     1       1.831   7.642  18.791  0.00  0.00    +0.000 A 
ATOM      2  N   UNL     1       1.261   8.013  19.947  0.00  0.00    +0.000 NA
ATOM      3  C   UNL     1       1.162   9.333  20.180  0.00  0.00    +0.000 A 
ATOM      4  N   UNL     1       1.588  10.312  19.358  0.00  0.00    +0.000 NA
ATOM      5  C   UNL     1       2.177   9.904  18.220  0.00  0.00    +0.000 A 
ATOM      6  C   UNL     1       2.327   8.580  17.892  0.00  0.00    +0.000 A 
ATOM      7  F   UNL     1       2.858   8.217  16.716  0.00  0.00    +0.000 F 
ENDROOT
BRANCH   3   8
ATOM      8  C   UNL     1       0.410   9.737  21.351  0.00  0.00    +0.000 A 
ATOM      9  C   UNL     1       0.505   9.124  22.592  0.00  0.00    +0.000 A 
ATOM     10  N   UNL     1      -0.378   9.742  23.440  0.00  0.00    +0.000 N 
ATOM     11  C   UNL     1      -1.057  10.722  22.768  0.00  0.00    +0.000 A 
ATOM     12  N   UNL     1      -2.017  11.494  23.312  0.00  0.00    +0.000 NA
ATOM     13  C   UNL     1      -2.543  12.373  22.419  0.00  0.00    +0.000 A 
ATOM     14  C   UNL     1      -2.170  12.496  21.090  0.00  0.00    +0.000 A 
ATOM     15  F   UNL     1      -2.769  13.395  20.297  0.00  0.00    +0.000 F 
ATOM     16  C   UNL     1      -1.174  11.678  20.579  0.00  0.00    +0.000 A 
ATOM     17  C   UNL     1      -0.589  10.751  21.458  0.00  0.00    +0.000 A 
ATOM     18  H   UNL     1      -0.539   9.514  24.409  0.00  0.00    +0.000 HD
ENDBRANCH   3   8
BRANCH   1  19
ATOM     19  N   UNL     1       1.980   6.276  18.500  0.00  0.00    +0.000 N 
ATOM     20  H   UNL     1       1.058   5.894  18.298  0.00  0.00    +0.000 HD
BRANCH  19  28
ATOM     21  C   UNL     1       3.818   4.604  18.751  0.00  0.00    +0.000 C 
ATOM     22  C   UNL     1       3.443   3.099  19.003  0.00  0.00    +0.000 C 
ATOM     23  C   UNL     1       3.483   2.793  20.511  0.00  0.00    +0.000 C 
ATOM     24  C   UNL     1       2.546   3.742  21.265  0.00  0.00    +0.000 C 
ATOM     25  C   UNL     1       1.749   4.587  20.259  0.00  0.00    +0.000 C 
ATOM     26  C   UNL     1       1.007   3.617  19.314  0.00  0.00    +0.000 C 
ATOM     27  C   UNL     1       2.020   2.829  18.485  0.00  0.00    +0.000 C 
ATOM     28  C   UNL     1       2.757   5.483  19.469  0.00  0.00    +0.000 C 
BRANCH  21  30
ATOM     29  O   UNL     1       6.954   5.324  19.779  0.00  0.00    +0.000 OA
ATOM     30  P   UNL     1       5.517   4.994  19.308  0.00  0.00    +0.000 P 
BRANCH  30  31
ATOM     31  O   UNL     1       5.609   6.110  18.109  0.00  0.00    +0.000 OA
ATOM     32  H   UNL     1       5.861   5.652  17.283  0.00  0.00    +0.000 HD
ENDBRANCH  30  31
BRANCH  30  33
ATOM     33  O   UNL     1       6.083   3.752  18.395  0.00  0.00    +0.000 OA
ATOM     34  H   UNL     1       5.905   3.975  17.460  0.00  0.00    +0.000 HD
ENDBRANCH  30  33
ENDBRANCH  21  30
ENDBRANCH  19  28
ENDBRANCH   1  19
TORSDOF 6
ENDMDL
MODEL 3
REMARK VINA RESULT:      -7.9      3.626      8.315
REMARK  Name = 
REMARK  6 active torsions:
REMARK  status: ('A' for Active; 'I' for Inactive)
REMARK    1  A    between atoms: P_2  and  O_3
REMARK    2  A    between atoms: P_2  and  O_4
REMARK    3  A    between atoms: P_2  and  C_5
REMARK    4  A    between atoms: C_12  and  N_13
REMARK    5  A    between atoms: N_13  and  C_14
REMARK    6  A    between atoms: C_16  and  C_17
REMARK                            x       y       z     vdW  Elec       q    Type
REMARK                         _______ _______ _______ _____ _____    ______ ____
ROOT
ATOM      1  C   UNL     1       2.372   6.659  19.027  0.00  0.00    +0.000 A 
ATOM      2  N   UNL     1       3.507   6.806  18.328  0.00  0.00    +0.000 NA
ATOM      3  C   UNL     1       4.486   5.914  18.562  0.00  0.00    +0.000 A 
ATOM      4  N   UNL     1       4.426   4.892  19.438  0.00  0.00    +0.000 NA
ATOM      5  C   UNL     1       3.283   4.790  20.139  0.00  0.00    +0.000 A 
ATOM      6  C   UNL     1       2.228   5.651  19.974  0.00  0.00    +0.000 A 
ATOM      7  F   UNL     1       1.081   5.472  20.643  0.00  0.00    +0.000 F 
ENDROOT
BRANCH   3   8
ATOM      8  C   UNL     1       5.648   5.977  17.700  0.00  0.00    +0.000 A 
ATOM      9  C   UNL     1       6.807   6.679  17.999  0.00  0.00    +0.000 A 
ATOM     10  N   UNL     1       7.669   6.546  16.941  0.00  0.00    +0.000 N 
ATOM     11  C   UNL     1       7.084   5.795  15.957  0.00  0.00    +0.000 A 
ATOM     12  N   UNL     1       7.659   5.506  14.775  0.00  0.00    +0.000 NA
ATOM     13  C   UNL     1       6.852   4.763  13.974  0.00  0.00    +0.000 A 
ATOM     14  C   UNL     1       5.575   4.330  14.291  0.00  0.00    +0.000 A 
ATOM     15  F   UNL     1       4.864   3.608  13.415  0.00  0.00    +0.000 F 
ATOM     16  C   UNL     1       5.028   4.653  15.524  0.00  0.00    +0.000 A 
ATOM     17  C   UNL     1       5.819   5.418  16.398  0.00  0.00    +0.000 A 
ATOM     18  H   UNL     1       8.591   6.949  16.863  0.00  0.00    +0.000 HD
ENDBRANCH   3   8
BRANCH   1  19
ATOM     19  N   UNL     1       1.321   7.571  18.839  0.00  0.00    +0.000 N 
ATOM     20  H   UNL     1       1.138   7.641  17.840  0.00  0.00    +0.000 HD
BRANCH  19  28
ATOM     21  C   UNL     1       0.195   9.206  20.355  0.00  0.00    +0.000 C 
ATOM     22  C   UNL     1      -0.475  10.482  19.729  0.00  0.00    +0.000 C 
ATOM     23  C   UNL     1       0.497  11.674  19.800  0.00  0.00    +0.000 C 
ATOM     24  C   UNL     1       1.811  11.324  19.096  0.00  0.00    +0.000 C 
ATOM     25  C   UNL     1       1.680   9.956  18.408  0.00  0.00    +0.000 C 
ATOM     26  C   UNL     1       0.472  10.026  17.450  0.00  0.00    +0.000 C 
ATOM     27  C   UNL     1      -0.814  10.214  18.253  0.00  0.00    +0.000 C 
ATOM     28  C   UNL     1       1.459   8.874  19.514  0.00  0.00    +0.000 C 
BRANCH  21  30
ATOM     29  O   UNL     1       0.933   9.631  23.624  0.00  0.00    +0.000 OA
ATOM     30  P   UNL     1       0.595   9.436  22.126  0.00  0.00    +0.000 P 
BRANCH  30  31
ATOM     31  O   UNL     1       1.827   8.369  21.944  0.00  0.00    +0.000 OA
ATOM     32  H   UNL     1       2.608   8.720  22.413  0.00  0.00    +0.000 HD
ENDBRANCH  30  31
BRANCH  30  33
ATOM     33  O   UNL     1      -0.527   8.300  22.509  0.00  0.00    +0.000 OA
ATOM     34  H   UNL     1      -0.439   8.116  23.465  0.00  0.00    +0.000 HD
ENDBRANCH  30  33
ENDBRANCH  21  30
ENDBRANCH  19  28
ENDBRANCH   1  19
TORSDOF 6
ENDMDL
MODEL 4
REMARK VINA RESULT:      -7.8      0.961      1.180
REMARK  Name = 
REMARK  6 active torsions:
REMARK  status: ('A' for Active; 'I' for Inactive)
REMARK    1  A    between atoms: P_2  and  O_3
REMARK    2  A    between atoms: P_2  and  O_4
REMARK    3  A    between atoms: P_2  and  C_5
REMARK    4  A    between atoms: C_12  and  N_13
REMARK    5  A    between atoms: N_13  and  C_14
REMARK    6  A    between atoms: C_16  and  C_17
REMARK                            x       y       z     vdW  Elec       q    Type
REMARK                         _______ _______ _______ _____ _____    ______ ____
ROOT
ATOM      1  C   UNL     1       2.433   7.624  19.378  0.00  0.00    +0.000 A 
ATOM      2  N   UNL     1       1.826   8.140  20.457  0.00  0.00    +0.000 NA
ATOM      3  C   UNL     1       1.016   9.193  20.253  0.00  0.00    +0.000 A 
ATOM      4  N   UNL     1       0.765   9.775  19.064  0.00  0.00    +0.000 NA
ATOM      5  C   UNL     1       1.409   9.247  18.008  0.00  0.00    +0.000 A 
ATOM      6  C   UNL     1       2.258   8.174  18.113  0.00  0.00    +0.000 A 
ATOM      7  F   UNL     1       2.826   7.636  17.025  0.00  0.00    +0.000 F 
ENDROOT
BRANCH   3   8
ATOM      8  C   UNL     1       0.241   9.652  21.388  0.00  0.00    +0.000 A 
ATOM      9  C   UNL     1      -0.355   8.815  22.319  0.00  0.00    +0.000 A 
ATOM     10  N   UNL     1      -1.034   9.594  23.219  0.00  0.00    +0.000 N 
ATOM     11  C   UNL     1      -0.909  10.914  22.876  0.00  0.00    +0.000 A 
ATOM     12  N   UNL     1      -1.484  11.932  23.544  0.00  0.00    +0.000 NA
ATOM     13  C   UNL     1      -1.216  13.138  22.980  0.00  0.00    +0.000 A 
ATOM     14  C   UNL     1      -0.448  13.348  21.845  0.00  0.00    +0.000 A 
ATOM     15  F   UNL     1      -0.259  14.586  21.371  0.00  0.00    +0.000 F 
ATOM     16  C   UNL     1       0.125  12.264  21.195  0.00  0.00    +0.000 A 
ATOM     17  C   UNL     1      -0.115  10.990  21.737  0.00  0.00    +0.000 A 
ATOM     18  H   UNL     1      -1.571   9.270  24.009  0.00  0.00    +0.000 HD
ENDBRANCH   3   8
BRANCH   1  19
ATOM     19  N   UNL     1       3.306   6.534  19.530  0.00  0.00    +0.000 N 
ATOM     20  H   UNL     1       4.260   6.881  19.459  0.00  0.00    +0.000 HD
BRANCH  19  28
ATOM     21  C   UNL     1       2.974   4.058  19.539  0.00  0.00    +0.000 C 
ATOM     22  C   UNL     1       4.161   3.134  19.088  0.00  0.00    +0.000 C 
ATOM     23  C   UNL     1       4.000   2.761  17.603  0.00  0.00    +0.000 C 
ATOM     24  C   UNL     1       3.917   4.029  16.748  0.00  0.00    +0.000 C 
ATOM     25  C   UNL     1       4.179   5.262  17.627  0.00  0.00    +0.000 C 
ATOM     26  C   UNL     1       5.551   5.071  18.307  0.00  0.00    +0.000 C 
ATOM     27  C   UNL     1       5.493   3.882  19.264  0.00  0.00    +0.000 C 
ATOM     28  C   UNL     1       3.034   5.356  18.687  0.00  0.00    +0.000 C 
BRANCH  21  30
ATOM     29  O   UNL     1      -0.018   2.513  19.270  0.00  0.00    +0.000 OA
ATOM     30  P   UNL     1       1.353   3.221  19.394  0.00  0.00    +0.000 P 
BRANCH  30  31
ATOM     31  O   UNL     1       0.696   4.427  20.291  0.00  0.00    +0.000 OA
ATOM     32  H   UNL     1       0.888   5.277  19.849  0.00  0.00    +0.000 HD
ENDBRANCH  30  31
BRANCH  30  33
ATOM     33  O   UNL     1       1.744   2.278  20.681  0.00  0.00    +0.000 OA
ATOM     34  H   UNL     1       2.703   2.381  20.834  0.00  0.00    +0.000 HD
ENDBRANCH  30  33
ENDBRANCH  21  30
ENDBRANCH  19  28
ENDBRANCH   1  19
TORSDOF 6
ENDMDL
MODEL 5
REMARK VINA RESULT:      -7.7      2.882      4.376
REMARK  Name = 
REMARK  6 active torsions:
REMARK  status: ('A' for Active; 'I' for Inactive)
REMARK    1  A    between atoms: P_2  and  O_3
REMARK    2  A    between atoms: P_2  and  O_4
REMARK    3  A    between atoms: P_2  and  C_5
REMARK    4  A    between atoms: C_12  and  N_13
REMARK    5  A    between atoms: N_13  and  C_14
REMARK    6  A    between atoms: C_16  and  C_17
REMARK                            x       y       z     vdW  Elec       q    Type
REMARK                         _______ _______ _______ _____ _____    ______ ____
ROOT
ATOM      1  C   UNL     1       2.943   4.646  18.292  0.00  0.00    +0.000 A 
ATOM      2  N   UNL     1       2.555   5.927  18.200  0.00  0.00    +0.000 NA
ATOM      3  C   UNL     1       1.967   6.464  19.284  0.00  0.00    +0.000 A 
ATOM      4  N   UNL     1       1.732   5.827  20.448  0.00  0.00    +0.000 NA
ATOM      5  C   UNL     1       2.111   4.538  20.496  0.00  0.00    +0.000 A 
ATOM      6  C   UNL     1       2.716   3.899  19.444  0.00  0.00    +0.000 A 
ATOM      7  F   UNL     1       3.141   2.633  19.557  0.00  0.00    +0.000 F 
ENDROOT
BRANCH   3   8
ATOM      8  C   UNL     1       1.691   7.885  19.242  0.00  0.00    +0.000 A 
ATOM      9  C   UNL     1       1.974   8.706  18.160  0.00  0.00    +0.000 A 
ATOM     10  N   UNL     1       1.616   9.987  18.493  0.00  0.00    +0.000 N 
ATOM     11  C   UNL     1       1.131  10.015  19.773  0.00  0.00    +0.000 A 
ATOM     12  N   UNL     1       0.721  11.129  20.408  0.00  0.00    +0.000 NA
ATOM     13  C   UNL     1       0.307  10.879  21.677  0.00  0.00    +0.000 A 
ATOM     14  C   UNL     1       0.291   9.637  22.293  0.00  0.00    +0.000 A 
ATOM     15  F   UNL     1      -0.130   9.511  23.558  0.00  0.00    +0.000 F 
ATOM     16  C   UNL     1       0.722   8.520  21.594  0.00  0.00    +0.000 A 
ATOM     17  C   UNL     1       1.159   8.717  20.273  0.00  0.00    +0.000 A 
ATOM     18  H   UNL     1       1.707  10.806  17.911  0.00  0.00    +0.000 HD
ENDBRANCH   3   8
BRANCH   1  19
ATOM     19  N   UNL     1       3.545   4.025  17.186  0.00  0.00    +0.000 N 
ATOM     20  H   UNL     1       3.176   3.079  17.115  0.00  0.00    +0.000 HD
BRANCH  19  28
ATOM     21  C   UNL     1       5.527   5.498  17.563  0.00  0.00    +0.000 C 
ATOM     22  C   UNL     1       6.214   6.174  16.322  0.00  0.00    +0.000 C 
ATOM     23  C   UNL     1       7.415   5.330  15.861  0.00  0.00    +0.000 C 
ATOM     24  C   UNL     1       6.963   3.901  15.545  0.00  0.00    +0.000 C 
ATOM     25  C   UNL     1       5.432   3.812  15.638  0.00  0.00    +0.000 C 
ATOM     26  C   UNL     1       4.841   4.867  14.678  0.00  0.00    +0.000 C 
ATOM     27  C   UNL     1       5.207   6.269  15.164  0.00  0.00    +0.000 C 
ATOM     28  C   UNL     1       5.016   4.100  17.116  0.00  0.00    +0.000 C 
BRANCH  21  30
ATOM     29  O   UNL     1       7.611   5.288  20.214  0.00  0.00    +0.000 OA
ATOM     30  P   UNL     1       6.656   5.384  18.999  0.00  0.00    +0.000 P 
BRANCH  30  31
ATOM     31  O   UNL     1       6.321   3.780  19.083  0.00  0.00    +0.000 OA
ATOM     32  H   UNL     1       5.368   3.657  18.906  0.00  0.00    +0.000 HD
ENDBRANCH  30  31
BRANCH  30  33
ATOM     33  O   UNL     1       5.423   5.842  19.982  0.00  0.00    +0.000 OA
ATOM     34  H   UNL     1       5.822   6.260  20.771  0.00  0.00    +0.000 HD
ENDBRANCH  30  33
ENDBRANCH  21  30
ENDBRANCH  19  28
ENDBRANCH   1  19
TORSDOF 6
ENDMDL
MODEL 6
REMARK VINA RESULT:      -7.6      2.544      3.636
REMARK  Name = 
REMARK  6 active torsions:
REMARK  status: ('A' for Active; 'I' for Inactive)
REMARK    1  A    between atoms: P_2  and  O_3
REMARK    2  A    between atoms: P_2  and  O_4
REMARK    3  A    between atoms: P_2  and  C_5
REMARK    4  A    between atoms: C_12  and  N_13
REMARK    5  A    between atoms: N_13  and  C_14
REMARK    6  A    between atoms: C_16  and  C_17
REMARK                            x       y       z     vdW  Elec       q    Type
REMARK                         _______ _______ _______ _____ _____    ______ ____
ROOT
ATOM      1  C   UNL     1       3.162   5.759  17.902  0.00  0.00    +0.000 A 
ATOM      2  N   UNL     1       2.277   6.657  18.360  0.00  0.00    +0.000 NA
ATOM      3  C   UNL     1       2.568   7.954  18.159  0.00  0.00    +0.000 A 
ATOM      4  N   UNL     1       3.670   8.428  17.544  0.00  0.00    +0.000 NA
ATOM      5  C   UNL     1       4.546   7.500  17.120  0.00  0.00    +0.000 A 
ATOM      6  C   UNL     1       4.341   6.153  17.279  0.00  0.00    +0.000 A 
ATOM      7  F   UNL     1       5.207   5.260  16.781  0.00  0.00    +0.000 F 
ENDROOT
BRANCH   3   8
ATOM      8  C   UNL     1       1.545   8.917  18.511  0.00  0.00    +0.000 A 
ATOM      9  C   UNL     1       0.902   9.744  17.602  0.00  0.00    +0.000 A 
ATOM     10  N   UNL     1       0.032  10.545  18.297  0.00  0.00    +0.000 N 
ATOM     11  C   UNL     1       0.117  10.269  19.635  0.00  0.00    +0.000 A 
ATOM     12  N   UNL     1      -0.589  10.905  20.590  0.00  0.00    +0.000 NA
ATOM     13  C   UNL     1      -0.299  10.451  21.837  0.00  0.00    +0.000 A 
ATOM     14  C   UNL     1       0.613   9.453  22.143  0.00  0.00    +0.000 A 
ATOM     15  F   UNL     1       0.825   9.093  23.415  0.00  0.00    +0.000 F 
ATOM     16  C   UNL     1       1.312   8.827  21.122  0.00  0.00    +0.000 A 
ATOM     17  C   UNL     1       1.051   9.253  19.808  0.00  0.00    +0.000 A 
ATOM     18  H   UNL     1      -0.572  11.253  17.909  0.00  0.00    +0.000 HD
ENDBRANCH   3   8
BRANCH   1  19
ATOM     19  N   UNL     1       2.922   4.389  18.099  0.00  0.00    +0.000 N 
ATOM     20  H   UNL     1       2.008   4.169  17.709  0.00  0.00    +0.000 HD
BRANCH  19  28
ATOM     21  C   UNL     1       2.916   2.342  19.531  0.00  0.00    +0.000 C 
ATOM     22  C   UNL     1       1.674   2.067  20.453  0.00  0.00    +0.000 C 
ATOM     23  C   UNL     1       1.949   2.589  21.874  0.00  0.00    +0.000 C 
ATOM     24  C   UNL     1       2.297   4.080  21.828  0.00  0.00    +0.000 C 
ATOM     25  C   UNL     1       2.106   4.611  20.399  0.00  0.00    +0.000 C 
ATOM     26  C   UNL     1       0.652   4.309  19.975  0.00  0.00    +0.000 C 
ATOM     27  C   UNL     1       0.443   2.798  19.890  0.00  0.00    +0.000 C 
ATOM     28  C   UNL     1       3.127   3.881  19.467  0.00  0.00    +0.000 C 
BRANCH  21  30
ATOM     29  O   UNL     1       5.684   0.736  20.611  0.00  0.00    +0.000 OA
ATOM     30  P   UNL     1       4.416   1.472  20.116  0.00  0.00    +0.000 P 
BRANCH  30  31
ATOM     31  O   UNL     1       5.311   2.731  19.564  0.00  0.00    +0.000 OA
ATOM     32  H   UNL     1       5.788   2.440  18.763  0.00  0.00    +0.000 HD
ENDBRANCH  30  31
BRANCH  30  33
ATOM     33  O   UNL     1       4.459   0.633  18.704  0.00  0.00    +0.000 OA
ATOM     34  H   UNL     1       3.657   0.874  18.200  0.00  0.00    +0.000 HD
ENDBRANCH  30  33
ENDBRANCH  21  30
ENDBRANCH  19  28
ENDBRANCH   1  19
TORSDOF 6
ENDMDL
MODEL 7
REMARK VINA RESULT:      -7.5      1.751      2.210
REMARK  Name = 
REMARK  6 active torsions:
REMARK  status: ('A' for Active; 'I' for Inactive)
REMARK    1  A    between atoms: P_2  and  O_3
REMARK    2  A    between atoms: P_2  and  O_4
REMARK    3  A    between atoms: P_2  and  C_5
REMARK    4  A    between atoms: C_12  and  N_13
REMARK    5  A    between atoms: N_13  and  C_14
REMARK    6  A    between atoms: C_16  and  C_17
REMARK                            x       y       z     vdW  Elec       q    Type
REMARK                         _______ _______ _______ _____ _____    ______ ____
ROOT
ATOM      1  C   UNL     1       3.176   6.598  18.839  0.00  0.00    +0.000 A 
ATOM      2  N   UNL     1       2.239   7.377  19.400  0.00  0.00    +0.000 NA
ATOM      3  C   UNL     1       2.014   8.569  18.820  0.00  0.00    +0.000 A 
ATOM      4  N   UNL     1       2.648   9.048  17.732  0.00  0.00    +0.000 NA
ATOM      5  C   UNL     1       3.597   8.251  17.211  0.00  0.00    +0.000 A 
ATOM      6  C   UNL     1       3.902   7.018  17.730  0.00  0.00    +0.000 A 
ATOM      7  F   UNL     1       4.807   6.226  17.140  0.00  0.00    +0.000 F 
ENDROOT
BRANCH   3   8
ATOM      8  C   UNL     1       0.900   9.344  19.328  0.00  0.00    +0.000 A 
ATOM      9  C   UNL     1       0.040  10.091  18.536  0.00  0.00    +0.000 A 
ATOM     10  N   UNL     1      -0.860  10.718  19.359  0.00  0.00    +0.000 N 
ATOM     11  C   UNL     1      -0.585  10.411  20.664  0.00  0.00    +0.000 A 
ATOM     12  N   UNL     1      -1.270  10.892  21.719  0.00  0.00    +0.000 NA
ATOM     13  C   UNL     1      -0.776  10.446  22.904  0.00  0.00    +0.000 A 
ATOM     14  C   UNL     1       0.306   9.595  23.060  0.00  0.00    +0.000 A 
ATOM     15  F   UNL     1       0.712   9.229  24.282  0.00  0.00    +0.000 F 
ATOM     16  C   UNL     1       0.976   9.125  21.940  0.00  0.00    +0.000 A 
ATOM     17  C   UNL     1       0.507   9.551  20.685  0.00  0.00    +0.000 A 
ATOM     18  H   UNL     1      -1.605  11.334  19.073  0.00  0.00    +0.000 HD
ENDBRANCH   3   8
BRANCH   1  19
ATOM     19  N   UNL     1       3.469   5.349  19.411  0.00  0.00    +0.000 N 
ATOM     20  H   UNL     1       4.338   5.011  19.004  0.00  0.00    +0.000 HD
BRANCH  19  28
ATOM     21  C   UNL     1       2.818   3.039  20.103  0.00  0.00    +0.000 C 
ATOM     22  C   UNL     1       2.811   1.899  19.022  0.00  0.00    +0.000 C 
ATOM     23  C   UNL     1       1.389   1.714  18.462  0.00  0.00    +0.000 C 
ATOM     24  C   UNL     1       0.874   3.038  17.888  0.00  0.00    +0.000 C 
ATOM     25  C   UNL     1       2.000   4.084  17.913  0.00  0.00    +0.000 C 
ATOM     26  C   UNL     1       3.198   3.503  17.131  0.00  0.00    +0.000 C 
ATOM     27  C   UNL     1       3.748   2.280  17.865  0.00  0.00    +0.000 C 
ATOM     28  C   UNL     1       2.380   4.356  19.404  0.00  0.00    +0.000 C 
BRANCH  21  30
ATOM     29  O   UNL     1       0.848   2.300  22.746  0.00  0.00    +0.000 OA
ATOM     30  P   UNL     1       1.751   2.639  21.535  0.00  0.00    +0.000 P 
BRANCH  30  31
ATOM     31  O   UNL     1       0.687   3.770  21.006  0.00  0.00    +0.000 OA
ATOM     32  H   UNL     1      -0.204   3.372  20.996  0.00  0.00    +0.000 HD
ENDBRANCH  30  31
BRANCH  30  33
ATOM     33  O   UNL     1       2.625   3.680  22.456  0.00  0.00    +0.000 OA
ATOM     34  H   UNL     1       2.642   3.319  23.364  0.00  0.00    +0.000 HD
ENDBRANCH  30  33
ENDBRANCH  21  30
ENDBRANCH  19  28
ENDBRANCH   1  19
TORSDOF 6
ENDMDL
MODEL 8
REMARK VINA RESULT:      -7.4      4.850      8.652
REMARK  Name = 
REMARK  6 active torsions:
REMARK  status: ('A' for Active; 'I' for Inactive)
REMARK    1  A    between atoms: P_2  and  O_3
REMARK    2  A    between atoms: P_2  and  O_4
REMARK    3  A    between atoms: P_2  and  C_5
REMARK    4  A    between atoms: C_12  and  N_13
REMARK    5  A    between atoms: N_13  and  C_14
REMARK    6  A    between atoms: C_16  and  C_17
REMARK                            x       y       z     vdW  Elec       q    Type
REMARK                         _______ _______ _______ _____ _____    ______ ____
ROOT
ATOM      1  C   UNL     1      -1.877  12.916  19.890  0.00  0.00    +0.000 A 
ATOM      2  N   UNL     1      -1.443  11.662  20.088  0.00  0.00    +0.000 NA
ATOM      3  C   UNL     1      -0.115  11.489  20.200  0.00  0.00    +0.000 A 
ATOM      4  N   UNL     1       0.815  12.462  20.127  0.00  0.00    +0.000 NA
ATOM      5  C   UNL     1       0.346  13.702  19.904  0.00  0.00    +0.000 A 
ATOM      6  C   UNL     1      -0.991  13.981  19.773  0.00  0.00    +0.000 A 
ATOM      7  F   UNL     1      -1.421  15.241  19.620  0.00  0.00    +0.000 F 
ENDROOT
BRANCH   3   8
ATOM      8  C   UNL     1       0.344  10.165  20.568  0.00  0.00    +0.000 A 
ATOM      9  C   UNL     1       0.155   9.590  21.815  0.00  0.00    +0.000 A 
ATOM     10  N   UNL     1       0.755   8.356  21.811  0.00  0.00    +0.000 N 
ATOM     11  C   UNL     1       1.348   8.135  20.597  0.00  0.00    +0.000 A 
ATOM     12  N   UNL     1       2.045   7.027  20.281  0.00  0.00    +0.000 NA
ATOM     13  C   UNL     1       2.545   7.072  19.019  0.00  0.00    +0.000 A 
ATOM     14  C   UNL     1       2.384   8.116  18.122  0.00  0.00    +0.000 A 
ATOM     15  F   UNL     1       2.933   8.055  16.902  0.00  0.00    +0.000 F 
ATOM     16  C   UNL     1       1.654   9.235  18.496  0.00  0.00    +0.000 A 
ATOM     17  C   UNL     1       1.109   9.243  19.791  0.00  0.00    +0.000 A 
ATOM     18  H   UNL     1       0.790   7.703  22.578  0.00  0.00    +0.000 HD
ENDBRANCH   3   8
BRANCH   1  19
ATOM     19  N   UNL     1      -3.253  13.157  19.747  0.00  0.00    +0.000 N 
ATOM     20  H   UNL     1      -3.598  13.548  20.621  0.00  0.00    +0.000 HD
BRANCH  19  28
ATOM     21  C   UNL     1      -4.309  12.181  17.704  0.00  0.00    +0.000 C 
ATOM     22  C   UNL     1      -5.853  12.372  17.485  0.00  0.00    +0.000 C 
ATOM     23  C   UNL     1      -6.613  11.136  17.997  0.00  0.00    +0.000 C 
ATOM     24  C   UNL     1      -6.280  10.887  19.471  0.00  0.00    +0.000 C 
ATOM     25  C   UNL     1      -5.418  12.041  20.007  0.00  0.00    +0.000 C 
ATOM     26  C   UNL     1      -6.192  13.355  19.769  0.00  0.00    +0.000 C 
ATOM     27  C   UNL     1      -6.335  13.605  18.268  0.00  0.00    +0.000 C 
ATOM     28  C   UNL     1      -4.062  12.038  19.231  0.00  0.00    +0.000 C 
BRANCH  21  30
ATOM     29  O   UNL     1      -3.096   9.542  15.979  0.00  0.00    +0.000 OA
ATOM     30  P   UNL     1      -3.652  10.751  16.770  0.00  0.00    +0.000 P 
BRANCH  30  31
ATOM     31  O   UNL     1      -2.956  10.218  18.156  0.00  0.00    +0.000 OA
ATOM     32  H   UNL     1      -3.355   9.357  18.388  0.00  0.00    +0.000 HD
ENDBRANCH  30  31
BRANCH  30  33
ATOM     33  O   UNL     1      -2.369  11.666  16.305  0.00  0.00    +0.000 OA
ATOM     34  H   UNL     1      -2.619  12.602  16.436  0.00  0.00    +0.000 HD
ENDBRANCH  30  33
ENDBRANCH  21  30
ENDBRANCH  19  28
ENDBRANCH   1  19
TORSDOF 6
ENDMDL
MODEL 9
REMARK VINA RESULT:      -7.4      9.858     10.941
REMARK  Name = 
REMARK  6 active torsions:
REMARK  status: ('A' for Active; 'I' for Inactive)
REMARK    1  A    between atoms: P_2  and  O_3
REMARK    2  A    between atoms: P_2  and  O_4
REMARK    3  A    between atoms: P_2  and  C_5
REMARK    4  A    between atoms: C_12  and  N_13
REMARK    5  A    between atoms: N_13  and  C_14
REMARK    6  A    between atoms: C_16  and  C_17
REMARK                            x       y       z     vdW  Elec       q    Type
REMARK                         _______ _______ _______ _____ _____    ______ ____
ROOT
ATOM      1  C   UNL     1       8.183  14.319  21.016  0.00  0.00    +0.000 A 
ATOM      2  N   UNL     1       8.342  13.828  22.254  0.00  0.00    +0.000 NA
ATOM      3  C   UNL     1       8.037  14.646  23.277  0.00  0.00    +0.000 A 
ATOM      4  N   UNL     1       7.591  15.913  23.165  0.00  0.00    +0.000 NA
ATOM      5  C   UNL     1       7.467  16.380  21.911  0.00  0.00    +0.000 A 
ATOM      6  C   UNL     1       7.755  15.625  20.802  0.00  0.00    +0.000 A 
ATOM      7  F   UNL     1       7.552  16.106  19.568  0.00  0.00    +0.000 F 
ENDROOT
BRANCH   3   8
ATOM      8  C   UNL     1       8.058  14.069  24.605  0.00  0.00    +0.000 A 
ATOM      9  C   UNL     1       8.923  14.462  25.615  0.00  0.00    +0.000 A 
ATOM     10  N   UNL     1       8.685  13.673  26.711  0.00  0.00    +0.000 N 
ATOM     11  C   UNL     1       7.703  12.764  26.422  0.00  0.00    +0.000 A 
ATOM     12  N   UNL     1       7.258  11.826  27.279  0.00  0.00    +0.000 NA
ATOM     13  C   UNL     1       6.295  11.039  26.732  0.00  0.00    +0.000 A 
ATOM     14  C   UNL     1       5.796  11.150  25.444  0.00  0.00    +0.000 A 
ATOM     15  F   UNL     1       4.850  10.309  25.007  0.00  0.00    +0.000 F 
ATOM     16  C   UNL     1       6.287  12.136  24.601  0.00  0.00    +0.000 A 
ATOM     17  C   UNL     1       7.284  12.983  25.114  0.00  0.00    +0.000 A 
ATOM     18  H   UNL     1       9.162  13.718  27.599  0.00  0.00    +0.000 HD
ENDBRANCH   3   8
BRANCH   1  19
ATOM     19  N   UNL     1       8.503  13.518  19.908  0.00  0.00    +0.000 N 
ATOM     20  H   UNL     1       8.007  12.634  20.003  0.00  0.00    +0.000 HD
BRANCH  19  28
ATOM     21  C   UNL     1      10.183  13.325  18.070  0.00  0.00    +0.000 C 
ATOM     22  C   UNL     1      10.760  11.907  17.716  0.00  0.00    +0.000 C 
ATOM     23  C   UNL     1      12.101  11.690  18.440  0.00  0.00    +0.000 C 
ATOM     24  C   UNL     1      11.917  11.864  19.951  0.00  0.00    +0.000 C 
ATOM     25  C   UNL     1      10.425  12.042  20.272  0.00  0.00    +0.000 C 
ATOM     26  C   UNL     1       9.672  10.822  19.700  0.00  0.00    +0.000 C 
ATOM     27  C   UNL     1       9.773  10.821  18.176  0.00  0.00    +0.000 C 
ATOM     28  C   UNL     1       9.937  13.368  19.603  0.00  0.00    +0.000 C 
BRANCH  21  30
ATOM     29  O   UNL     1      12.223  15.819  17.052  0.00  0.00    +0.000 OA
ATOM     30  P   UNL     1      11.288  14.676  17.518  0.00  0.00    +0.000 P 
BRANCH  30  31
ATOM     31  O   UNL     1       9.998  15.689  17.552  0.00  0.00    +0.000 OA
ATOM     32  H   UNL     1       9.283  15.293  17.018  0.00  0.00    +0.000 HD
ENDBRANCH  30  31
BRANCH  30  33
ATOM     33  O   UNL     1      11.061  14.203  15.962  0.00  0.00    +0.000 OA
ATOM     34  H   UNL     1      10.151  14.459  15.711  0.00  0.00    +0.000 HD
ENDBRANCH  30  33
ENDBRANCH  21  30
ENDBRANCH  19  28
ENDBRANCH   1  19
TORSDOF 6
ENDMDL
