MODEL 1
REMARK VINA RESULT:      -7.9      0.000      0.000
REMARK  Name = 
REMARK  9 active torsions:
REMARK  status: ('A' for Active; 'I' for Inactive)
REMARK    1  A    between atoms: C_2  and  C_3
REMARK    2  A    between atoms: C_6  and  C_7
REMARK    3  A    between atoms: C_7  and  C_8
REMARK    4  A    between atoms: C_10  and  C_11
REMARK    5  A    between atoms: C_13  and  C_14
REMARK    6  A    between atoms: C_14  and  O_15
REMARK    7  A    between atoms: C_16  and  O_17
REMARK    8  A    between atoms: C_18  and  O_19
REMARK    9  A    between atoms: C_20  and  O_21
REMARK                            x       y       z     vdW  Elec       q    Type
REMARK                         _______ _______ _______ _____ _____    ______ ____
ROOT
ATOM      1  C   UNL     1       4.629   5.215  18.954  0.00  0.00    +0.000 A 
ATOM      2  C   UNL     1       3.710   6.294  18.870  0.00  0.00    +0.000 A 
ATOM      3  C   UNL     1       2.390   6.235  19.380  0.00  0.00    +0.000 A 
ATOM      4  C   UNL     1       1.968   4.973  19.798  0.00  0.00    +0.000 A 
ATOM      5  C   UNL     1       2.897   3.940  19.971  0.00  0.00    +0.000 A 
ATOM      6  C   UNL     1       4.232   4.054  19.623  0.00  0.00    +0.000 A 
ATOM      7 CL   UNL     1       5.321   2.758  19.959  0.00  0.00    +0.000 Cl
ATOM      8  O   UNL     1       2.347   2.794  20.507  0.00  0.00    +0.000 OA
ATOM      9  C   UNL     1       0.951   2.940  20.197  0.00  0.00    +0.000 C 
ATOM     10  C   UNL     1       0.633   4.433  20.171  0.00  0.00    +0.000 C 
ENDROOT
BRANCH   3  11
ATOM     11  C   UNL     1       1.681   7.575  19.591  0.00  0.00    +0.000 C 
ATOM     12  O   UNL     1       1.694   7.961  20.985  0.00  0.00    +0.000 OA
ATOM     13  C   UNL     1       0.681   8.957  21.260  0.00  0.00    +0.000 C 
ATOM     14  C   UNL     1       0.981  10.251  20.496  0.00  0.00    +0.000 C 
ATOM     15  C   UNL     1       1.088   9.951  18.998  0.00  0.00    +0.000 C 
ATOM     16  C   UNL     1       2.051   8.785  18.700  0.00  0.00    +0.000 C 
BRANCH  14  17
ATOM     17  O   UNL     1      -0.037  11.224  20.749  0.00  0.00    +0.000 OA
ATOM     18  H   UNL     1       0.190  11.717  21.559  0.00  0.00    +0.000 HD
ENDBRANCH  14  17
BRANCH  15  19
ATOM     19  O   UNL     1       1.456  11.140  18.288  0.00  0.00    +0.000 OA
ATOM     20  H   UNL     1       1.547  11.867  18.929  0.00  0.00    +0.000 HD
ENDBRANCH  15  19
BRANCH  16  21
ATOM     21  O   UNL     1       1.940   8.490  17.303  0.00  0.00    +0.000 OA
ATOM     22  H   UNL     1       2.329   7.615  17.128  0.00  0.00    +0.000 HD
ENDBRANCH  16  21
BRANCH  13  23
ATOM     23  C   UNL     1       0.593   9.244  22.765  0.00  0.00    +0.000 C 
BRANCH  23  24
ATOM     24  O   UNL     1      -0.765   9.411  23.162  0.00  0.00    +0.000 OA
ATOM     25  H   UNL     1      -0.958  10.357  23.048  0.00  0.00    +0.000 HD
ENDBRANCH  23  24
ENDBRANCH  13  23
ENDBRANCH   3  11
BRANCH   1  26
ATOM     26  C   UNL     1       5.985   5.343  18.298  0.00  0.00    +0.000 C 
BRANCH  26  30
ATOM     27  C   UNL     1       6.144   4.058  14.163  0.00  0.00    +0.000 A 
ATOM     28  C   UNL     1       5.148   3.581  15.019  0.00  0.00    +0.000 A 
ATOM     29  C   UNL     1       5.114   3.971  16.363  0.00  0.00    +0.000 A 
ATOM     30  C   UNL     1       6.080   4.846  16.876  0.00  0.00    +0.000 A 
ATOM     31  C   UNL     1       7.093   5.299  16.025  0.00  0.00    +0.000 A 
ATOM     32  C   UNL     1       7.130   4.901  14.685  0.00  0.00    +0.000 A 
BRANCH  27  34
ATOM     33  C   UNL     1       5.052   3.316  12.057  0.00  0.00    +0.000 C 
ATOM     34  C   UNL     1       6.146   3.628  12.757  0.00  0.00    +0.000 C 
ENDBRANCH  27  34
ENDBRANCH  26  30
ENDBRANCH   1  26
TORSDOF 9
ENDMDL
MODEL 2
REMARK VINA RESULT:      -7.7      0.754      1.154
REMARK  Name = 
REMARK  9 active torsions:
REMARK  status: ('A' for Active; 'I' for Inactive)
REMARK    1  A    between atoms: C_2  and  C_3
REMARK    2  A    between atoms: C_6  and  C_7
REMARK    3  A    between atoms: C_7  and  C_8
REMARK    4  A    between atoms: C_10  and  C_11
REMARK    5  A    between atoms: C_13  and  C_14
REMARK    6  A    between atoms: C_14  and  O_15
REMARK    7  A    between atoms: C_16  and  O_17
REMARK    8  A    between atoms: C_18  and  O_19
REMARK    9  A    between atoms: C_20  and  O_21
REMARK                            x       y       z     vdW  Elec       q    Type
REMARK                         _______ _______ _______ _____ _____    ______ ____
ROOT
ATOM      1  C   UNL     1       4.697   6.133  18.421  0.00  0.00    +0.000 A 
ATOM      2  C   UNL     1       3.642   7.082  18.456  0.00  0.00    +0.000 A 
ATOM      3  C   UNL     1       2.437   6.881  19.172  0.00  0.00    +0.000 A 
ATOM      4  C   UNL     1       2.256   5.596  19.686  0.00  0.00    +0.000 A 
ATOM      5  C   UNL     1       3.330   4.699  19.736  0.00  0.00    +0.000 A 
ATOM      6  C   UNL     1       4.567   4.965  19.176  0.00  0.00    +0.000 A 
ATOM      7 CL   UNL     1       5.857   3.835  19.368  0.00  0.00    +0.000 Cl
ATOM      8  O   UNL     1       3.026   3.520  20.385  0.00  0.00    +0.000 OA
ATOM      9  C   UNL     1       1.592   3.473  20.298  0.00  0.00    +0.000 C 
ATOM     10  C   UNL     1       1.078   4.911  20.284  0.00  0.00    +0.000 C 
ENDROOT
BRANCH   3  11
ATOM     11  C   UNL     1       1.598   8.128  19.458  0.00  0.00    +0.000 C 
ATOM     12  O   UNL     1       1.617   8.462  20.865  0.00  0.00    +0.000 OA
ATOM     13  C   UNL     1       0.515   9.334  21.210  0.00  0.00    +0.000 C 
ATOM     14  C   UNL     1       0.650  10.679  20.490  0.00  0.00    +0.000 C 
ATOM     15  C   UNL     1       0.738  10.448  18.979  0.00  0.00    +0.000 C 
ATOM     16  C   UNL     1       1.808   9.403  18.605  0.00  0.00    +0.000 C 
BRANCH  14  17
ATOM     17  O   UNL     1      -0.456  11.528  20.812  0.00  0.00    +0.000 OA
ATOM     18  H   UNL     1      -0.871  11.836  19.986  0.00  0.00    +0.000 HD
ENDBRANCH  14  17
BRANCH  15  19
ATOM     19  O   UNL     1       0.954  11.694  18.307  0.00  0.00    +0.000 OA
ATOM     20  H   UNL     1       1.536  12.246  18.859  0.00  0.00    +0.000 HD
ENDBRANCH  15  19
BRANCH  16  21
ATOM     21  O   UNL     1       1.682   9.149  17.201  0.00  0.00    +0.000 OA
ATOM     22  H   UNL     1       2.059   9.897  16.706  0.00  0.00    +0.000 HD
ENDBRANCH  16  21
BRANCH  13  23
ATOM     23  C   UNL     1       0.448   9.554  22.727  0.00  0.00    +0.000 C 
BRANCH  23  24
ATOM     24  O   UNL     1      -0.807   9.113  23.240  0.00  0.00    +0.000 OA
ATOM     25  H   UNL     1      -1.287   8.745  22.479  0.00  0.00    +0.000 HD
ENDBRANCH  23  24
ENDBRANCH  13  23
ENDBRANCH   3  11
BRANCH   1  26
ATOM     26  C   UNL     1       5.906   6.400  17.553  0.00  0.00    +0.000 C 
BRANCH  26  30
ATOM     27  C   UNL     1       6.082   4.145  13.857  0.00  0.00    +0.000 A 
ATOM     28  C   UNL     1       7.199   4.845  14.318  0.00  0.00    +0.000 A 
ATOM     29  C   UNL     1       7.134   5.599  15.496  0.00  0.00    +0.000 A 
ATOM     30  C   UNL     1       5.946   5.668  16.234  0.00  0.00    +0.000 A 
ATOM     31  C   UNL     1       4.820   4.991  15.755  0.00  0.00    +0.000 A 
ATOM     32  C   UNL     1       4.885   4.246  14.573  0.00  0.00    +0.000 A 
BRANCH  27  34
ATOM     33  C   UNL     1       5.158   3.046  11.829  0.00  0.00    +0.000 C 
ATOM     34  C   UNL     1       6.188   3.361  12.618  0.00  0.00    +0.000 C 
ENDBRANCH  27  34
ENDBRANCH  26  30
ENDBRANCH   1  26
TORSDOF 9
ENDMDL
MODEL 3
REMARK VINA RESULT:      -7.6      2.061      3.292
REMARK  Name = 
REMARK  9 active torsions:
REMARK  status: ('A' for Active; 'I' for Inactive)
REMARK    1  A    between atoms: C_2  and  C_3
REMARK    2  A    between atoms: C_6  and  C_7
REMARK    3  A    between atoms: C_7  and  C_8
REMARK    4  A    between atoms: C_10  and  C_11
REMARK    5  A    between atoms: C_13  and  C_14
REMARK    6  A    between atoms: C_14  and  O_15
REMARK    7  A    between atoms: C_16  and  O_17
REMARK    8  A    between atoms: C_18  and  O_19
REMARK    9  A    between atoms: C_20  and  O_21
REMARK                            x       y       z     vdW  Elec       q    Type
REMARK                         _______ _______ _______ _____ _____    ______ ____
ROOT
ATOM      1  C   UNL     1       4.636   4.703  18.777  0.00  0.00    +0.000 A 
ATOM      2  C   UNL     1       3.783   5.826  18.615  0.00  0.00    +0.000 A 
ATOM      3  C   UNL     1       2.501   5.923  19.210  0.00  0.00    +0.000 A 
ATOM      4  C   UNL     1       2.032   4.752  19.807  0.00  0.00    +0.000 A 
ATOM      5  C   UNL     1       2.905   3.685  20.051  0.00  0.00    +0.000 A 
ATOM      6  C   UNL     1       4.217   3.663  19.608  0.00  0.00    +0.000 A 
ATOM      7 CL   UNL     1       5.244   2.343  20.036  0.00  0.00    +0.000 Cl
ATOM      8  O   UNL     1       2.324   2.655  20.759  0.00  0.00    +0.000 OA
ATOM      9  C   UNL     1       0.921   2.860  20.520  0.00  0.00    +0.000 C 
ATOM     10  C   UNL     1       0.695   4.358  20.328  0.00  0.00    +0.000 C 
ENDROOT
BRANCH   3  11
ATOM     11  C   UNL     1       1.893   7.324  19.295  0.00  0.00    +0.000 C 
ATOM     12  O   UNL     1       1.846   7.793  20.662  0.00  0.00    +0.000 OA
ATOM     13  C   UNL     1       0.904   8.881  20.809  0.00  0.00    +0.000 C 
ATOM     14  C   UNL     1       1.360  10.098  19.997  0.00  0.00    +0.000 C 
ATOM     15  C   UNL     1       1.541   9.699  18.530  0.00  0.00    +0.000 C 
ATOM     16  C   UNL     1       2.421   8.444  18.366  0.00  0.00    +0.000 C 
BRANCH  14  17
ATOM     17  O   UNL     1       0.412  11.162  20.123  0.00  0.00    +0.000 OA
ATOM     18  H   UNL     1      -0.156  11.176  19.331  0.00  0.00    +0.000 HD
ENDBRANCH  14  17
BRANCH  15  19
ATOM     19  O   UNL     1       2.052  10.809  17.783  0.00  0.00    +0.000 OA
ATOM     20  H   UNL     1       2.767  10.489  17.204  0.00  0.00    +0.000 HD
ENDBRANCH  15  19
BRANCH  16  21
ATOM     21  O   UNL     1       2.379   8.074  16.983  0.00  0.00    +0.000 OA
ATOM     22  H   UNL     1       1.624   7.479  16.833  0.00  0.00    +0.000 HD
ENDBRANCH  16  21
BRANCH  13  23
ATOM     23  C   UNL     1       0.740   9.265  22.286  0.00  0.00    +0.000 C 
BRANCH  23  24
ATOM     24  O   UNL     1       2.009   9.303  22.934  0.00  0.00    +0.000 OA
ATOM     25  H   UNL     1       2.594   9.802  22.338  0.00  0.00    +0.000 HD
ENDBRANCH  23  24
ENDBRANCH  13  23
ENDBRANCH   3  11
BRANCH   1  26
ATOM     26  C   UNL     1       5.948   4.655  18.026  0.00  0.00    +0.000 C 
BRANCH  26  30
ATOM     27  C   UNL     1       8.149   8.385  18.154  0.00  0.00    +0.000 A 
ATOM     28  C   UNL     1       7.140   8.186  17.208  0.00  0.00    +0.000 A 
ATOM     29  C   UNL     1       6.450   6.969  17.146  0.00  0.00    +0.000 A 
ATOM     30  C   UNL     1       6.759   5.928  18.030  0.00  0.00    +0.000 A 
ATOM     31  C   UNL     1       7.789   6.119  18.956  0.00  0.00    +0.000 A 
ATOM     32  C   UNL     1       8.484   7.332  19.010  0.00  0.00    +0.000 A 
BRANCH  27  34
ATOM     33  C   UNL     1       9.264  10.283  19.307  0.00  0.00    +0.000 C 
ATOM     34  C   UNL     1       8.850   9.677  18.191  0.00  0.00    +0.000 C 
ENDBRANCH  27  34
ENDBRANCH  26  30
ENDBRANCH   1  26
TORSDOF 9
ENDMDL
MODEL 4
REMARK VINA RESULT:      -7.4      5.509      9.061
REMARK  Name = 
REMARK  9 active torsions:
REMARK  status: ('A' for Active; 'I' for Inactive)
REMARK    1  A    between atoms: C_2  and  C_3
REMARK    2  A    between atoms: C_6  and  C_7
REMARK    3  A    between atoms: C_7  and  C_8
REMARK    4  A    between atoms: C_10  and  C_11
REMARK    5  A    between atoms: C_13  and  C_14
REMARK    6  A    between atoms: C_14  and  O_15
REMARK    7  A    between atoms: C_16  and  O_17
REMARK    8  A    between atoms: C_18  and  O_19
REMARK    9  A    between atoms: C_20  and  O_21
REMARK                            x       y       z     vdW  Elec       q    Type
REMARK                         _______ _______ _______ _____ _____    ______ ____
ROOT
ATOM      1  C   UNL     1      -1.642  11.692  19.363  0.00  0.00    +0.000 A 
ATOM      2  C   UNL     1      -2.436  12.413  20.293  0.00  0.00    +0.000 A 
ATOM      3  C   UNL     1      -3.836  12.578  20.158  0.00  0.00    +0.000 A 
ATOM      4  C   UNL     1      -4.371  12.160  18.939  0.00  0.00    +0.000 A 
ATOM      5  C   UNL     1      -3.612  11.367  18.070  0.00  0.00    +0.000 A 
ATOM      6  C   UNL     1      -2.278  11.066  18.288  0.00  0.00    +0.000 A 
ATOM      7 CL   UNL     1      -1.450  10.005  17.208  0.00  0.00    +0.000 Cl
ATOM      8  O   UNL     1      -4.320  10.930  16.970  0.00  0.00    +0.000 OA
ATOM      9  C   UNL     1      -5.397  11.879  16.892  0.00  0.00    +0.000 C 
ATOM     10  C   UNL     1      -5.706  12.353  18.310  0.00  0.00    +0.000 C 
ENDROOT
BRANCH   3  11
ATOM     11  C   UNL     1      -4.597  13.000  21.417  0.00  0.00    +0.000 C 
ATOM     12  O   UNL     1      -5.707  12.112  21.681  0.00  0.00    +0.000 OA
ATOM     13  C   UNL     1      -6.668  12.727  22.571  0.00  0.00    +0.000 C 
ATOM     14  C   UNL     1      -6.039  12.980  23.945  0.00  0.00    +0.000 C 
ATOM     15  C   UNL     1      -4.783  13.841  23.785  0.00  0.00    +0.000 C 
ATOM     16  C   UNL     1      -3.816  13.278  22.725  0.00  0.00    +0.000 C 
BRANCH  14  17
ATOM     17  O   UNL     1      -6.984  13.614  24.813  0.00  0.00    +0.000 OA
ATOM     18  H   UNL     1      -6.510  14.227  25.404  0.00  0.00    +0.000 HD
ENDBRANCH  14  17
BRANCH  15  19
ATOM     19  O   UNL     1      -4.141  14.006  25.055  0.00  0.00    +0.000 OA
ATOM     20  H   UNL     1      -3.211  13.731  24.970  0.00  0.00    +0.000 HD
ENDBRANCH  15  19
BRANCH  16  21
ATOM     21  O   UNL     1      -2.774  14.244  22.545  0.00  0.00    +0.000 OA
ATOM     22  H   UNL     1      -2.765  14.851  23.306  0.00  0.00    +0.000 HD
ENDBRANCH  16  21
BRANCH  13  23
ATOM     23  C   UNL     1      -7.916  11.847  22.718  0.00  0.00    +0.000 C 
BRANCH  23  24
ATOM     24  O   UNL     1      -7.787  10.982  23.843  0.00  0.00    +0.000 OA
ATOM     25  H   UNL     1      -8.672  10.610  23.992  0.00  0.00    +0.000 HD
ENDBRANCH  23  24
ENDBRANCH  13  23
ENDBRANCH   3  11
BRANCH   1  26
ATOM     26  C   UNL     1      -0.141  11.649  19.545  0.00  0.00    +0.000 C 
BRANCH  26  30
ATOM     27  C   UNL     1       1.392   7.698  20.447  0.00  0.00    +0.000 A 
ATOM     28  C   UNL     1       0.546   8.355  21.343  0.00  0.00    +0.000 A 
ATOM     29  C   UNL     1       0.075   9.644  21.067  0.00  0.00    +0.000 A 
ATOM     30  C   UNL     1       0.445  10.301  19.887  0.00  0.00    +0.000 A 
ATOM     31  C   UNL     1       1.315   9.653  19.004  0.00  0.00    +0.000 A 
ATOM     32  C   UNL     1       1.792   8.369  19.287  0.00  0.00    +0.000 A 
BRANCH  27  34
ATOM     33  C   UNL     1       2.395   5.495  19.885  0.00  0.00    +0.000 C 
ATOM     34  C   UNL     1       1.864   6.344  20.769  0.00  0.00    +0.000 C 
ENDBRANCH  27  34
ENDBRANCH  26  30
ENDBRANCH   1  26
TORSDOF 9
ENDMDL
MODEL 5
REMARK VINA RESULT:      -7.3      5.036      8.192
REMARK  Name = 
REMARK  9 active torsions:
REMARK  status: ('A' for Active; 'I' for Inactive)
REMARK    1  A    between atoms: C_2  and  C_3
REMARK    2  A    between atoms: C_6  and  C_7
REMARK    3  A    between atoms: C_7  and  C_8
REMARK    4  A    between atoms: C_10  and  C_11
REMARK    5  A    between atoms: C_13  and  C_14
REMARK    6  A    between atoms: C_14  and  O_15
REMARK    7  A    between atoms: C_16  and  O_17
REMARK    8  A    between atoms: C_18  and  O_19
REMARK    9  A    between atoms: C_20  and  O_21
REMARK                            x       y       z     vdW  Elec       q    Type
REMARK                         _______ _______ _______ _____ _____    ______ ____
ROOT
ATOM      1  C   UNL     1      -0.839  11.556  18.871  0.00  0.00    +0.000 A 
ATOM      2  C   UNL     1      -1.191  12.463  19.905  0.00  0.00    +0.000 A 
ATOM      3  C   UNL     1      -2.530  12.776  20.244  0.00  0.00    +0.000 A 
ATOM      4  C   UNL     1      -3.497  12.292  19.363  0.00  0.00    +0.000 A 
ATOM      5  C   UNL     1      -3.161  11.324  18.408  0.00  0.00    +0.000 A 
ATOM      6  C   UNL     1      -1.863  10.895  18.189  0.00  0.00    +0.000 A 
ATOM      7 CL   UNL     1      -1.558   9.631  17.054  0.00  0.00    +0.000 Cl
ATOM      8  O   UNL     1      -4.247  10.854  17.700  0.00  0.00    +0.000 OA
ATOM      9  C   UNL     1      -5.210  11.908  17.865  0.00  0.00    +0.000 C 
ATOM     10  C   UNL     1      -4.952  12.569  19.217  0.00  0.00    +0.000 C 
ENDROOT
BRANCH   3  11
ATOM     11  C   UNL     1      -2.753  13.421  21.614  0.00  0.00    +0.000 C 
ATOM     12  O   UNL     1      -3.733  12.688  22.385  0.00  0.00    +0.000 OA
ATOM     13  C   UNL     1      -4.267  13.500  23.457  0.00  0.00    +0.000 C 
ATOM     14  C   UNL     1      -3.166  13.851  24.462  0.00  0.00    +0.000 C 
ATOM     15  C   UNL     1      -2.015  14.554  23.739  0.00  0.00    +0.000 C 
ATOM     16  C   UNL     1      -1.534  13.774  22.500  0.00  0.00    +0.000 C 
BRANCH  14  17
ATOM     17  O   UNL     1      -3.693  14.676  25.506  0.00  0.00    +0.000 OA
ATOM     18  H   UNL     1      -2.998  15.290  25.807  0.00  0.00    +0.000 HD
ENDBRANCH  14  17
BRANCH  15  19
ATOM     19  O   UNL     1      -0.944  14.806  24.658  0.00  0.00    +0.000 OA
ATOM     20  H   UNL     1      -0.157  15.073  24.150  0.00  0.00    +0.000 HD
ENDBRANCH  15  19
BRANCH  16  21
ATOM     21  O   UNL     1      -0.584  14.601  21.820  0.00  0.00    +0.000 OA
ATOM     22  H   UNL     1       0.299  14.197  21.886  0.00  0.00    +0.000 HD
ENDBRANCH  16  21
BRANCH  13  23
ATOM     23  C   UNL     1      -5.418  12.774  24.168  0.00  0.00    +0.000 C 
BRANCH  23  24
ATOM     24  O   UNL     1      -4.916  11.963  25.227  0.00  0.00    +0.000 OA
ATOM     25  H   UNL     1      -5.699  11.634  25.700  0.00  0.00    +0.000 HD
ENDBRANCH  23  24
ENDBRANCH  13  23
ENDBRANCH   3  11
BRANCH   1  26
ATOM     26  C   UNL     1       0.619  11.358  18.523  0.00  0.00    +0.000 C 
BRANCH  26  30
ATOM     27  C   UNL     1       2.125   7.398  19.431  0.00  0.00    +0.000 A 
ATOM     28  C   UNL     1       1.453   8.144  20.402  0.00  0.00    +0.000 A 
ATOM     29  C   UNL     1       0.993   9.435  20.119  0.00  0.00    +0.000 A 
ATOM     30  C   UNL     1       1.200  10.006  18.857  0.00  0.00    +0.000 A 
ATOM     31  C   UNL     1       1.899   9.269  17.896  0.00  0.00    +0.000 A 
ATOM     32  C   UNL     1       2.365   7.982  18.184  0.00  0.00    +0.000 A 
BRANCH  27  34
ATOM     33  C   UNL     1       2.027   5.251  20.679  0.00  0.00    +0.000 C 
ATOM     34  C   UNL     1       2.590   6.043  19.763  0.00  0.00    +0.000 C 
ENDBRANCH  27  34
ENDBRANCH  26  30
ENDBRANCH   1  26
TORSDOF 9
ENDMDL
MODEL 6
REMARK VINA RESULT:      -7.0      5.181      8.698
REMARK  Name = 
REMARK  9 active torsions:
REMARK  status: ('A' for Active; 'I' for Inactive)
REMARK    1  A    between atoms: C_2  and  C_3
REMARK    2  A    between atoms: C_6  and  C_7
REMARK    3  A    between atoms: C_7  and  C_8
REMARK    4  A    between atoms: C_10  and  C_11
REMARK    5  A    between atoms: C_13  and  C_14
REMARK    6  A    between atoms: C_14  and  O_15
REMARK    7  A    between atoms: C_16  and  O_17
REMARK    8  A    between atoms: C_18  and  O_19
REMARK    9  A    between atoms: C_20  and  O_21
REMARK                            x       y       z     vdW  Elec       q    Type
REMARK                         _______ _______ _______ _____ _____    ______ ____
ROOT
ATOM      1  C   UNL     1      -1.024  11.647  19.131  0.00  0.00    +0.000 A 
ATOM      2  C   UNL     1      -1.407  12.557  20.151  0.00  0.00    +0.000 A 
ATOM      3  C   UNL     1      -2.756  12.876  20.443  0.00  0.00    +0.000 A 
ATOM      4  C   UNL     1      -3.694  12.395  19.529  0.00  0.00    +0.000 A 
ATOM      5  C   UNL     1      -3.329  11.425  18.587  0.00  0.00    +0.000 A 
ATOM      6  C   UNL     1      -2.026  10.990  18.414  0.00  0.00    +0.000 A 
ATOM      7 CL   UNL     1      -1.687   9.724  17.290  0.00  0.00    +0.000 Cl
ATOM      8  O   UNL     1      -4.392  10.960  17.842  0.00  0.00    +0.000 OA
ATOM      9  C   UNL     1      -5.355  12.019  17.972  0.00  0.00    +0.000 C 
ATOM     10  C   UNL     1      -5.141  12.679  19.332  0.00  0.00    +0.000 C 
ENDROOT
BRANCH   3  11
ATOM     11  C   UNL     1      -3.024  13.522  21.804  0.00  0.00    +0.000 C 
ATOM     12  O   UNL     1      -3.783  14.745  21.664  0.00  0.00    +0.000 OA
ATOM     13  C   UNL     1      -3.665  15.571  22.846  0.00  0.00    +0.000 C 
ATOM     14  C   UNL     1      -4.286  14.866  24.056  0.00  0.00    +0.000 C 
ATOM     15  C   UNL     1      -3.622  13.500  24.252  0.00  0.00    +0.000 C 
ATOM     16  C   UNL     1      -3.603  12.665  22.956  0.00  0.00    +0.000 C 
BRANCH  14  17
ATOM     17  O   UNL     1      -4.143  15.675  25.228  0.00  0.00    +0.000 OA
ATOM     18  H   UNL     1      -4.426  15.160  26.005  0.00  0.00    +0.000 HD
ENDBRANCH  14  17
BRANCH  15  19
ATOM     19  O   UNL     1      -4.258  12.799  25.327  0.00  0.00    +0.000 OA
ATOM     20  H   UNL     1      -4.276  11.850  25.110  0.00  0.00    +0.000 HD
ENDBRANCH  15  19
BRANCH  16  21
ATOM     21  O   UNL     1      -2.818  11.496  23.217  0.00  0.00    +0.000 OA
ATOM     22  H   UNL     1      -1.889  11.676  22.992  0.00  0.00    +0.000 HD
ENDBRANCH  16  21
BRANCH  13  23
ATOM     23  C   UNL     1      -4.339  16.933  22.628  0.00  0.00    +0.000 C 
BRANCH  23  24
ATOM     24  O   UNL     1      -5.693  16.895  23.071  0.00  0.00    +0.000 OA
ATOM     25  H   UNL     1      -5.765  17.583  23.755  0.00  0.00    +0.000 HD
ENDBRANCH  23  24
ENDBRANCH  13  23
ENDBRANCH   3  11
BRANCH   1  26
ATOM     26  C   UNL     1       0.445  11.443  18.835  0.00  0.00    +0.000 C 
BRANCH  26  30
ATOM     27  C   UNL     1       2.138   7.515  19.532  0.00  0.00    +0.000 A 
ATOM     28  C   UNL     1       2.230   8.118  18.275  0.00  0.00    +0.000 A 
ATOM     29  C   UNL     1       1.656   9.373  18.040  0.00  0.00    +0.000 A 
ATOM     30  C   UNL     1       0.977  10.049  19.061  0.00  0.00    +0.000 A 
ATOM     31  C   UNL     1       0.859   9.431  20.311  0.00  0.00    +0.000 A 
ATOM     32  C   UNL     1       1.426   8.173  20.540  0.00  0.00    +0.000 A 
BRANCH  27  34
ATOM     33  C   UNL     1       2.181   5.187  20.399  0.00  0.00    +0.000 C 
ATOM     34  C   UNL     1       2.755   6.198  19.742  0.00  0.00    +0.000 C 
ENDBRANCH  27  34
ENDBRANCH  26  30
ENDBRANCH   1  26
TORSDOF 9
ENDMDL
MODEL 7
REMARK VINA RESULT:      -7.0      7.754      9.988
REMARK  Name = 
REMARK  9 active torsions:
REMARK  status: ('A' for Active; 'I' for Inactive)
REMARK    1  A    between atoms: C_2  and  C_3
REMARK    2  A    between atoms: C_6  and  C_7
REMARK    3  A    between atoms: C_7  and  C_8
REMARK    4  A    between atoms: C_10  and  C_11
REMARK    5  A    between atoms: C_13  and  C_14
REMARK    6  A    between atoms: C_14  and  O_15
REMARK    7  A    between atoms: C_16  and  O_17
REMARK    8  A    between atoms: C_18  and  O_19
REMARK    9  A    between atoms: C_20  and  O_21
REMARK                            x       y       z     vdW  Elec       q    Type
REMARK                         _______ _______ _______ _____ _____    ______ ____
ROOT
ATOM      1  C   UNL     1      -1.578  11.788  19.825  0.00  0.00    +0.000 A 
ATOM      2  C   UNL     1      -2.497  12.549  20.595  0.00  0.00    +0.000 A 
ATOM      3  C   UNL     1      -3.866  12.687  20.260  0.00  0.00    +0.000 A 
ATOM      4  C   UNL     1      -4.225  12.195  19.004  0.00  0.00    +0.000 A 
ATOM      5  C   UNL     1      -3.348  11.366  18.294  0.00  0.00    +0.000 A 
ATOM      6  C   UNL     1      -2.056  11.096  18.710  0.00  0.00    +0.000 A 
ATOM      7 CL   UNL     1      -1.080   9.989  17.816  0.00  0.00    +0.000 Cl
ATOM      8  O   UNL     1      -3.895  10.860  17.133  0.00  0.00    +0.000 OA
ATOM      9  C   UNL     1      -4.956  11.788  16.854  0.00  0.00    +0.000 C 
ATOM     10  C   UNL     1      -5.461  12.335  18.187  0.00  0.00    +0.000 C 
ENDROOT
BRANCH   3  11
ATOM     11  C   UNL     1      -4.796  13.167  21.376  0.00  0.00    +0.000 C 
ATOM     12  O   UNL     1      -5.726  12.130  21.765  0.00  0.00    +0.000 OA
ATOM     13  C   UNL     1      -6.860  12.685  22.473  0.00  0.00    +0.000 C 
ATOM     14  C   UNL     1      -6.409  13.317  23.794  0.00  0.00    +0.000 C 
ATOM     15  C   UNL     1      -5.340  14.377  23.518  0.00  0.00    +0.000 C 
ATOM     16  C   UNL     1      -4.197  13.843  22.633  0.00  0.00    +0.000 C 
BRANCH  14  17
ATOM     17  O   UNL     1      -7.529  13.888  24.478  0.00  0.00    +0.000 OA
ATOM     18  H   UNL     1      -7.228  14.250  25.331  0.00  0.00    +0.000 HD
ENDBRANCH  14  17
BRANCH  15  19
ATOM     19  O   UNL     1      -4.850  14.909  24.755  0.00  0.00    +0.000 OA
ATOM     20  H   UNL     1      -4.044  15.423  24.573  0.00  0.00    +0.000 HD
ENDBRANCH  15  19
BRANCH  16  21
ATOM     21  O   UNL     1      -3.356  14.956  22.308  0.00  0.00    +0.000 OA
ATOM     22  H   UNL     1      -3.629  15.324  21.450  0.00  0.00    +0.000 HD
ENDBRANCH  16  21
BRANCH  13  23
ATOM     23  C   UNL     1      -7.917  11.604  22.741  0.00  0.00    +0.000 C 
BRANCH  23  24
ATOM     24  O   UNL     1      -7.666  10.961  23.987  0.00  0.00    +0.000 OA
ATOM     25  H   UNL     1      -8.045  11.545  24.666  0.00  0.00    +0.000 HD
ENDBRANCH  23  24
ENDBRANCH  13  23
ENDBRANCH   3  11
BRANCH   1  26
ATOM     26  C   UNL     1      -0.117  11.777  20.215  0.00  0.00    +0.000 C 
BRANCH  26  30
ATOM     27  C   UNL     1       2.553  14.545  18.219  0.00  0.00    +0.000 A 
ATOM     28  C   UNL     1       1.481  15.014  18.983  0.00  0.00    +0.000 A 
ATOM     29  C   UNL     1       0.600  14.120  19.602  0.00  0.00    +0.000 A 
ATOM     30  C   UNL     1       0.775  12.738  19.467  0.00  0.00    +0.000 A 
ATOM     31  C   UNL     1       1.831  12.270  18.678  0.00  0.00    +0.000 A 
ATOM     32  C   UNL     1       2.704  13.165  18.052  0.00  0.00    +0.000 A 
BRANCH  27  34
ATOM     33  C   UNL     1       4.314  16.299  18.247  0.00  0.00    +0.000 C 
ATOM     34  C   UNL     1       3.460  15.514  17.586  0.00  0.00    +0.000 C 
ENDBRANCH  27  34
ENDBRANCH  26  30
ENDBRANCH   1  26
TORSDOF 9
ENDMDL
MODEL 8
REMARK VINA RESULT:      -7.0      3.293      7.510
REMARK  Name = 
REMARK  9 active torsions:
REMARK  status: ('A' for Active; 'I' for Inactive)
REMARK    1  A    between atoms: C_2  and  C_3
REMARK    2  A    between atoms: C_6  and  C_7
REMARK    3  A    between atoms: C_7  and  C_8
REMARK    4  A    between atoms: C_10  and  C_11
REMARK    5  A    between atoms: C_13  and  C_14
REMARK    6  A    between atoms: C_14  and  O_15
REMARK    7  A    between atoms: C_16  and  O_17
REMARK    8  A    between atoms: C_18  and  O_19
REMARK    9  A    between atoms: C_20  and  O_21
REMARK                            x       y       z     vdW  Elec       q    Type
REMARK                         _______ _______ _______ _____ _____    ______ ____
ROOT
ATOM      1  C   UNL     1       2.629   5.603  19.967  0.00  0.00    +0.000 A 
ATOM      2  C   UNL     1       3.853   5.538  19.251  0.00  0.00    +0.000 A 
ATOM      3  C   UNL     1       4.217   4.443  18.429  0.00  0.00    +0.000 A 
ATOM      4  C   UNL     1       3.386   3.326  18.521  0.00  0.00    +0.000 A 
ATOM      5  C   UNL     1       2.137   3.426  19.147  0.00  0.00    +0.000 A 
ATOM      6  C   UNL     1       1.711   4.562  19.813  0.00  0.00    +0.000 A 
ATOM      7 CL   UNL     1       0.119   4.622  20.475  0.00  0.00    +0.000 Cl
ATOM      8  O   UNL     1       1.383   2.276  19.046  0.00  0.00    +0.000 OA
ATOM      9  C   UNL     1       2.376   1.269  18.788  0.00  0.00    +0.000 C 
ATOM     10  C   UNL     1       3.523   1.930  18.027  0.00  0.00    +0.000 C 
ENDROOT
BRANCH   3  11
ATOM     11  C   UNL     1       5.336   4.694  17.415  0.00  0.00    +0.000 C 
ATOM     12  O   UNL     1       4.861   4.535  16.059  0.00  0.00    +0.000 OA
ATOM     13  C   UNL     1       5.960   4.334  15.141  0.00  0.00    +0.000 C 
ATOM     14  C   UNL     1       6.855   5.577  15.095  0.00  0.00    +0.000 C 
ATOM     15  C   UNL     1       7.348   5.907  16.506  0.00  0.00    +0.000 C 
ATOM     16  C   UNL     1       6.199   5.974  17.531  0.00  0.00    +0.000 C 
BRANCH  14  17
ATOM     17  O   UNL     1       7.955   5.363  14.206  0.00  0.00    +0.000 OA
ATOM     18  H   UNL     1       8.050   6.141  13.626  0.00  0.00    +0.000 HD
ENDBRANCH  14  17
BRANCH  15  19
ATOM     19  O   UNL     1       8.112   7.119  16.484  0.00  0.00    +0.000 OA
ATOM     20  H   UNL     1       9.023   6.916  16.761  0.00  0.00    +0.000 HD
ENDBRANCH  15  19
BRANCH  16  21
ATOM     21  O   UNL     1       6.793   6.119  18.826  0.00  0.00    +0.000 OA
ATOM     22  H   UNL     1       6.093   6.268  19.485  0.00  0.00    +0.000 HD
ENDBRANCH  16  21
BRANCH  13  23
ATOM     23  C   UNL     1       5.442   4.007  13.734  0.00  0.00    +0.000 C 
BRANCH  23  24
ATOM     24  O   UNL     1       6.377   3.188  13.036  0.00  0.00    +0.000 OA
ATOM     25  H   UNL     1       6.011   3.073  12.143  0.00  0.00    +0.000 HD
ENDBRANCH  23  24
ENDBRANCH  13  23
ENDBRANCH   3  11
BRANCH   1  26
ATOM     26  C   UNL     1       2.373   6.773  20.890  0.00  0.00    +0.000 C 
BRANCH  26  30
ATOM     27  C   UNL     1       0.103   9.998  19.096  0.00  0.00    +0.000 A 
ATOM     28  C   UNL     1       1.099   9.339  18.371  0.00  0.00    +0.000 A 
ATOM     29  C   UNL     1       1.854   8.319  18.960  0.00  0.00    +0.000 A 
ATOM     30  C   UNL     1       1.627   7.938  20.289  0.00  0.00    +0.000 A 
ATOM     31  C   UNL     1       0.649   8.619  21.022  0.00  0.00    +0.000 A 
ATOM     32  C   UNL     1      -0.098   9.645  20.434  0.00  0.00    +0.000 A 
BRANCH  27  34
ATOM     33  C   UNL     1      -1.744  10.859  17.674  0.00  0.00    +0.000 C 
ATOM     34  C   UNL     1      -0.672  11.063  18.443  0.00  0.00    +0.000 C 
ENDBRANCH  27  34
ENDBRANCH  26  30
ENDBRANCH   1  26
TORSDOF 9
ENDMDL
MODEL 9
REMARK VINA RESULT:      -6.9      1.338      2.312
REMARK  Name = 
REMARK  9 active torsions:
REMARK  status: ('A' for Active; 'I' for Inactive)
REMARK    1  A    between atoms: C_2  and  C_3
REMARK    2  A    between atoms: C_6  and  C_7
REMARK    3  A    between atoms: C_7  and  C_8
REMARK    4  A    between atoms: C_10  and  C_11
REMARK    5  A    between atoms: C_13  and  C_14
REMARK    6  A    between atoms: C_14  and  O_15
REMARK    7  A    between atoms: C_16  and  O_17
REMARK    8  A    between atoms: C_18  and  O_19
REMARK    9  A    between atoms: C_20  and  O_21
REMARK                            x       y       z     vdW  Elec       q    Type
REMARK                         _______ _______ _______ _____ _____    ______ ____
ROOT
ATOM      1  C   UNL     1       4.601   6.483  18.330  0.00  0.00    +0.000 A 
ATOM      2  C   UNL     1       3.550   7.432  18.441  0.00  0.00    +0.000 A 
ATOM      3  C   UNL     1       2.397   7.227  19.237  0.00  0.00    +0.000 A 
ATOM      4  C   UNL     1       2.251   5.940  19.756  0.00  0.00    +0.000 A 
ATOM      5  C   UNL     1       3.325   5.043  19.728  0.00  0.00    +0.000 A 
ATOM      6  C   UNL     1       4.521   5.311  19.086  0.00  0.00    +0.000 A 
ATOM      7 CL   UNL     1       5.821   4.180  19.185  0.00  0.00    +0.000 Cl
ATOM      8  O   UNL     1       3.066   3.861  20.390  0.00  0.00    +0.000 OA
ATOM      9  C   UNL     1       1.629   3.814  20.401  0.00  0.00    +0.000 C 
ATOM     10  C   UNL     1       1.116   5.252  20.429  0.00  0.00    +0.000 C 
ENDROOT
BRANCH   3  11
ATOM     11  C   UNL     1       1.579   8.473  19.585  0.00  0.00    +0.000 C 
ATOM     12  O   UNL     1       0.548   8.715  18.601  0.00  0.00    +0.000 OA
ATOM     13  C   UNL     1       0.075  10.082  18.666  0.00  0.00    +0.000 C 
ATOM     14  C   UNL     1      -0.603  10.351  20.013  0.00  0.00    +0.000 C 
ATOM     15  C   UNL     1       0.372  10.034  21.151  0.00  0.00    +0.000 C 
ATOM     16  C   UNL     1       1.003   8.635  21.012  0.00  0.00    +0.000 C 
BRANCH  14  17
ATOM     17  O   UNL     1      -1.044  11.710  20.083  0.00  0.00    +0.000 OA
ATOM     18  H   UNL     1      -0.341  12.290  19.738  0.00  0.00    +0.000 HD
ENDBRANCH  14  17
BRANCH  15  19
ATOM     19  O   UNL     1      -0.284  10.199  22.414  0.00  0.00    +0.000 OA
ATOM     20  H   UNL     1       0.369  10.518  23.063  0.00  0.00    +0.000 HD
ENDBRANCH  15  19
BRANCH  16  21
ATOM     21  O   UNL     1       2.009   8.521  22.026  0.00  0.00    +0.000 OA
ATOM     22  H   UNL     1       2.043   9.347  22.538  0.00  0.00    +0.000 HD
ENDBRANCH  16  21
BRANCH  13  23
ATOM     23  C   UNL     1      -0.901  10.375  17.518  0.00  0.00    +0.000 C 
BRANCH  23  24
ATOM     24  O   UNL     1      -2.247  10.191  17.950  0.00  0.00    +0.000 OA
ATOM     25  H   UNL     1      -2.489  11.012  18.412  0.00  0.00    +0.000 HD
ENDBRANCH  23  24
ENDBRANCH  13  23
ENDBRANCH   3  11
BRANCH   1  26
ATOM     26  C   UNL     1       5.747   6.754  17.382  0.00  0.00    +0.000 C 
BRANCH  26  30
ATOM     27  C   UNL     1       6.087   4.162  13.927  0.00  0.00    +0.000 A 
ATOM     28  C   UNL     1       4.867   4.307  14.591  0.00  0.00    +0.000 A 
ATOM     29  C   UNL     1       4.763   5.120  15.726  0.00  0.00    +0.000 A 
ATOM     30  C   UNL     1       5.882   5.802  16.219  0.00  0.00    +0.000 A 
ATOM     31  C   UNL     1       7.110   5.633  15.570  0.00  0.00    +0.000 A 
ATOM     32  C   UNL     1       7.213   4.813  14.442  0.00  0.00    +0.000 A 
BRANCH  27  34
ATOM     33  C   UNL     1       5.168   3.147  11.853  0.00  0.00    +0.000 C 
ATOM     34  C   UNL     1       6.157   3.303  12.736  0.00  0.00    +0.000 C 
ENDBRANCH  27  34
ENDBRANCH  26  30
ENDBRANCH   1  26
TORSDOF 9
ENDMDL
