MODEL 1
REMARK VINA RESULT:      -8.4      0.000      0.000
REMARK  Name = 
REMARK  3 active torsions:
REMARK  status: ('A' for Active; 'I' for Inactive)
REMARK    1  A    between atoms: C_4  and  C_5
REMARK    2  A    between atoms: C_7  and  C_8
REMARK    3  A    between atoms: C_8  and  N_9
REMARK                            x       y       z     vdW  Elec       q    Type
REMARK                         _______ _______ _______ _____ _____    ______ ____
ROOT
ATOM      1  C   UNL     1       6.564   5.074  15.681  0.00  0.00    +0.000 A 
ATOM      2  N   UNL     1       5.564   4.773  16.479  0.00  0.00    +0.000 NA
ATOM      3  C   UNL     1       5.708   5.632  17.537  0.00  0.00    +0.000 A 
ATOM      4  C   UNL     1       6.881   6.342  17.388  0.00  0.00    +0.000 A 
ATOM      5  O   UNL     1       7.439   5.996  16.195  0.00  0.00    +0.000 OA
ENDROOT
BRANCH   1   9
ATOM      6  C   UNL     1       6.877   3.973  11.579  0.00  0.00    +0.000 A 
ATOM      7  C   UNL     1       5.987   3.315  12.424  0.00  0.00    +0.000 A 
ATOM      8  C   UNL     1       5.932   3.653  13.774  0.00  0.00    +0.000 A 
ATOM      9  C   UNL     1       6.762   4.660  14.296  0.00  0.00    +0.000 A 
ATOM     10  C   UNL     1       7.667   5.301  13.442  0.00  0.00    +0.000 A 
ATOM     11  C   UNL     1       7.723   4.958  12.089  0.00  0.00    +0.000 A 
ENDBRANCH   1   9
BRANCH   3  12
ATOM     12  C   UNL     1       4.654   5.811  18.581  0.00  0.00    +0.000 C 
BRANCH  12  13
ATOM     13  N   UNL     1       3.304   6.024  18.011  0.00  0.00    +0.000 NA
ATOM     14  C   UNL     1       2.662   7.234  18.551  0.00  0.00    +0.000 C 
ATOM     15  C   UNL     1       2.030   7.073  19.952  0.00  0.00    +0.000 C 
ATOM     16  O   UNL     1       2.334   5.843  20.622  0.00  0.00    +0.000 OA
ATOM     17  C   UNL     1       2.183   4.642  19.829  0.00  0.00    +0.000 C 
ATOM     18  C   UNL     1       0.823   3.982  20.154  0.00  0.00    +0.000 C 
ATOM     19  C   UNL     1       1.122   2.723  20.972  0.00  0.00    +0.000 C 
ATOM     20  C   UNL     1       2.533   2.899  21.488  0.00  0.00    +0.000 C 
ATOM     21  C   UNL     1       3.226   3.632  20.358  0.00  0.00    +0.000 C 
ATOM     22  C   UNL     1       2.385   4.909  18.312  0.00  0.00    +0.000 C 
ENDBRANCH  12  13
ENDBRANCH   3  12
TORSDOF 3
ENDMDL
MODEL 2
REMARK VINA RESULT:      -8.3      0.165      1.040
REMARK  Name = 
REMARK  3 active torsions:
REMARK  status: ('A' for Active; 'I' for Inactive)
REMARK    1  A    between atoms: C_4  and  C_5
REMARK    2  A    between atoms: C_7  and  C_8
REMARK    3  A    between atoms: C_8  and  N_9
REMARK                            x       y       z     vdW  Elec       q    Type
REMARK                         _______ _______ _______ _____ _____    ______ ____
ROOT
ATOM      1  C   UNL     1       6.345   5.057  15.585  0.00  0.00    +0.000 A 
ATOM      2  N   UNL     1       5.357   4.793  16.411  0.00  0.00    +0.000 NA
ATOM      3  C   UNL     1       5.586   5.615  17.483  0.00  0.00    +0.000 A 
ATOM      4  C   UNL     1       6.793   6.260  17.310  0.00  0.00    +0.000 A 
ATOM      5  O   UNL     1       7.289   5.913  16.091  0.00  0.00    +0.000 OA
ENDROOT
BRANCH   1   9
ATOM      6  C   UNL     1       6.967   3.795  11.567  0.00  0.00    +0.000 A 
ATOM      7  C   UNL     1       7.765   4.788  12.129  0.00  0.00    +0.000 A 
ATOM      8  C   UNL     1       7.517   5.225  13.427  0.00  0.00    +0.000 A 
ATOM      9  C   UNL     1       6.472   4.668  14.185  0.00  0.00    +0.000 A 
ATOM     10  C   UNL     1       5.664   3.685  13.602  0.00  0.00    +0.000 A 
ATOM     11  C   UNL     1       5.912   3.251  12.298  0.00  0.00    +0.000 A 
ENDBRANCH   1   9
BRANCH   3  12
ATOM     12  C   UNL     1       4.580   5.827  18.568  0.00  0.00    +0.000 C 
BRANCH  12  13
ATOM     13  N   UNL     1       3.209   6.046  18.051  0.00  0.00    +0.000 NA
ATOM     14  C   UNL     1       2.581   7.238  18.644  0.00  0.00    +0.000 C 
ATOM     15  C   UNL     1       1.999   7.038  20.062  0.00  0.00    +0.000 C 
ATOM     16  O   UNL     1       2.334   5.793  20.690  0.00  0.00    +0.000 OA
ATOM     17  C   UNL     1       2.161   4.612  19.873  0.00  0.00    +0.000 C 
ATOM     18  C   UNL     1       0.818   3.936  20.230  0.00  0.00    +0.000 C 
ATOM     19  C   UNL     1       1.152   2.658  21.005  0.00  0.00    +0.000 C 
ATOM     20  C   UNL     1       2.581   2.830  21.475  0.00  0.00    +0.000 C 
ATOM     21  C   UNL     1       3.228   3.596  20.339  0.00  0.00    +0.000 C 
ATOM     22  C   UNL     1       2.307   4.918  18.357  0.00  0.00    +0.000 C 
ENDBRANCH  12  13
ENDBRANCH   3  12
TORSDOF 3
ENDMDL
MODEL 3
REMARK VINA RESULT:      -7.8      0.982      1.435
REMARK  Name = 
REMARK  3 active torsions:
REMARK  status: ('A' for Active; 'I' for Inactive)
REMARK    1  A    between atoms: C_4  and  C_5
REMARK    2  A    between atoms: C_7  and  C_8
REMARK    3  A    between atoms: C_8  and  N_9
REMARK                            x       y       z     vdW  Elec       q    Type
REMARK                         _______ _______ _______ _____ _____    ______ ____
ROOT
ATOM      1  C   UNL     1       6.454   5.176  15.836  0.00  0.00    +0.000 A 
ATOM      2  N   UNL     1       5.497   4.863  16.681  0.00  0.00    +0.000 NA
ATOM      3  C   UNL     1       5.715   5.684  17.756  0.00  0.00    +0.000 A 
ATOM      4  C   UNL     1       6.890   6.382  17.562  0.00  0.00    +0.000 A 
ATOM      5  O   UNL     1       7.371   6.067  16.328  0.00  0.00    +0.000 OA
ENDROOT
BRANCH   1   9
ATOM      6  C   UNL     1       7.032   3.971  11.793  0.00  0.00    +0.000 A 
ATOM      7  C   UNL     1       7.818   4.976  12.352  0.00  0.00    +0.000 A 
ATOM      8  C   UNL     1       7.583   5.393  13.660  0.00  0.00    +0.000 A 
ATOM      9  C   UNL     1       6.564   4.805  14.429  0.00  0.00    +0.000 A 
ATOM     10  C   UNL     1       5.767   3.811  13.850  0.00  0.00    +0.000 A 
ATOM     11  C   UNL     1       6.002   3.396  12.537  0.00  0.00    +0.000 A 
ENDBRANCH   1   9
BRANCH   3  12
ATOM     12  C   UNL     1       4.727   5.843  18.865  0.00  0.00    +0.000 C 
BRANCH  12  13
ATOM     13  N   UNL     1       3.413   6.347  18.402  0.00  0.00    +0.000 NA
ATOM     14  C   UNL     1       2.670   7.020  19.480  0.00  0.00    +0.000 C 
ATOM     15  C   UNL     1       1.946   6.078  20.467  0.00  0.00    +0.000 C 
ATOM     16  O   UNL     1       2.265   4.686  20.331  0.00  0.00    +0.000 OA
ATOM     17  C   UNL     1       2.236   4.166  18.981  0.00  0.00    +0.000 C 
ATOM     18  C   UNL     1       0.894   3.439  18.741  0.00  0.00    +0.000 C 
ATOM     19  C   UNL     1       1.198   1.939  18.706  0.00  0.00    +0.000 C 
ATOM     20  C   UNL     1       2.556   1.785  19.355  0.00  0.00    +0.000 C 
ATOM     21  C   UNL     1       3.290   3.037  18.923  0.00  0.00    +0.000 C 
ATOM     22  C   UNL     1       2.535   5.262  17.921  0.00  0.00    +0.000 C 
ENDBRANCH  12  13
ENDBRANCH   3  12
TORSDOF 3
ENDMDL
MODEL 4
REMARK VINA RESULT:      -7.7      3.035      8.310
REMARK  Name = 
REMARK  3 active torsions:
REMARK  status: ('A' for Active; 'I' for Inactive)
REMARK    1  A    between atoms: C_4  and  C_5
REMARK    2  A    between atoms: C_7  and  C_8
REMARK    3  A    between atoms: C_8  and  N_9
REMARK                            x       y       z     vdW  Elec       q    Type
REMARK                         _______ _______ _______ _____ _____    ______ ____
ROOT
ATOM      1  C   UNL     1       1.089   8.664  20.336  0.00  0.00    +0.000 A 
ATOM      2  N   UNL     1       1.564   7.480  20.652  0.00  0.00    +0.000 NA
ATOM      3  C   UNL     1       2.368   7.147  19.593  0.00  0.00    +0.000 A 
ATOM      4  C   UNL     1       2.243   8.106  18.610  0.00  0.00    +0.000 A 
ATOM      5  O   UNL     1       1.427   9.091  19.078  0.00  0.00    +0.000 OA
ENDROOT
BRANCH   1   9
ATOM      6  C   UNL     1      -1.193  11.383  22.688  0.00  0.00    +0.000 A 
ATOM      7  C   UNL     1      -0.799  11.722  21.396  0.00  0.00    +0.000 A 
ATOM      8  C   UNL     1      -0.011  10.842  20.658  0.00  0.00    +0.000 A 
ATOM      9  C   UNL     1       0.388   9.608  21.200  0.00  0.00    +0.000 A 
ATOM     10  C   UNL     1       0.003   9.287  22.506  0.00  0.00    +0.000 A 
ATOM     11  C   UNL     1      -0.785  10.172  23.247  0.00  0.00    +0.000 A 
ENDBRANCH   1   9
BRANCH   3  12
ATOM     12  C   UNL     1       3.304   5.982  19.624  0.00  0.00    +0.000 C 
BRANCH  12  13
ATOM     13  N   UNL     1       2.868   4.865  18.755  0.00  0.00    +0.000 NA
ATOM     14  C   UNL     1       3.091   3.555  19.389  0.00  0.00    +0.000 C 
ATOM     15  C   UNL     1       4.541   3.027  19.315  0.00  0.00    +0.000 C 
ATOM     16  O   UNL     1       5.511   3.969  18.834  0.00  0.00    +0.000 OA
ATOM     17  C   UNL     1       5.145   4.687  17.633  0.00  0.00    +0.000 C 
ATOM     18  C   UNL     1       5.820   4.022  16.412  0.00  0.00    +0.000 C 
ATOM     19  C   UNL     1       6.938   4.962  15.953  0.00  0.00    +0.000 C 
ATOM     20  C   UNL     1       7.197   5.887  17.122  0.00  0.00    +0.000 C 
ATOM     21  C   UNL     1       5.821   6.073  17.727  0.00  0.00    +0.000 C 
ATOM     22  C   UNL     1       3.605   4.828  17.477  0.00  0.00    +0.000 C 
ENDBRANCH  12  13
ENDBRANCH   3  12
TORSDOF 3
ENDMDL
MODEL 5
REMARK VINA RESULT:      -7.6      2.940      8.294
REMARK  Name = 
REMARK  3 active torsions:
REMARK  status: ('A' for Active; 'I' for Inactive)
REMARK    1  A    between atoms: C_4  and  C_5
REMARK    2  A    between atoms: C_7  and  C_8
REMARK    3  A    between atoms: C_8  and  N_9
REMARK                            x       y       z     vdW  Elec       q    Type
REMARK                         _______ _______ _______ _____ _____    ______ ____
ROOT
ATOM      1  C   UNL     1       1.131   9.160  19.710  0.00  0.00    +0.000 A 
ATOM      2  N   UNL     1       1.814   8.043  19.588  0.00  0.00    +0.000 NA
ATOM      3  C   UNL     1       2.421   8.152  18.364  0.00  0.00    +0.000 A 
ATOM      4  C   UNL     1       1.970   9.294  17.735  0.00  0.00    +0.000 A 
ATOM      5  O   UNL     1       1.143   9.954  18.593  0.00  0.00    +0.000 OA
ENDROOT
BRANCH   1   9
ATOM      6  C   UNL     1      -0.962  10.658  23.103  0.00  0.00    +0.000 A 
ATOM      7  C   UNL     1      -1.052  11.304  21.872  0.00  0.00    +0.000 A 
ATOM      8  C   UNL     1      -0.322  10.830  20.785  0.00  0.00    +0.000 A 
ATOM      9  C   UNL     1       0.502   9.699  20.912  0.00  0.00    +0.000 A 
ATOM     10  C   UNL     1       0.600   9.070  22.158  0.00  0.00    +0.000 A 
ATOM     11  C   UNL     1      -0.130   9.548  23.248  0.00  0.00    +0.000 A 
ENDBRANCH   1   9
BRANCH   3  12
ATOM     12  C   UNL     1       3.490   7.214  17.906  0.00  0.00    +0.000 C 
BRANCH  12  13
ATOM     13  N   UNL     1       3.262   5.818  18.344  0.00  0.00    +0.000 NA
ATOM     14  C   UNL     1       4.094   5.461  19.505  0.00  0.00    +0.000 C 
ATOM     15  C   UNL     1       5.561   5.104  19.177  0.00  0.00    +0.000 C 
ATOM     16  O   UNL     1       5.969   5.372  17.828  0.00  0.00    +0.000 OA
ATOM     17  C   UNL     1       5.066   4.909  16.797  0.00  0.00    +0.000 C 
ATOM     18  C   UNL     1       5.581   3.566  16.230  0.00  0.00    +0.000 C 
ATOM     19  C   UNL     1       6.129   3.853  14.829  0.00  0.00    +0.000 C 
ATOM     20  C   UNL     1       6.346   5.350  14.777  0.00  0.00    +0.000 C 
ATOM     21  C   UNL     1       5.208   5.895  15.615  0.00  0.00    +0.000 C 
ATOM     22  C   UNL     1       3.595   4.839  17.291  0.00  0.00    +0.000 C 
ENDBRANCH  12  13
ENDBRANCH   3  12
TORSDOF 3
ENDMDL
MODEL 6
REMARK VINA RESULT:      -7.6      1.043      1.089
REMARK  Name = 
REMARK  3 active torsions:
REMARK  status: ('A' for Active; 'I' for Inactive)
REMARK    1  A    between atoms: C_4  and  C_5
REMARK    2  A    between atoms: C_7  and  C_8
REMARK    3  A    between atoms: C_8  and  N_9
REMARK                            x       y       z     vdW  Elec       q    Type
REMARK                         _______ _______ _______ _____ _____    ______ ____
ROOT
ATOM      1  C   UNL     1       6.273   5.382  15.911  0.00  0.00    +0.000 A 
ATOM      2  N   UNL     1       5.551   4.868  16.882  0.00  0.00    +0.000 NA
ATOM      3  C   UNL     1       5.398   5.901  17.770  0.00  0.00    +0.000 A 
ATOM      4  C   UNL     1       6.153   6.976  17.350  0.00  0.00    +0.000 A 
ATOM      5  O   UNL     1       6.717   6.656  16.152  0.00  0.00    +0.000 OA
ENDROOT
BRANCH   1   9
ATOM      6  C   UNL     1       6.774   3.886  11.956  0.00  0.00    +0.000 A 
ATOM      7  C   UNL     1       5.715   3.451  12.750  0.00  0.00    +0.000 A 
ATOM      8  C   UNL     1       5.594   3.912  14.058  0.00  0.00    +0.000 A 
ATOM      9  C   UNL     1       6.526   4.821  14.588  0.00  0.00    +0.000 A 
ATOM     10  C   UNL     1       7.597   5.235  13.789  0.00  0.00    +0.000 A 
ATOM     11  C   UNL     1       7.719   4.769  12.478  0.00  0.00    +0.000 A 
ENDBRANCH   1   9
BRANCH   3  12
ATOM     12  C   UNL     1       4.443   5.844  18.919  0.00  0.00    +0.000 C 
BRANCH  12  13
ATOM     13  N   UNL     1       3.095   6.352  18.577  0.00  0.00    +0.000 NA
ATOM     14  C   UNL     1       2.424   6.958  19.739  0.00  0.00    +0.000 C 
ATOM     15  C   UNL     1       1.781   5.955  20.723  0.00  0.00    +0.000 C 
ATOM     16  O   UNL     1       2.104   4.577  20.490  0.00  0.00    +0.000 OA
ATOM     17  C   UNL     1       1.985   4.128  19.120  0.00  0.00    +0.000 C 
ATOM     18  C   UNL     1       0.636   3.395  18.937  0.00  0.00    +0.000 C 
ATOM     19  C   UNL     1       0.953   1.903  18.801  0.00  0.00    +0.000 C 
ATOM     20  C   UNL     1       2.355   1.735  19.344  0.00  0.00    +0.000 C 
ATOM     21  C   UNL     1       3.044   3.019  18.929  0.00  0.00    +0.000 C 
ATOM     22  C   UNL     1       2.196   5.282  18.102  0.00  0.00    +0.000 C 
ENDBRANCH  12  13
ENDBRANCH   3  12
TORSDOF 3
ENDMDL
MODEL 7
REMARK VINA RESULT:      -7.5      2.903      8.256
REMARK  Name = 
REMARK  3 active torsions:
REMARK  status: ('A' for Active; 'I' for Inactive)
REMARK    1  A    between atoms: C_4  and  C_5
REMARK    2  A    between atoms: C_7  and  C_8
REMARK    3  A    between atoms: C_8  and  N_9
REMARK                            x       y       z     vdW  Elec       q    Type
REMARK                         _______ _______ _______ _____ _____    ______ ____
ROOT
ATOM      1  C   UNL     1       1.014   9.010  19.629  0.00  0.00    +0.000 A 
ATOM      2  N   UNL     1       1.785   7.945  19.609  0.00  0.00    +0.000 NA
ATOM      3  C   UNL     1       2.427   8.017  18.401  0.00  0.00    +0.000 A 
ATOM      4  C   UNL     1       1.914   9.074  17.678  0.00  0.00    +0.000 A 
ATOM      5  O   UNL     1       1.008   9.723  18.459  0.00  0.00    +0.000 OA
ENDROOT
BRANCH   1   9
ATOM      6  C   UNL     1      -0.810  10.715  23.078  0.00  0.00    +0.000 A 
ATOM      7  C   UNL     1      -0.186   9.472  23.148  0.00  0.00    +0.000 A 
ATOM      8  C   UNL     1       0.362   8.906  22.000  0.00  0.00    +0.000 A 
ATOM      9  C   UNL     1       0.300   9.579  20.767  0.00  0.00    +0.000 A 
ATOM     10  C   UNL     1      -0.348  10.817  20.705  0.00  0.00    +0.000 A 
ATOM     11  C   UNL     1      -0.900  11.383  21.856  0.00  0.00    +0.000 A 
ENDBRANCH   1   9
BRANCH   3  12
ATOM     12  C   UNL     1       3.582   7.138  18.046  0.00  0.00    +0.000 C 
BRANCH  12  13
ATOM     13  N   UNL     1       3.379   5.726  18.445  0.00  0.00    +0.000 NA
ATOM     14  C   UNL     1       4.259   5.337  19.559  0.00  0.00    +0.000 C 
ATOM     15  C   UNL     1       5.713   5.000  19.162  0.00  0.00    +0.000 C 
ATOM     16  O   UNL     1       6.065   5.315  17.807  0.00  0.00    +0.000 OA
ATOM     17  C   UNL     1       5.124   4.881  16.798  0.00  0.00    +0.000 C 
ATOM     18  C   UNL     1       5.623   3.561  16.166  0.00  0.00    +0.000 C 
ATOM     19  C   UNL     1       6.113   3.898  14.755  0.00  0.00    +0.000 C 
ATOM     20  C   UNL     1       6.320   5.397  14.744  0.00  0.00    +0.000 C 
ATOM     21  C   UNL     1       5.214   5.906  15.645  0.00  0.00    +0.000 C 
ATOM     22  C   UNL     1       3.674   4.785  17.347  0.00  0.00    +0.000 C 
ENDBRANCH  12  13
ENDBRANCH   3  12
TORSDOF 3
ENDMDL
MODEL 8
REMARK VINA RESULT:      -7.4      3.343      5.533
REMARK  Name = 
REMARK  3 active torsions:
REMARK  status: ('A' for Active; 'I' for Inactive)
REMARK    1  A    between atoms: C_4  and  C_5
REMARK    2  A    between atoms: C_7  and  C_8
REMARK    3  A    between atoms: C_8  and  N_9
REMARK                            x       y       z     vdW  Elec       q    Type
REMARK                         _______ _______ _______ _____ _____    ______ ____
ROOT
ATOM      1  C   UNL     1       8.091   8.398  18.104  0.00  0.00    +0.000 A 
ATOM      2  N   UNL     1       7.090   8.034  17.333  0.00  0.00    +0.000 NA
ATOM      3  C   UNL     1       6.830   6.741  17.706  0.00  0.00    +0.000 A 
ATOM      4  C   UNL     1       7.784   6.332  18.615  0.00  0.00    +0.000 A 
ATOM      5  O   UNL     1       8.598   7.391  18.883  0.00  0.00    +0.000 OA
ENDROOT
BRANCH   1   9
ATOM      6  C   UNL     1       9.337  12.407  18.815  0.00  0.00    +0.000 A 
ATOM      7  C   UNL     1       8.529  12.099  17.723  0.00  0.00    +0.000 A 
ATOM      8  C   UNL     1       8.171  10.776  17.476  0.00  0.00    +0.000 A 
ATOM      9  C   UNL     1       8.610   9.744  18.322  0.00  0.00    +0.000 A 
ATOM     10  C   UNL     1       9.439  10.062  19.404  0.00  0.00    +0.000 A 
ATOM     11  C   UNL     1       9.800  11.389  19.648  0.00  0.00    +0.000 A 
ENDBRANCH   1   9
BRANCH   3  12
ATOM     12  C   UNL     1       5.613   6.000  17.258  0.00  0.00    +0.000 C 
BRANCH  12  13
ATOM     13  N   UNL     1       5.659   4.557  17.590  0.00  0.00    +0.000 NA
ATOM     14  C   UNL     1       4.964   3.738  16.583  0.00  0.00    +0.000 C 
ATOM     15  C   UNL     1       3.424   3.704  16.711  0.00  0.00    +0.000 C 
ATOM     16  O   UNL     1       2.869   4.635  17.651  0.00  0.00    +0.000 OA
ATOM     17  C   UNL     1       3.510   4.675  18.947  0.00  0.00    +0.000 C 
ATOM     18  C   UNL     1       2.689   3.833  19.950  0.00  0.00    +0.000 C 
ATOM     19  C   UNL     1       1.993   4.818  20.895  0.00  0.00    +0.000 C 
ATOM     20  C   UNL     1       2.033   6.156  20.189  0.00  0.00    +0.000 C 
ATOM     21  C   UNL     1       3.363   6.124  19.464  0.00  0.00    +0.000 C 
ATOM     22  C   UNL     1       5.004   4.256  18.878  0.00  0.00    +0.000 C 
ENDBRANCH  12  13
ENDBRANCH   3  12
TORSDOF 3
ENDMDL
MODEL 9
REMARK VINA RESULT:      -7.4      3.338      7.693
REMARK  Name = 
REMARK  3 active torsions:
REMARK  status: ('A' for Active; 'I' for Inactive)
REMARK    1  A    between atoms: C_4  and  C_5
REMARK    2  A    between atoms: C_7  and  C_8
REMARK    3  A    between atoms: C_8  and  N_9
REMARK                            x       y       z     vdW  Elec       q    Type
REMARK                         _______ _______ _______ _____ _____    ______ ____
ROOT
ATOM      1  C   UNL     1       1.208   9.043  19.684  0.00  0.00    +0.000 A 
ATOM      2  N   UNL     1       1.646   7.817  19.502  0.00  0.00    +0.000 NA
ATOM      3  C   UNL     1       2.361   7.885  18.335  0.00  0.00    +0.000 A 
ATOM      4  C   UNL     1       2.218   9.143  17.789  0.00  0.00    +0.000 A 
ATOM      5  O   UNL     1       1.482   9.899  18.650  0.00  0.00    +0.000 OA
ENDROOT
BRANCH   1   9
ATOM      6  C   UNL     1      -0.796  10.633  23.088  0.00  0.00    +0.000 A 
ATOM      7  C   UNL     1      -0.887  11.267  21.852  0.00  0.00    +0.000 A 
ATOM      8  C   UNL     1      -0.186  10.763  20.760  0.00  0.00    +0.000 A 
ATOM      9  C   UNL     1       0.611   9.611  20.888  0.00  0.00    +0.000 A 
ATOM     10  C   UNL     1       0.711   8.994  22.140  0.00  0.00    +0.000 A 
ATOM     11  C   UNL     1       0.009   9.504  23.235  0.00  0.00    +0.000 A 
ENDBRANCH   1   9
BRANCH   3  12
ATOM     12  C   UNL     1       3.241   6.774  17.861  0.00  0.00    +0.000 C 
BRANCH  12  13
ATOM     13  N   UNL     1       4.180   6.294  18.901  0.00  0.00    +0.000 NA
ATOM     14  C   UNL     1       5.392   5.698  18.316  0.00  0.00    +0.000 C 
ATOM     15  C   UNL     1       5.232   4.246  17.810  0.00  0.00    +0.000 C 
ATOM     16  O   UNL     1       3.886   3.753  17.783  0.00  0.00    +0.000 OA
ATOM     17  C   UNL     1       3.107   3.988  18.979  0.00  0.00    +0.000 C 
ATOM     18  C   UNL     1       3.101   2.708  19.845  0.00  0.00    +0.000 C 
ATOM     19  C   UNL     1       1.698   2.101  19.736  0.00  0.00    +0.000 C 
ATOM     20  C   UNL     1       1.077   2.734  18.510  0.00  0.00    +0.000 C 
ATOM     21  C   UNL     1       1.638   4.141  18.524  0.00  0.00    +0.000 C 
ATOM     22  C   UNL     1       3.584   5.247  19.754  0.00  0.00    +0.000 C 
ENDBRANCH  12  13
ENDBRANCH   3  12
TORSDOF 3
ENDMDL
