MODEL 1
REMARK VINA RESULT:      -8.2      0.000      0.000
REMARK  Name = 
REMARK  10 active torsions:
REMARK  status: ('A' for Active; 'I' for Inactive)
REMARK    1  A    between atoms: C_1  and  C_2
REMARK    2  A    between atoms: C_2  and  N_3
REMARK    3  A    between atoms: C_2  and  C_13
REMARK    4  A    between atoms: C_4  and  C_6
REMARK    5  A    between atoms: C_6  and  C_7
REMARK    6  A    between atoms: C_16  and  C_17
REMARK    7  A    between atoms: C_17  and  N_18
REMARK    8  A    between atoms: C_24  and  O_25
REMARK    9  A    between atoms: O_25  and  C_26
REMARK   10  A    between atoms: C_26  and  C_27
REMARK                            x       y       z     vdW  Elec       q    Type
REMARK                         _______ _______ _______ _____ _____    ______ ____
ROOT
ATOM      1  C   UNL     1       1.997   7.215  19.503  0.00  0.00    +0.000 A 
ATOM      2  C   UNL     1       2.165   7.876  18.276  0.00  0.00    +0.000 A 
ATOM      3  C   UNL     1       1.741   9.200  18.099  0.00  0.00    +0.000 A 
ATOM      4  C   UNL     1       1.131   9.910  19.142  0.00  0.00    +0.000 A 
ATOM      5  C   UNL     1       0.996   9.267  20.381  0.00  0.00    +0.000 A 
ATOM      6  C   UNL     1       1.429   7.942  20.560  0.00  0.00    +0.000 A 
ENDROOT
BRANCH   1   8
ATOM      7  C   UNL     1       2.163   5.139  21.001  0.00  0.00    +0.000 C 
ATOM      8  C   UNL     1       2.458   5.772  19.635  0.00  0.00    +0.000 C 
BRANCH   8   9
ATOM      9  N   UNL     1       3.875   5.651  19.308  0.00  0.00    +0.000 N 
ATOM     10  C   UNL     1       4.388   4.550  18.659  0.00  0.00    +0.000 C 
ATOM     11  O   UNL     1       3.671   3.626  18.260  0.00  0.00    +0.000 OA
ATOM     12  H   UNL     1       4.493   6.389  19.644  0.00  0.00    +0.000 HD
BRANCH  10  13
ATOM     13  C   UNL     1       5.889   4.563  18.430  0.00  0.00    +0.000 C 
BRANCH  13  14
ATOM     14  C   UNL     1       6.287   4.612  16.993  0.00  0.00    +0.000 A 
ATOM     15  C   UNL     1       5.818   3.714  16.043  0.00  0.00    +0.000 A 
ATOM     16  N   UNL     1       6.145   3.773  14.729  0.00  0.00    +0.000 NA
ATOM     17  C   UNL     1       6.973   4.768  14.380  0.00  0.00    +0.000 A 
ATOM     18  N   UNL     1       7.495   5.691  15.196  0.00  0.00    +0.000 NA
ATOM     19  C   UNL     1       7.132   5.583  16.493  0.00  0.00    +0.000 A 
ENDBRANCH  13  14
ENDBRANCH  10  13
ENDBRANCH   8   9
ENDBRANCH   1   8
BRANCH   4  20
ATOM     20  C   UNL     1       0.706  11.353  18.947  0.00  0.00    +0.000 C 
BRANCH  20  21
ATOM     21  N   UNL     1       1.677  12.385  19.266  0.00  0.00    +0.000 NA
ATOM     22  C   UNL     1       1.365  13.377  20.286  0.00  0.00    +0.000 C 
ATOM     23  C   UNL     1       2.715  13.914  20.853  0.00  0.00    +0.000 C 
ATOM     24  O   UNL     1       2.911  14.128  22.042  0.00  0.00    +0.000 OA
ATOM     25  C   UNL     1       3.676  14.369  19.804  0.00  0.00    +0.000 A 
ATOM     26  C   UNL     1       4.662  15.319  20.061  0.00  0.00    +0.000 A 
ATOM     27  C   UNL     1       4.858  16.347  19.147  0.00  0.00    +0.000 A 
ATOM     28  C   UNL     1       3.975  16.445  18.067  0.00  0.00    +0.000 A 
ATOM     29  C   UNL     1       3.162  15.344  17.722  0.00  0.00    +0.000 A 
ATOM     30  C   UNL     1       3.164  14.206  18.530  0.00  0.00    +0.000 A 
ATOM     31  C   UNL     1       2.591  12.841  18.231  0.00  0.00    +0.000 C 
BRANCH  27  32
ATOM     32  O   UNL     1       5.930  17.139  19.431  0.00  0.00    +0.000 OA
BRANCH  32  33
ATOM     33  C   UNL     1       7.240  16.608  19.583  0.00  0.00    +0.000 C 
BRANCH  33  34
ATOM     34  C   UNL     1       7.658  16.039  18.243  0.00  0.00    +0.000 C 
ATOM     35  C   UNL     1       9.119  15.838  17.912  0.00  0.00    +0.000 C 
ATOM     36  C   UNL     1       8.225  14.644  18.091  0.00  0.00    +0.000 C 
ENDBRANCH  33  34
ENDBRANCH  32  33
ENDBRANCH  27  32
ENDBRANCH  20  21
ENDBRANCH   4  20
TORSDOF 9
ENDMDL
MODEL 2
REMARK VINA RESULT:      -7.9      4.381      6.968
REMARK  Name = 
REMARK  10 active torsions:
REMARK  status: ('A' for Active; 'I' for Inactive)
REMARK    1  A    between atoms: C_1  and  C_2
REMARK    2  A    between atoms: C_2  and  N_3
REMARK    3  A    between atoms: C_2  and  C_13
REMARK    4  A    between atoms: C_4  and  C_6
REMARK    5  A    between atoms: C_6  and  C_7
REMARK    6  A    between atoms: C_16  and  C_17
REMARK    7  A    between atoms: C_17  and  N_18
REMARK    8  A    between atoms: C_24  and  O_25
REMARK    9  A    between atoms: O_25  and  C_26
REMARK   10  A    between atoms: C_26  and  C_27
REMARK                            x       y       z     vdW  Elec       q    Type
REMARK                         _______ _______ _______ _____ _____    ______ ____
ROOT
ATOM      1  C   UNL     1       2.134   7.146  19.357  0.00  0.00    +0.000 A 
ATOM      2  C   UNL     1       2.278   7.896  18.179  0.00  0.00    +0.000 A 
ATOM      3  C   UNL     1       1.841   9.225  18.105  0.00  0.00    +0.000 A 
ATOM      4  C   UNL     1       1.241   9.852  19.207  0.00  0.00    +0.000 A 
ATOM      5  C   UNL     1       1.131   9.119  20.397  0.00  0.00    +0.000 A 
ATOM      6  C   UNL     1       1.578   7.789  20.472  0.00  0.00    +0.000 A 
ENDROOT
BRANCH   1   8
ATOM      7  C   UNL     1       2.387   4.983  20.712  0.00  0.00    +0.000 C 
ATOM      8  C   UNL     1       2.610   5.702  19.375  0.00  0.00    +0.000 C 
BRANCH   8   9
ATOM      9  N   UNL     1       4.009   5.613  18.971  0.00  0.00    +0.000 N 
ATOM     10  C   UNL     1       4.640   4.406  18.766  0.00  0.00    +0.000 C 
ATOM     11  O   UNL     1       4.043   3.327  18.853  0.00  0.00    +0.000 OA
ATOM     12  H   UNL     1       4.531   6.487  18.913  0.00  0.00    +0.000 HD
BRANCH  10  13
ATOM     13  C   UNL     1       6.108   4.488  18.388  0.00  0.00    +0.000 C 
BRANCH  13  14
ATOM     14  C   UNL     1       6.356   4.569  16.919  0.00  0.00    +0.000 A 
ATOM     15  C   UNL     1       5.583   3.899  15.980  0.00  0.00    +0.000 A 
ATOM     16  N   UNL     1       5.779   3.996  14.642  0.00  0.00    +0.000 NA
ATOM     17  C   UNL     1       6.788   4.789  14.257  0.00  0.00    +0.000 A 
ATOM     18  N   UNL     1       7.604   5.483  15.059  0.00  0.00    +0.000 NA
ATOM     19  C   UNL     1       7.361   5.349  16.382  0.00  0.00    +0.000 A 
ENDBRANCH  13  14
ENDBRANCH  10  13
ENDBRANCH   8   9
ENDBRANCH   1   8
BRANCH   4  20
ATOM     20  C   UNL     1       0.802  11.302  19.124  0.00  0.00    +0.000 C 
BRANCH  20  21
ATOM     21  N   UNL     1      -0.367  11.691  19.892  0.00  0.00    +0.000 NA
ATOM     22  C   UNL     1      -1.347  12.595  19.307  0.00  0.00    +0.000 C 
ATOM     23  C   UNL     1      -2.710  12.345  20.021  0.00  0.00    +0.000 C 
ATOM     24  O   UNL     1      -3.784  12.308  19.435  0.00  0.00    +0.000 OA
ATOM     25  C   UNL     1      -2.631  12.382  21.512  0.00  0.00    +0.000 A 
ATOM     26  C   UNL     1      -3.729  12.700  22.308  0.00  0.00    +0.000 A 
ATOM     27  C   UNL     1      -3.561  13.594  23.359  0.00  0.00    +0.000 A 
ATOM     28  C   UNL     1      -2.319  14.222  23.496  0.00  0.00    +0.000 A 
ATOM     29  C   UNL     1      -1.189  13.698  22.832  0.00  0.00    +0.000 A 
ATOM     30  C   UNL     1      -1.342  12.625  21.953  0.00  0.00    +0.000 A 
ATOM     31  C   UNL     1      -0.272  11.752  21.343  0.00  0.00    +0.000 C 
BRANCH  27  32
ATOM     32  O   UNL     1      -4.664  13.729  24.148  0.00  0.00    +0.000 OA
BRANCH  32  33
ATOM     33  C   UNL     1      -5.551  12.646  24.394  0.00  0.00    +0.000 C 
BRANCH  33  34
ATOM     34  C   UNL     1      -6.958  13.143  24.127  0.00  0.00    +0.000 C 
ATOM     35  C   UNL     1      -7.325  13.736  22.786  0.00  0.00    +0.000 C 
ATOM     36  C   UNL     1      -7.915  12.420  23.204  0.00  0.00    +0.000 C 
ENDBRANCH  33  34
ENDBRANCH  32  33
ENDBRANCH  27  32
ENDBRANCH  20  21
ENDBRANCH   4  20
TORSDOF 9
ENDMDL
MODEL 3
REMARK VINA RESULT:      -7.9      4.498      6.483
REMARK  Name = 
REMARK  10 active torsions:
REMARK  status: ('A' for Active; 'I' for Inactive)
REMARK    1  A    between atoms: C_1  and  C_2
REMARK    2  A    between atoms: C_2  and  N_3
REMARK    3  A    between atoms: C_2  and  C_13
REMARK    4  A    between atoms: C_4  and  C_6
REMARK    5  A    between atoms: C_6  and  C_7
REMARK    6  A    between atoms: C_16  and  C_17
REMARK    7  A    between atoms: C_17  and  N_18
REMARK    8  A    between atoms: C_24  and  O_25
REMARK    9  A    between atoms: O_25  and  C_26
REMARK   10  A    between atoms: C_26  and  C_27
REMARK                            x       y       z     vdW  Elec       q    Type
REMARK                         _______ _______ _______ _____ _____    ______ ____
ROOT
ATOM      1  C   UNL     1       1.965   6.633  19.400  0.00  0.00    +0.000 A 
ATOM      2  C   UNL     1       2.213   7.272  18.175  0.00  0.00    +0.000 A 
ATOM      3  C   UNL     1       1.970   8.641  18.006  0.00  0.00    +0.000 A 
ATOM      4  C   UNL     1       1.466   9.421  19.057  0.00  0.00    +0.000 A 
ATOM      5  C   UNL     1       1.253   8.796  20.293  0.00  0.00    +0.000 A 
ATOM      6  C   UNL     1       1.506   7.424  20.464  0.00  0.00    +0.000 A 
ENDROOT
BRANCH   1   8
ATOM      7  C   UNL     1       2.400   4.648  20.965  0.00  0.00    +0.000 C 
ATOM      8  C   UNL     1       2.229   5.140  19.522  0.00  0.00    +0.000 C 
BRANCH   8   9
ATOM      9  N   UNL     1       3.375   4.750  18.707  0.00  0.00    +0.000 N 
ATOM     10  C   UNL     1       3.249   3.938  17.602  0.00  0.00    +0.000 C 
ATOM     11  O   UNL     1       2.150   3.540  17.198  0.00  0.00    +0.000 OA
ATOM     12  H   UNL     1       4.296   5.047  19.029  0.00  0.00    +0.000 HD
BRANCH  10  13
ATOM     13  C   UNL     1       4.543   3.595  16.888  0.00  0.00    +0.000 C 
BRANCH  13  14
ATOM     14  C   UNL     1       5.568   4.679  16.928  0.00  0.00    +0.000 A 
ATOM     15  C   UNL     1       5.414   5.895  16.277  0.00  0.00    +0.000 A 
ATOM     16  N   UNL     1       6.323   6.899  16.338  0.00  0.00    +0.000 NA
ATOM     17  C   UNL     1       7.415   6.651  17.075  0.00  0.00    +0.000 A 
ATOM     18  N   UNL     1       7.683   5.524  17.745  0.00  0.00    +0.000 NA
ATOM     19  C   UNL     1       6.741   4.560  17.649  0.00  0.00    +0.000 A 
ENDBRANCH  13  14
ENDBRANCH  10  13
ENDBRANCH   8   9
ENDBRANCH   1   8
BRANCH   4  20
ATOM     20  C   UNL     1       1.237  10.910  18.870  0.00  0.00    +0.000 C 
BRANCH  20  21
ATOM     21  N   UNL     1      -0.067  11.436  19.229  0.00  0.00    +0.000 NA
ATOM     22  C   UNL     1      -0.927  11.998  18.198  0.00  0.00    +0.000 C 
ATOM     23  C   UNL     1      -2.400  11.892  18.697  0.00  0.00    +0.000 C 
ATOM     24  O   UNL     1      -3.336  11.566  17.978  0.00  0.00    +0.000 OA
ATOM     25  C   UNL     1      -2.619  12.442  20.068  0.00  0.00    +0.000 A 
ATOM     26  C   UNL     1      -3.859  12.916  20.490  0.00  0.00    +0.000 A 
ATOM     27  C   UNL     1      -3.918  14.125  21.173  0.00  0.00    +0.000 A 
ATOM     28  C   UNL     1      -2.739  14.867  21.301  0.00  0.00    +0.000 A 
ATOM     29  C   UNL     1      -1.491  14.247  21.078  0.00  0.00    +0.000 A 
ATOM     30  C   UNL     1      -1.448  12.929  20.620  0.00  0.00    +0.000 A 
ATOM     31  C   UNL     1      -0.263  11.995  20.558  0.00  0.00    +0.000 C 
BRANCH  27  32
ATOM     32  O   UNL     1      -5.158  14.426  21.652  0.00  0.00    +0.000 OA
BRANCH  32  33
ATOM     33  C   UNL     1      -5.490  14.286  23.026  0.00  0.00    +0.000 C 
BRANCH  33  34
ATOM     34  C   UNL     1      -5.118  12.877  23.442  0.00  0.00    +0.000 C 
ATOM     35  C   UNL     1      -3.835  12.607  24.193  0.00  0.00    +0.000 C 
ATOM     36  C   UNL     1      -5.156  12.415  24.882  0.00  0.00    +0.000 C 
ENDBRANCH  33  34
ENDBRANCH  32  33
ENDBRANCH  27  32
ENDBRANCH  20  21
ENDBRANCH   4  20
TORSDOF 9
ENDMDL
MODEL 4
REMARK VINA RESULT:      -7.7      1.369      1.927
REMARK  Name = 
REMARK  10 active torsions:
REMARK  status: ('A' for Active; 'I' for Inactive)
REMARK    1  A    between atoms: C_1  and  C_2
REMARK    2  A    between atoms: C_2  and  N_3
REMARK    3  A    between atoms: C_2  and  C_13
REMARK    4  A    between atoms: C_4  and  C_6
REMARK    5  A    between atoms: C_6  and  C_7
REMARK    6  A    between atoms: C_16  and  C_17
REMARK    7  A    between atoms: C_17  and  N_18
REMARK    8  A    between atoms: C_24  and  O_25
REMARK    9  A    between atoms: O_25  and  C_26
REMARK   10  A    between atoms: C_26  and  C_27
REMARK                            x       y       z     vdW  Elec       q    Type
REMARK                         _______ _______ _______ _____ _____    ______ ____
ROOT
ATOM      1  C   UNL     1       2.076   7.193  19.213  0.00  0.00    +0.000 A 
ATOM      2  C   UNL     1       1.517   7.833  20.331  0.00  0.00    +0.000 A 
ATOM      3  C   UNL     1       1.123   9.176  20.278  0.00  0.00    +0.000 A 
ATOM      4  C   UNL     1       1.278   9.931  19.107  0.00  0.00    +0.000 A 
ATOM      5  C   UNL     1       1.800   9.285  17.977  0.00  0.00    +0.000 A 
ATOM      6  C   UNL     1       2.186   7.935  18.028  0.00  0.00    +0.000 A 
ENDROOT
BRANCH   1   8
ATOM      7  C   UNL     1       2.562   5.216  20.773  0.00  0.00    +0.000 C 
ATOM      8  C   UNL     1       2.502   5.738  19.332  0.00  0.00    +0.000 C 
BRANCH   8   9
ATOM      9  N   UNL     1       3.774   5.515  18.652  0.00  0.00    +0.000 N 
ATOM     10  C   UNL     1       3.917   4.584  17.648  0.00  0.00    +0.000 C 
ATOM     11  O   UNL     1       2.964   3.924  17.220  0.00  0.00    +0.000 OA
ATOM     12  H   UNL     1       4.582   6.032  19.000  0.00  0.00    +0.000 HD
BRANCH  10  13
ATOM     13  C   UNL     1       5.315   4.449  17.072  0.00  0.00    +0.000 C 
BRANCH  13  14
ATOM     14  C   UNL     1       6.255   5.530  17.491  0.00  0.00    +0.000 A 
ATOM     15  C   UNL     1       7.142   5.398  18.551  0.00  0.00    +0.000 A 
ATOM     16  N   UNL     1       8.024   6.361  18.915  0.00  0.00    +0.000 NA
ATOM     17  C   UNL     1       7.993   7.484  18.184  0.00  0.00    +0.000 A 
ATOM     18  N   UNL     1       7.187   7.735  17.145  0.00  0.00    +0.000 NA
ATOM     19  C   UNL     1       6.332   6.739  16.827  0.00  0.00    +0.000 A 
ENDBRANCH  13  14
ENDBRANCH  10  13
ENDBRANCH   8   9
ENDBRANCH   1   8
BRANCH   4  20
ATOM     20  C   UNL     1       0.818  11.375  19.053  0.00  0.00    +0.000 C 
BRANCH  20  21
ATOM     21  N   UNL     1       1.815  12.404  19.293  0.00  0.00    +0.000 NA
ATOM     22  C   UNL     1       1.662  13.307  20.424  0.00  0.00    +0.000 C 
ATOM     23  C   UNL     1       3.078  13.833  20.807  0.00  0.00    +0.000 C 
ATOM     24  O   UNL     1       3.463  13.960  21.962  0.00  0.00    +0.000 OA
ATOM     25  C   UNL     1       3.851  14.390  19.657  0.00  0.00    +0.000 A 
ATOM     26  C   UNL     1       4.855  15.342  19.826  0.00  0.00    +0.000 A 
ATOM     27  C   UNL     1       4.886  16.441  18.976  0.00  0.00    +0.000 A 
ATOM     28  C   UNL     1       3.839  16.598  18.064  0.00  0.00    +0.000 A 
ATOM     29  C   UNL     1       2.994  15.507  17.768  0.00  0.00    +0.000 A 
ATOM     30  C   UNL     1       3.140  14.311  18.473  0.00  0.00    +0.000 A 
ATOM     31  C   UNL     1       2.544  12.960  18.163  0.00  0.00    +0.000 C 
BRANCH  27  32
ATOM     32  O   UNL     1       5.981  17.235  19.145  0.00  0.00    +0.000 OA
BRANCH  32  33
ATOM     33  C   UNL     1       7.261  16.871  18.646  0.00  0.00    +0.000 C 
BRANCH  33  34
ATOM     34  C   UNL     1       8.276  17.182  19.727  0.00  0.00    +0.000 C 
ATOM     35  C   UNL     1       7.932  16.990  21.187  0.00  0.00    +0.000 C 
ATOM     36  C   UNL     1       8.958  16.103  20.540  0.00  0.00    +0.000 C 
ENDBRANCH  33  34
ENDBRANCH  32  33
ENDBRANCH  27  32
ENDBRANCH  20  21
ENDBRANCH   4  20
TORSDOF 9
ENDMDL
MODEL 5
REMARK VINA RESULT:      -7.6      3.536      6.107
REMARK  Name = 
REMARK  10 active torsions:
REMARK  status: ('A' for Active; 'I' for Inactive)
REMARK    1  A    between atoms: C_1  and  C_2
REMARK    2  A    between atoms: C_2  and  N_3
REMARK    3  A    between atoms: C_2  and  C_13
REMARK    4  A    between atoms: C_4  and  C_6
REMARK    5  A    between atoms: C_6  and  C_7
REMARK    6  A    between atoms: C_16  and  C_17
REMARK    7  A    between atoms: C_17  and  N_18
REMARK    8  A    between atoms: C_24  and  O_25
REMARK    9  A    between atoms: O_25  and  C_26
REMARK   10  A    between atoms: C_26  and  C_27
REMARK                            x       y       z     vdW  Elec       q    Type
REMARK                         _______ _______ _______ _____ _____    ______ ____
ROOT
ATOM      1  C   UNL     1       2.174   7.003  19.399  0.00  0.00    +0.000 A 
ATOM      2  C   UNL     1       2.485   7.615  18.174  0.00  0.00    +0.000 A 
ATOM      3  C   UNL     1       2.125   8.943  17.913  0.00  0.00    +0.000 A 
ATOM      4  C   UNL     1       1.437   9.708  18.866  0.00  0.00    +0.000 A 
ATOM      5  C   UNL     1       1.158   9.113  20.104  0.00  0.00    +0.000 A 
ATOM      6  C   UNL     1       1.528   7.783  20.369  0.00  0.00    +0.000 A 
ENDROOT
BRANCH   1   8
ATOM      7  C   UNL     1       2.228   5.014  21.017  0.00  0.00    +0.000 C 
ATOM      8  C   UNL     1       2.573   5.553  19.622  0.00  0.00    +0.000 C 
BRANCH   8   9
ATOM      9  N   UNL     1       3.989   5.356  19.332  0.00  0.00    +0.000 N 
ATOM     10  C   UNL     1       4.436   4.358  18.494  0.00  0.00    +0.000 C 
ATOM     11  O   UNL     1       3.661   3.609  17.889  0.00  0.00    +0.000 OA
ATOM     12  H   UNL     1       4.652   5.947  19.834  0.00  0.00    +0.000 HD
BRANCH  10  13
ATOM     13  C   UNL     1       5.942   4.265  18.330  0.00  0.00    +0.000 C 
BRANCH  13  14
ATOM     14  C   UNL     1       6.610   5.572  18.061  0.00  0.00    +0.000 A 
ATOM     15  C   UNL     1       6.247   6.408  17.013  0.00  0.00    +0.000 A 
ATOM     16  N   UNL     1       6.823   7.614  16.783  0.00  0.00    +0.000 NA
ATOM     17  C   UNL     1       7.793   7.968  17.637  0.00  0.00    +0.000 A 
ATOM     18  N   UNL     1       8.235   7.253  18.679  0.00  0.00    +0.000 NA
ATOM     19  C   UNL     1       7.623   6.063  18.860  0.00  0.00    +0.000 A 
ENDBRANCH  13  14
ENDBRANCH  10  13
ENDBRANCH   8   9
ENDBRANCH   1   8
BRANCH   4  20
ATOM     20  C   UNL     1       1.080  11.155  18.582  0.00  0.00    +0.000 C 
BRANCH  20  21
ATOM     21  N   UNL     1       0.587  11.952  19.691  0.00  0.00    +0.000 NA
ATOM     22  C   UNL     1       1.446  12.196  20.841  0.00  0.00    +0.000 C 
ATOM     23  C   UNL     1       0.961  13.511  21.525  0.00  0.00    +0.000 C 
ATOM     24  O   UNL     1       1.721  14.365  21.961  0.00  0.00    +0.000 OA
ATOM     25  C   UNL     1      -0.503  13.541  21.814  0.00  0.00    +0.000 A 
ATOM     26  C   UNL     1      -1.044  14.324  22.832  0.00  0.00    +0.000 A 
ATOM     27  C   UNL     1      -1.990  13.761  23.681  0.00  0.00    +0.000 A 
ATOM     28  C   UNL     1      -2.268  12.397  23.544  0.00  0.00    +0.000 A 
ATOM     29  C   UNL     1      -1.887  11.717  22.368  0.00  0.00    +0.000 A 
ATOM     30  C   UNL     1      -1.134  12.382  21.399  0.00  0.00    +0.000 A 
ATOM     31  C   UNL     1      -0.838  11.954  19.982  0.00  0.00    +0.000 C 
BRANCH  27  32
ATOM     32  O   UNL     1      -2.546  14.650  24.551  0.00  0.00    +0.000 OA
BRANCH  32  33
ATOM     33  C   UNL     1      -3.485  15.630  24.130  0.00  0.00    +0.000 C 
BRANCH  33  34
ATOM     34  C   UNL     1      -4.789  14.916  23.843  0.00  0.00    +0.000 C 
ATOM     35  C   UNL     1      -6.037  15.697  23.497  0.00  0.00    +0.000 C 
ATOM     36  C   UNL     1      -5.385  14.835  22.454  0.00  0.00    +0.000 C 
ENDBRANCH  33  34
ENDBRANCH  32  33
ENDBRANCH  27  32
ENDBRANCH  20  21
ENDBRANCH   4  20
TORSDOF 9
ENDMDL
MODEL 6
REMARK VINA RESULT:      -7.6      4.467     10.954
REMARK  Name = 
REMARK  10 active torsions:
REMARK  status: ('A' for Active; 'I' for Inactive)
REMARK    1  A    between atoms: C_1  and  C_2
REMARK    2  A    between atoms: C_2  and  N_3
REMARK    3  A    between atoms: C_2  and  C_13
REMARK    4  A    between atoms: C_4  and  C_6
REMARK    5  A    between atoms: C_6  and  C_7
REMARK    6  A    between atoms: C_16  and  C_17
REMARK    7  A    between atoms: C_17  and  N_18
REMARK    8  A    between atoms: C_24  and  O_25
REMARK    9  A    between atoms: O_25  and  C_26
REMARK   10  A    between atoms: C_26  and  C_27
REMARK                            x       y       z     vdW  Elec       q    Type
REMARK                         _______ _______ _______ _____ _____    ______ ____
ROOT
ATOM      1  C   UNL     1       1.074   8.791  19.936  0.00  0.00    +0.000 A 
ATOM      2  C   UNL     1       1.962   8.485  18.892  0.00  0.00    +0.000 A 
ATOM      3  C   UNL     1       2.710   7.300  18.898  0.00  0.00    +0.000 A 
ATOM      4  C   UNL     1       2.601   6.380  19.950  0.00  0.00    +0.000 A 
ATOM      5  C   UNL     1       1.688   6.664  20.976  0.00  0.00    +0.000 A 
ATOM      6  C   UNL     1       0.931   7.847  20.964  0.00  0.00    +0.000 A 
ENDROOT
BRANCH   1   8
ATOM      7  C   UNL     1       0.940  11.176  19.002  0.00  0.00    +0.000 C 
ATOM      8  C   UNL     1       0.300  10.099  19.888  0.00  0.00    +0.000 C 
BRANCH   8   9
ATOM      9  N   UNL     1       0.068  10.612  21.234  0.00  0.00    +0.000 N 
ATOM     10  C   UNL     1      -0.986  11.446  21.531  0.00  0.00    +0.000 C 
ATOM     11  O   UNL     1      -1.836  11.761  20.690  0.00  0.00    +0.000 OA
ATOM     12  H   UNL     1       0.766  10.385  21.944  0.00  0.00    +0.000 HD
BRANCH  10  13
ATOM     13  C   UNL     1      -1.061  11.922  22.971  0.00  0.00    +0.000 C 
BRANCH  13  14
ATOM     14  C   UNL     1      -2.197  12.849  23.249  0.00  0.00    +0.000 A 
ATOM     15  C   UNL     1      -2.133  14.219  23.026  0.00  0.00    +0.000 A 
ATOM     16  N   UNL     1      -3.172  15.063  23.241  0.00  0.00    +0.000 NA
ATOM     17  C   UNL     1      -4.297  14.496  23.699  0.00  0.00    +0.000 A 
ATOM     18  N   UNL     1      -4.484  13.196  23.957  0.00  0.00    +0.000 NA
ATOM     19  C   UNL     1      -3.416  12.403  23.722  0.00  0.00    +0.000 A 
ENDBRANCH  13  14
ENDBRANCH  10  13
ENDBRANCH   8   9
ENDBRANCH   1   8
BRANCH   4  20
ATOM     20  C   UNL     1       3.394   5.087  19.929  0.00  0.00    +0.000 C 
BRANCH  20  21
ATOM     21  N   UNL     1       4.350   4.907  18.851  0.00  0.00    +0.000 NA
ATOM     22  C   UNL     1       5.683   5.482  18.966  0.00  0.00    +0.000 C 
ATOM     23  C   UNL     1       6.638   4.653  18.055  0.00  0.00    +0.000 C 
ATOM     24  O   UNL     1       7.772   4.329  18.382  0.00  0.00    +0.000 OA
ATOM     25  C   UNL     1       6.146   4.480  16.656  0.00  0.00    +0.000 A 
ATOM     26  C   UNL     1       7.009   4.255  15.586  0.00  0.00    +0.000 A 
ATOM     27  C   UNL     1       6.821   4.972  14.410  0.00  0.00    +0.000 A 
ATOM     28  C   UNL     1       5.844   5.972  14.397  0.00  0.00    +0.000 A 
ATOM     29  C   UNL     1       4.852   5.997  15.400  0.00  0.00    +0.000 A 
ATOM     30  C   UNL     1       4.921   5.094  16.462  0.00  0.00    +0.000 A 
ATOM     31  C   UNL     1       3.862   4.767  17.488  0.00  0.00    +0.000 C 
BRANCH  27  32
ATOM     32  O   UNL     1       7.635   4.578  13.390  0.00  0.00    +0.000 OA
BRANCH  32  33
ATOM     33  C   UNL     1       7.121   4.139  12.141  0.00  0.00    +0.000 C 
BRANCH  33  34
ATOM     34  C   UNL     1       5.972   3.194  12.429  0.00  0.00    +0.000 C 
ATOM     35  C   UNL     1       4.652   3.341  11.707  0.00  0.00    +0.000 C 
ATOM     36  C   UNL     1       5.516   2.141  11.443  0.00  0.00    +0.000 C 
ENDBRANCH  33  34
ENDBRANCH  32  33
ENDBRANCH  27  32
ENDBRANCH  20  21
ENDBRANCH   4  20
TORSDOF 9
ENDMDL
MODEL 7
REMARK VINA RESULT:      -7.6      2.936     10.005
REMARK  Name = 
REMARK  10 active torsions:
REMARK  status: ('A' for Active; 'I' for Inactive)
REMARK    1  A    between atoms: C_1  and  C_2
REMARK    2  A    between atoms: C_2  and  N_3
REMARK    3  A    between atoms: C_2  and  C_13
REMARK    4  A    between atoms: C_4  and  C_6
REMARK    5  A    between atoms: C_6  and  C_7
REMARK    6  A    between atoms: C_16  and  C_17
REMARK    7  A    between atoms: C_17  and  N_18
REMARK    8  A    between atoms: C_24  and  O_25
REMARK    9  A    between atoms: O_25  and  C_26
REMARK   10  A    between atoms: C_26  and  C_27
REMARK                            x       y       z     vdW  Elec       q    Type
REMARK                         _______ _______ _______ _____ _____    ______ ____
ROOT
ATOM      1  C   UNL     1       0.053  11.014  20.160  0.00  0.00    +0.000 A 
ATOM      2  C   UNL     1      -0.328  10.331  21.326  0.00  0.00    +0.000 A 
ATOM      3  C   UNL     1       0.112   9.025  21.580  0.00  0.00    +0.000 A 
ATOM      4  C   UNL     1       0.946   8.353  20.676  0.00  0.00    +0.000 A 
ATOM      5  C   UNL     1       1.359   9.045  19.529  0.00  0.00    +0.000 A 
ATOM      6  C   UNL     1       0.926  10.358  19.279  0.00  0.00    +0.000 A 
ENDROOT
BRANCH   1   8
ATOM      7  C   UNL     1      -1.205  12.607  18.592  0.00  0.00    +0.000 C 
ATOM      8  C   UNL     1      -0.468  12.423  19.925  0.00  0.00    +0.000 C 
BRANCH   8   9
ATOM      9  N   UNL     1       0.607  13.400  20.056  0.00  0.00    +0.000 N 
ATOM     10  C   UNL     1       0.945  13.964  21.267  0.00  0.00    +0.000 C 
ATOM     11  O   UNL     1       0.399  13.630  22.324  0.00  0.00    +0.000 OA
ATOM     12  H   UNL     1       1.061  13.709  19.196  0.00  0.00    +0.000 HD
BRANCH  10  13
ATOM     13  C   UNL     1       2.060  14.993  21.224  0.00  0.00    +0.000 C 
BRANCH  13  14
ATOM     14  C   UNL     1       2.629  15.220  19.863  0.00  0.00    +0.000 A 
ATOM     15  C   UNL     1       3.560  14.371  19.278  0.00  0.00    +0.000 A 
ATOM     16  N   UNL     1       4.054  14.549  18.028  0.00  0.00    +0.000 NA
ATOM     17  C   UNL     1       3.593  15.620  17.366  0.00  0.00    +0.000 A 
ATOM     18  N   UNL     1       2.703  16.511  17.819  0.00  0.00    +0.000 NA
ATOM     19  C   UNL     1       2.244  16.282  19.069  0.00  0.00    +0.000 A 
ENDBRANCH  13  14
ENDBRANCH  10  13
ENDBRANCH   8   9
ENDBRANCH   1   8
BRANCH   4  20
ATOM     20  C   UNL     1       1.440   6.951  20.979  0.00  0.00    +0.000 C 
BRANCH  20  21
ATOM     21  N   UNL     1       2.074   6.217  19.898  0.00  0.00    +0.000 NA
ATOM     22  C   UNL     1       1.876   4.779  19.790  0.00  0.00    +0.000 C 
ATOM     23  C   UNL     1       2.099   4.379  18.300  0.00  0.00    +0.000 C 
ATOM     24  O   UNL     1       1.396   3.573  17.704  0.00  0.00    +0.000 OA
ATOM     25  C   UNL     1       3.378   4.885  17.720  0.00  0.00    +0.000 A 
ATOM     26  C   UNL     1       4.010   4.254  16.650  0.00  0.00    +0.000 A 
ATOM     27  C   UNL     1       5.383   4.043  16.711  0.00  0.00    +0.000 A 
ATOM     28  C   UNL     1       6.046   4.369  17.897  0.00  0.00    +0.000 A 
ATOM     29  C   UNL     1       5.424   5.212  18.842  0.00  0.00    +0.000 A 
ATOM     30  C   UNL     1       4.105   5.621  18.638  0.00  0.00    +0.000 A 
ATOM     31  C   UNL     1       3.335   6.702  19.358  0.00  0.00    +0.000 C 
BRANCH  27  32
ATOM     32  O   UNL     1       5.913   3.541  15.560  0.00  0.00    +0.000 OA
BRANCH  32  33
ATOM     33  C   UNL     1       6.157   4.358  14.424  0.00  0.00    +0.000 C 
BRANCH  33  34
ATOM     34  C   UNL     1       6.385   3.437  13.243  0.00  0.00    +0.000 C 
ATOM     35  C   UNL     1       5.415   3.412  12.084  0.00  0.00    +0.000 C 
ATOM     36  C   UNL     1       6.804   3.946  11.880  0.00  0.00    +0.000 C 
ENDBRANCH  33  34
ENDBRANCH  32  33
ENDBRANCH  27  32
ENDBRANCH  20  21
ENDBRANCH   4  20
TORSDOF 9
ENDMDL
MODEL 8
REMARK VINA RESULT:      -7.4      2.659     10.256
REMARK  Name = 
REMARK  10 active torsions:
REMARK  status: ('A' for Active; 'I' for Inactive)
REMARK    1  A    between atoms: C_1  and  C_2
REMARK    2  A    between atoms: C_2  and  N_3
REMARK    3  A    between atoms: C_2  and  C_13
REMARK    4  A    between atoms: C_4  and  C_6
REMARK    5  A    between atoms: C_6  and  C_7
REMARK    6  A    between atoms: C_16  and  C_17
REMARK    7  A    between atoms: C_17  and  N_18
REMARK    8  A    between atoms: C_24  and  O_25
REMARK    9  A    between atoms: O_25  and  C_26
REMARK   10  A    between atoms: C_26  and  C_27
REMARK                            x       y       z     vdW  Elec       q    Type
REMARK                         _______ _______ _______ _____ _____    ______ ____
ROOT
ATOM      1  C   UNL     1       0.748  10.292  20.287  0.00  0.00    +0.000 A 
ATOM      2  C   UNL     1       0.863   9.624  21.517  0.00  0.00    +0.000 A 
ATOM      3  C   UNL     1       1.275   8.287  21.583  0.00  0.00    +0.000 A 
ATOM      4  C   UNL     1       1.585   7.567  20.420  0.00  0.00    +0.000 A 
ATOM      5  C   UNL     1       1.509   8.241  19.193  0.00  0.00    +0.000 A 
ATOM      6  C   UNL     1       1.103   9.585  19.129  0.00  0.00    +0.000 A 
ENDROOT
BRANCH   1   8
ATOM      7  C   UNL     1      -0.682  12.076  19.125  0.00  0.00    +0.000 C 
ATOM      8  C   UNL     1       0.278  11.738  20.273  0.00  0.00    +0.000 C 
BRANCH   8   9
ATOM      9  N   UNL     1       1.415  12.651  20.277  0.00  0.00    +0.000 N 
ATOM     10  C   UNL     1       1.503  13.714  21.150  0.00  0.00    +0.000 C 
ATOM     11  O   UNL     1       0.652  13.921  22.022  0.00  0.00    +0.000 OA
ATOM     12  H   UNL     1       2.122  12.516  19.553  0.00  0.00    +0.000 HD
BRANCH  10  13
ATOM     13  C   UNL     1       2.732  14.590  20.996  0.00  0.00    +0.000 C 
BRANCH  13  14
ATOM     14  C   UNL     1       2.749  15.405  19.746  0.00  0.00    +0.000 A 
ATOM     15  C   UNL     1       3.826  15.430  18.869  0.00  0.00    +0.000 A 
ATOM     16  N   UNL     1       3.835  16.138  17.713  0.00  0.00    +0.000 NA
ATOM     17  C   UNL     1       2.723  16.840  17.452  0.00  0.00    +0.000 A 
ATOM     18  N   UNL     1       1.625  16.902  18.214  0.00  0.00    +0.000 NA
ATOM     19  C   UNL     1       1.672  16.175  19.351  0.00  0.00    +0.000 A 
ENDBRANCH  13  14
ENDBRANCH  10  13
ENDBRANCH   8   9
ENDBRANCH   1   8
BRANCH   4  20
ATOM     20  C   UNL     1       2.062   6.129  20.507  0.00  0.00    +0.000 C 
BRANCH  20  21
ATOM     21  N   UNL     1       2.739   5.577  19.347  0.00  0.00    +0.000 NA
ATOM     22  C   UNL     1       2.695   4.143  19.101  0.00  0.00    +0.000 C 
ATOM     23  C   UNL     1       2.915   3.916  17.575  0.00  0.00    +0.000 C 
ATOM     24  O   UNL     1       2.286   3.099  16.915  0.00  0.00    +0.000 OA
ATOM     25  C   UNL     1       4.115   4.613  17.024  0.00  0.00    +0.000 A 
ATOM     26  C   UNL     1       4.779   4.163  15.885  0.00  0.00    +0.000 A 
ATOM     27  C   UNL     1       6.168   4.099  15.899  0.00  0.00    +0.000 A 
ATOM     28  C   UNL     1       6.827   4.381  17.099  0.00  0.00    +0.000 A 
ATOM     29  C   UNL     1       6.145   5.055  18.135  0.00  0.00    +0.000 A 
ATOM     30  C   UNL     1       4.784   5.334  17.997  0.00  0.00    +0.000 A 
ATOM     31  C   UNL     1       3.923   6.248  18.834  0.00  0.00    +0.000 C 
BRANCH  27  32
ATOM     32  O   UNL     1       6.715   3.772  14.695  0.00  0.00    +0.000 OA
BRANCH  32  33
ATOM     33  C   UNL     1       6.798   4.706  13.626  0.00  0.00    +0.000 C 
BRANCH  33  34
ATOM     34  C   UNL     1       6.520   3.952  12.342  0.00  0.00    +0.000 C 
ATOM     35  C   UNL     1       6.036   2.520  12.377  0.00  0.00    +0.000 C 
ATOM     36  C   UNL     1       5.118   3.605  11.888  0.00  0.00    +0.000 C 
ENDBRANCH  33  34
ENDBRANCH  32  33
ENDBRANCH  27  32
ENDBRANCH  20  21
ENDBRANCH   4  20
TORSDOF 9
ENDMDL
MODEL 9
REMARK VINA RESULT:      -7.4      3.414      6.299
REMARK  Name = 
REMARK  10 active torsions:
REMARK  status: ('A' for Active; 'I' for Inactive)
REMARK    1  A    between atoms: C_1  and  C_2
REMARK    2  A    between atoms: C_2  and  N_3
REMARK    3  A    between atoms: C_2  and  C_13
REMARK    4  A    between atoms: C_4  and  C_6
REMARK    5  A    between atoms: C_6  and  C_7
REMARK    6  A    between atoms: C_16  and  C_17
REMARK    7  A    between atoms: C_17  and  N_18
REMARK    8  A    between atoms: C_24  and  O_25
REMARK    9  A    between atoms: O_25  and  C_26
REMARK   10  A    between atoms: C_26  and  C_27
REMARK                            x       y       z     vdW  Elec       q    Type
REMARK                         _______ _______ _______ _____ _____    ______ ____
ROOT
ATOM      1  C   UNL     1       2.200   6.968  19.312  0.00  0.00    +0.000 A 
ATOM      2  C   UNL     1       1.613   7.789  20.288  0.00  0.00    +0.000 A 
ATOM      3  C   UNL     1       1.364   9.145  20.043  0.00  0.00    +0.000 A 
ATOM      4  C   UNL     1       1.696   9.732  18.814  0.00  0.00    +0.000 A 
ATOM      5  C   UNL     1       2.246   8.907  17.823  0.00  0.00    +0.000 A 
ATOM      6  C   UNL     1       2.488   7.544  18.066  0.00  0.00    +0.000 A 
ENDROOT
BRANCH   1   8
ATOM      7  C   UNL     1       2.133   5.114  21.084  0.00  0.00    +0.000 C 
ATOM      8  C   UNL     1       2.465   5.506  19.638  0.00  0.00    +0.000 C 
BRANCH   8   9
ATOM      9  N   UNL     1       3.840   5.145  19.310  0.00  0.00    +0.000 N 
ATOM     10  C   UNL     1       4.153   4.342  18.236  0.00  0.00    +0.000 C 
ATOM     11  O   UNL     1       3.294   3.930  17.448  0.00  0.00    +0.000 OA
ATOM     12  H   UNL     1       4.567   5.454  19.956  0.00  0.00    +0.000 HD
BRANCH  10  13
ATOM     13  C   UNL     1       5.628   4.029  18.059  0.00  0.00    +0.000 C 
BRANCH  13  14
ATOM     14  C   UNL     1       6.162   4.352  16.703  0.00  0.00    +0.000 A 
ATOM     15  C   UNL     1       7.019   5.416  16.457  0.00  0.00    +0.000 A 
ATOM     16  N   UNL     1       7.538   5.695  15.236  0.00  0.00    +0.000 NA
ATOM     17  C   UNL     1       7.166   4.872  14.245  0.00  0.00    +0.000 A 
ATOM     18  N   UNL     1       6.347   3.820  14.350  0.00  0.00    +0.000 NA
ATOM     19  C   UNL     1       5.863   3.590  15.591  0.00  0.00    +0.000 A 
ENDBRANCH  13  14
ENDBRANCH  10  13
ENDBRANCH   8   9
ENDBRANCH   1   8
BRANCH   4  20
ATOM     20  C   UNL     1       1.391  11.195  18.550  0.00  0.00    +0.000 C 
BRANCH  20  21
ATOM     21  N   UNL     1       0.695  11.931  19.591  0.00  0.00    +0.000 NA
ATOM     22  C   UNL     1       1.454  12.546  20.670  0.00  0.00    +0.000 C 
ATOM     23  C   UNL     1       0.607  13.727  21.233  0.00  0.00    +0.000 C 
ATOM     24  O   UNL     1       1.082  14.812  21.543  0.00  0.00    +0.000 OA
ATOM     25  C   UNL     1      -0.796  13.356  21.582  0.00  0.00    +0.000 A 
ATOM     26  C   UNL     1      -1.535  14.054  22.536  0.00  0.00    +0.000 A 
ATOM     27  C   UNL     1      -2.260  13.336  23.480  0.00  0.00    +0.000 A 
ATOM     28  C   UNL     1      -2.120  11.945  23.499  0.00  0.00    +0.000 A 
ATOM     29  C   UNL     1      -1.566  11.279  22.385  0.00  0.00    +0.000 A 
ATOM     30  C   UNL     1      -1.057  12.023  21.320  0.00  0.00    +0.000 A 
ATOM     31  C   UNL     1      -0.662  11.544  19.943  0.00  0.00    +0.000 C 
BRANCH  27  32
ATOM     32  O   UNL     1      -3.046  14.114  24.276  0.00  0.00    +0.000 OA
BRANCH  32  33
ATOM     33  C   UNL     1      -4.327  14.567  23.859  0.00  0.00    +0.000 C 
BRANCH  33  34
ATOM     34  C   UNL     1      -5.078  13.369  23.316  0.00  0.00    +0.000 C 
ATOM     35  C   UNL     1      -6.305  12.841  24.024  0.00  0.00    +0.000 C 
ATOM     36  C   UNL     1      -6.444  13.485  22.674  0.00  0.00    +0.000 C 
ENDBRANCH  33  34
ENDBRANCH  32  33
ENDBRANCH  27  32
ENDBRANCH  20  21
ENDBRANCH   4  20
TORSDOF 9
ENDMDL
