MODEL 1
REMARK VINA RESULT:      -7.5      0.000      0.000
REMARK  Name = 
REMARK  5 active torsions:
REMARK  status: ('A' for Active; 'I' for Inactive)
REMARK    1  A    between atoms: C_1  and  C_2
REMARK    2  A    between atoms: N_4  and  C_5
REMARK    3  A    between atoms: C_10  and  S_11
REMARK    4  A    between atoms: S_11  and  C_12
REMARK    5  A    between atoms: C_16  and  N_17
REMARK                            x       y       z     vdW  Elec       q    Type
REMARK                         _______ _______ _______ _____ _____    ______ ____
ROOT
ATOM      1  C   UNL     1       6.384   4.375  17.096  0.00  0.00    +0.000 A 
ATOM      2  C   UNL     1       7.705   4.654  17.479  0.00  0.00    +0.000 A 
ATOM      3  C   UNL     1       7.982   5.243  18.712  0.00  0.00    +0.000 A 
ATOM      4  C   UNL     1       6.943   5.557  19.579  0.00  0.00    +0.000 A 
ATOM      5  C   UNL     1       5.622   5.295  19.207  0.00  0.00    +0.000 A 
ATOM      6  C   UNL     1       5.326   4.707  17.965  0.00  0.00    +0.000 A 
ENDROOT
BRANCH   1  10
ATOM      7  C   UNL     1       6.053   3.700  13.405  0.00  0.00    +0.000 C 
ATOM      8  C   UNL     1       6.589   4.361  14.643  0.00  0.00    +0.000 C 
ATOM      9  O   UNL     1       7.406   5.280  14.563  0.00  0.00    +0.000 OA
ATOM     10  N   UNL     1       6.121   3.817  15.820  0.00  0.00    +0.000 N 
ATOM     11  H   UNL     1       5.870   2.829  15.793  0.00  0.00    +0.000 HD
ENDBRANCH   1  10
BRANCH   6  12
ATOM     12  S   UNL     1       3.607   4.449  17.531  0.00  0.00    +0.000 S 
BRANCH  12  13
ATOM     13  C   UNL     1       2.957   3.970  19.112  0.00  0.00    +0.000 A 
ATOM     14  S   UNL     1       1.748   4.955  19.849  0.00  0.00    +0.000 S 
ATOM     15  C   UNL     1       1.519   3.861  21.138  0.00  0.00    +0.000 A 
ATOM     16  C   UNL     1       2.358   2.778  21.039  0.00  0.00    +0.000 A 
ATOM     17  C   UNL     1       3.189   2.823  19.862  0.00  0.00    +0.000 A 
BRANCH  17  18
ATOM     18  N   UNL     1       4.109   1.758  19.528  0.00  0.00    +0.000 N 
ATOM     19  O   UNL     1       3.835   1.016  18.575  0.00  0.00    +0.000 OA
ATOM     20  O   UNL     1       5.113   1.650  20.243  0.00  0.00    +0.000 OA
ENDBRANCH  17  18
ENDBRANCH  12  13
ENDBRANCH   6  12
TORSDOF 4
ENDMDL
MODEL 2
REMARK VINA RESULT:      -7.2      2.867      6.282
REMARK  Name = 
REMARK  5 active torsions:
REMARK  status: ('A' for Active; 'I' for Inactive)
REMARK    1  A    between atoms: C_1  and  C_2
REMARK    2  A    between atoms: N_4  and  C_5
REMARK    3  A    between atoms: C_10  and  S_11
REMARK    4  A    between atoms: S_11  and  C_12
REMARK    5  A    between atoms: C_16  and  N_17
REMARK                            x       y       z     vdW  Elec       q    Type
REMARK                         _______ _______ _______ _____ _____    ______ ____
ROOT
ATOM      1  C   UNL     1       2.348   6.249  19.916  0.00  0.00    +0.000 A 
ATOM      2  C   UNL     1       1.767   7.379  20.513  0.00  0.00    +0.000 A 
ATOM      3  C   UNL     1       1.573   8.552  19.784  0.00  0.00    +0.000 A 
ATOM      4  C   UNL     1       1.954   8.609  18.449  0.00  0.00    +0.000 A 
ATOM      5  C   UNL     1       2.543   7.495  17.845  0.00  0.00    +0.000 A 
ATOM      6  C   UNL     1       2.751   6.308  18.567  0.00  0.00    +0.000 A 
ENDROOT
BRANCH   1  10
ATOM      7  C   UNL     1       2.038   3.011  21.816  0.00  0.00    +0.000 C 
ATOM      8  C   UNL     1       1.649   4.070  20.824  0.00  0.00    +0.000 C 
ATOM      9  O   UNL     1       0.600   3.978  20.183  0.00  0.00    +0.000 OA
ATOM     10  N   UNL     1       2.576   5.082  20.686  0.00  0.00    +0.000 N 
ATOM     11  H   UNL     1       3.547   4.831  20.866  0.00  0.00    +0.000 HD
ENDBRANCH   1  10
BRANCH   6  12
ATOM     12  S   UNL     1       3.560   4.939  17.744  0.00  0.00    +0.000 S 
BRANCH  12  13
ATOM     13  C   UNL     1       5.249   5.473  17.841  0.00  0.00    +0.000 A 
ATOM     14  S   UNL     1       6.091   5.306  19.338  0.00  0.00    +0.000 S 
ATOM     15  C   UNL     1       7.570   5.823  18.664  0.00  0.00    +0.000 A 
ATOM     16  C   UNL     1       7.437   6.148  17.336  0.00  0.00    +0.000 A 
ATOM     17  C   UNL     1       6.098   5.937  16.843  0.00  0.00    +0.000 A 
BRANCH  17  18
ATOM     18  N   UNL     1       5.743   6.162  15.460  0.00  0.00    +0.000 N 
ATOM     19  O   UNL     1       4.942   7.069  15.194  0.00  0.00    +0.000 OA
ATOM     20  O   UNL     1       6.257   5.407  14.626  0.00  0.00    +0.000 OA
ENDBRANCH  17  18
ENDBRANCH  12  13
ENDBRANCH   6  12
TORSDOF 4
ENDMDL
MODEL 3
REMARK VINA RESULT:      -7.1      2.677      5.731
REMARK  Name = 
REMARK  5 active torsions:
REMARK  status: ('A' for Active; 'I' for Inactive)
REMARK    1  A    between atoms: C_1  and  C_2
REMARK    2  A    between atoms: N_4  and  C_5
REMARK    3  A    between atoms: C_10  and  S_11
REMARK    4  A    between atoms: S_11  and  C_12
REMARK    5  A    between atoms: C_16  and  N_17
REMARK                            x       y       z     vdW  Elec       q    Type
REMARK                         _______ _______ _______ _____ _____    ______ ____
ROOT
ATOM      1  C   UNL     1       2.520   5.570  19.591  0.00  0.00    +0.000 A 
ATOM      2  C   UNL     1       2.208   6.810  20.170  0.00  0.00    +0.000 A 
ATOM      3  C   UNL     1       2.156   7.969  19.396  0.00  0.00    +0.000 A 
ATOM      4  C   UNL     1       2.412   7.902  18.032  0.00  0.00    +0.000 A 
ATOM      5  C   UNL     1       2.734   6.676  17.443  0.00  0.00    +0.000 A 
ATOM      6  C   UNL     1       2.796   5.501  18.211  0.00  0.00    +0.000 A 
ENDROOT
BRANCH   1  10
ATOM      7  C   UNL     1       1.827   2.524  21.695  0.00  0.00    +0.000 C 
ATOM      8  C   UNL     1       1.537   3.595  20.683  0.00  0.00    +0.000 C 
ATOM      9  O   UNL     1       0.430   3.672  20.145  0.00  0.00    +0.000 OA
ATOM     10  N   UNL     1       2.612   4.414  20.404  0.00  0.00    +0.000 N 
ATOM     11  H   UNL     1       3.535   3.997  20.509  0.00  0.00    +0.000 HD
ENDBRANCH   1  10
BRANCH   6  12
ATOM     12  S   UNL     1       3.268   3.975  17.400  0.00  0.00    +0.000 S 
BRANCH  12  13
ATOM     13  C   UNL     1       4.945   4.361  16.965  0.00  0.00    +0.000 A 
ATOM     14  S   UNL     1       5.333   4.644  15.308  0.00  0.00    +0.000 S 
ATOM     15  C   UNL     1       6.941   5.083  15.669  0.00  0.00    +0.000 A 
ATOM     16  C   UNL     1       7.202   4.994  17.015  0.00  0.00    +0.000 A 
ATOM     17  C   UNL     1       6.048   4.588  17.779  0.00  0.00    +0.000 A 
BRANCH  17  18
ATOM     18  N   UNL     1       6.080   4.481  19.221  0.00  0.00    +0.000 N 
ATOM     19  O   UNL     1       5.470   3.546  19.758  0.00  0.00    +0.000 OA
ATOM     20  O   UNL     1       6.707   5.357  19.829  0.00  0.00    +0.000 OA
ENDBRANCH  17  18
ENDBRANCH  12  13
ENDBRANCH   6  12
TORSDOF 4
ENDMDL
MODEL 4
REMARK VINA RESULT:      -7.0      3.080      5.940
REMARK  Name = 
REMARK  5 active torsions:
REMARK  status: ('A' for Active; 'I' for Inactive)
REMARK    1  A    between atoms: C_1  and  C_2
REMARK    2  A    between atoms: N_4  and  C_5
REMARK    3  A    between atoms: C_10  and  S_11
REMARK    4  A    between atoms: S_11  and  C_12
REMARK    5  A    between atoms: C_16  and  N_17
REMARK                            x       y       z     vdW  Elec       q    Type
REMARK                         _______ _______ _______ _____ _____    ______ ____
ROOT
ATOM      1  C   UNL     1       2.614   4.767  18.325  0.00  0.00    +0.000 A 
ATOM      2  C   UNL     1       1.427   4.057  18.085  0.00  0.00    +0.000 A 
ATOM      3  C   UNL     1       1.300   2.724  18.475  0.00  0.00    +0.000 A 
ATOM      4  C   UNL     1       2.356   2.086  19.114  0.00  0.00    +0.000 A 
ATOM      5  C   UNL     1       3.548   2.778  19.351  0.00  0.00    +0.000 A 
ATOM      6  C   UNL     1       3.693   4.119  18.958  0.00  0.00    +0.000 A 
ENDROOT
BRANCH   1  10
ATOM      7  C   UNL     1       2.462   8.510  17.929  0.00  0.00    +0.000 C 
ATOM      8  C   UNL     1       2.409   7.198  18.658  0.00  0.00    +0.000 C 
ATOM      9  O   UNL     1       2.129   7.154  19.858  0.00  0.00    +0.000 OA
ATOM     10  N   UNL     1       2.737   6.107  17.881  0.00  0.00    +0.000 N 
ATOM     11  H   UNL     1       3.383   6.279  17.112  0.00  0.00    +0.000 HD
ENDBRANCH   1  10
BRANCH   6  12
ATOM     12  S   UNL     1       5.266   4.926  19.245  0.00  0.00    +0.000 S 
BRANCH  12  13
ATOM     13  C   UNL     1       5.952   4.859  17.610  0.00  0.00    +0.000 A 
ATOM     14  S   UNL     1       5.364   3.669  16.508  0.00  0.00    +0.000 S 
ATOM     15  C   UNL     1       6.289   4.284  15.214  0.00  0.00    +0.000 A 
ATOM     16  C   UNL     1       7.057   5.355  15.602  0.00  0.00    +0.000 A 
ATOM     17  C   UNL     1       6.861   5.706  16.987  0.00  0.00    +0.000 A 
BRANCH  17  18
ATOM     18  N   UNL     1       7.527   6.837  17.596  0.00  0.00    +0.000 N 
ATOM     19  O   UNL     1       8.121   6.666  18.670  0.00  0.00    +0.000 OA
ATOM     20  O   UNL     1       7.438   7.918  17.002  0.00  0.00    +0.000 OA
ENDBRANCH  17  18
ENDBRANCH  12  13
ENDBRANCH   6  12
TORSDOF 4
ENDMDL
MODEL 5
REMARK VINA RESULT:      -7.0      1.015      1.277
REMARK  Name = 
REMARK  5 active torsions:
REMARK  status: ('A' for Active; 'I' for Inactive)
REMARK    1  A    between atoms: C_1  and  C_2
REMARK    2  A    between atoms: N_4  and  C_5
REMARK    3  A    between atoms: C_10  and  S_11
REMARK    4  A    between atoms: S_11  and  C_12
REMARK    5  A    between atoms: C_16  and  N_17
REMARK                            x       y       z     vdW  Elec       q    Type
REMARK                         _______ _______ _______ _____ _____    ______ ____
ROOT
ATOM      1  C   UNL     1       6.473   4.340  16.991  0.00  0.00    +0.000 A 
ATOM      2  C   UNL     1       7.795   4.507  17.431  0.00  0.00    +0.000 A 
ATOM      3  C   UNL     1       8.070   5.117  18.655  0.00  0.00    +0.000 A 
ATOM      4  C   UNL     1       7.025   5.564  19.456  0.00  0.00    +0.000 A 
ATOM      5  C   UNL     1       5.704   5.413  19.026  0.00  0.00    +0.000 A 
ATOM      6  C   UNL     1       5.412   4.807  17.792  0.00  0.00    +0.000 A 
ENDROOT
BRANCH   1  10
ATOM      7  C   UNL     1       5.943   3.670  13.322  0.00  0.00    +0.000 C 
ATOM      8  C   UNL     1       6.436   4.414  14.531  0.00  0.00    +0.000 C 
ATOM      9  O   UNL     1       7.015   5.496  14.412  0.00  0.00    +0.000 OA
ATOM     10  N   UNL     1       6.219   3.759  15.724  0.00  0.00    +0.000 N 
ATOM     11  H   UNL     1       6.193   2.741  15.682  0.00  0.00    +0.000 HD
ENDBRANCH   1  10
BRANCH   6  12
ATOM     12  S   UNL     1       3.699   4.696  17.280  0.00  0.00    +0.000 S 
BRANCH  12  13
ATOM     13  C   UNL     1       2.894   4.893  18.849  0.00  0.00    +0.000 A 
ATOM     14  S   UNL     1       2.354   6.463  19.318  0.00  0.00    +0.000 S 
ATOM     15  C   UNL     1       1.598   5.876  20.730  0.00  0.00    +0.000 A 
ATOM     16  C   UNL     1       1.767   4.520  20.871  0.00  0.00    +0.000 A 
ATOM     17  C   UNL     1       2.507   3.936  19.780  0.00  0.00    +0.000 A 
BRANCH  17  18
ATOM     18  N   UNL     1       2.756   2.514  19.694  0.00  0.00    +0.000 N 
ATOM     19  O   UNL     1       3.904   2.101  19.908  0.00  0.00    +0.000 OA
ATOM     20  O   UNL     1       1.793   1.800  19.388  0.00  0.00    +0.000 OA
ENDBRANCH  17  18
ENDBRANCH  12  13
ENDBRANCH   6  12
TORSDOF 4
ENDMDL
MODEL 6
REMARK VINA RESULT:      -7.0      0.825      1.152
REMARK  Name = 
REMARK  5 active torsions:
REMARK  status: ('A' for Active; 'I' for Inactive)
REMARK    1  A    between atoms: C_1  and  C_2
REMARK    2  A    between atoms: N_4  and  C_5
REMARK    3  A    between atoms: C_10  and  S_11
REMARK    4  A    between atoms: S_11  and  C_12
REMARK    5  A    between atoms: C_16  and  N_17
REMARK                            x       y       z     vdW  Elec       q    Type
REMARK                         _______ _______ _______ _____ _____    ______ ____
ROOT
ATOM      1  C   UNL     1       6.132   4.527  17.078  0.00  0.00    +0.000 A 
ATOM      2  C   UNL     1       7.503   4.516  17.379  0.00  0.00    +0.000 A 
ATOM      3  C   UNL     1       7.976   5.051  18.577  0.00  0.00    +0.000 A 
ATOM      4  C   UNL     1       7.085   5.599  19.491  0.00  0.00    +0.000 A 
ATOM      5  C   UNL     1       5.718   5.626  19.200  0.00  0.00    +0.000 A 
ATOM      6  C   UNL     1       5.226   5.096  17.994  0.00  0.00    +0.000 A 
ENDROOT
BRANCH   1  10
ATOM      7  C   UNL     1       5.354   3.939  13.439  0.00  0.00    +0.000 C 
ATOM      8  C   UNL     1       6.086   4.517  14.617  0.00  0.00    +0.000 C 
ATOM      9  O   UNL     1       6.995   5.334  14.454  0.00  0.00    +0.000 OA
ATOM     10  N   UNL     1       5.678   4.019  15.836  0.00  0.00    +0.000 N 
ATOM     11  H   UNL     1       5.309   3.069  15.834  0.00  0.00    +0.000 HD
ENDBRANCH   1  10
BRANCH   6  12
ATOM     12  S   UNL     1       3.469   5.214  17.665  0.00  0.00    +0.000 S 
BRANCH  12  13
ATOM     13  C   UNL     1       2.833   4.306  19.050  0.00  0.00    +0.000 A 
ATOM     14  S   UNL     1       2.263   5.177  20.426  0.00  0.00    +0.000 S 
ATOM     15  C   UNL     1       1.701   3.763  21.197  0.00  0.00    +0.000 A 
ATOM     16  C   UNL     1       1.960   2.640  20.449  0.00  0.00    +0.000 A 
ATOM     17  C   UNL     1       2.605   2.943  19.196  0.00  0.00    +0.000 A 
BRANCH  17  18
ATOM     18  N   UNL     1       2.922   1.918  18.226  0.00  0.00    +0.000 N 
ATOM     19  O   UNL     1       3.795   1.085  18.509  0.00  0.00    +0.000 OA
ATOM     20  O   UNL     1       2.303   1.957  17.155  0.00  0.00    +0.000 OA
ENDBRANCH  17  18
ENDBRANCH  12  13
ENDBRANCH   6  12
TORSDOF 4
ENDMDL
MODEL 7
REMARK VINA RESULT:      -6.9      2.730      6.037
REMARK  Name = 
REMARK  5 active torsions:
REMARK  status: ('A' for Active; 'I' for Inactive)
REMARK    1  A    between atoms: C_1  and  C_2
REMARK    2  A    between atoms: N_4  and  C_5
REMARK    3  A    between atoms: C_10  and  S_11
REMARK    4  A    between atoms: S_11  and  C_12
REMARK    5  A    between atoms: C_16  and  N_17
REMARK                            x       y       z     vdW  Elec       q    Type
REMARK                         _______ _______ _______ _____ _____    ______ ____
ROOT
ATOM      1  C   UNL     1       2.807   5.614  19.678  0.00  0.00    +0.000 A 
ATOM      2  C   UNL     1       2.096   6.822  19.745  0.00  0.00    +0.000 A 
ATOM      3  C   UNL     1       2.323   7.839  18.817  0.00  0.00    +0.000 A 
ATOM      4  C   UNL     1       3.263   7.659  17.810  0.00  0.00    +0.000 A 
ATOM      5  C   UNL     1       3.986   6.465  17.737  0.00  0.00    +0.000 A 
ATOM      6  C   UNL     1       3.772   5.434  18.668  0.00  0.00    +0.000 A 
ENDROOT
BRANCH   1  10
ATOM      7  C   UNL     1       1.451   2.802  21.785  0.00  0.00    +0.000 C 
ATOM      8  C   UNL     1       1.602   3.657  20.560  0.00  0.00    +0.000 C 
ATOM      9  O   UNL     1       0.905   3.458  19.562  0.00  0.00    +0.000 OA
ATOM     10  N   UNL     1       2.592   4.613  20.657  0.00  0.00    +0.000 N 
ATOM     11  H   UNL     1       3.377   4.389  21.267  0.00  0.00    +0.000 HD
ENDBRANCH   1  10
BRANCH   6  12
ATOM     12  S   UNL     1       4.774   3.954  18.546  0.00  0.00    +0.000 S 
BRANCH  12  13
ATOM     13  C   UNL     1       5.805   4.389  17.169  0.00  0.00    +0.000 A 
ATOM     14  S   UNL     1       5.293   3.965  15.578  0.00  0.00    +0.000 S 
ATOM     15  C   UNL     1       6.593   4.791  14.845  0.00  0.00    +0.000 A 
ATOM     16  C   UNL     1       7.425   5.359  15.779  0.00  0.00    +0.000 A 
ATOM     17  C   UNL     1       6.972   5.144  17.131  0.00  0.00    +0.000 A 
BRANCH  17  18
ATOM     18  N   UNL     1       7.664   5.699  18.273  0.00  0.00    +0.000 N 
ATOM     19  O   UNL     1       7.793   6.929  18.346  0.00  0.00    +0.000 OA
ATOM     20  O   UNL     1       8.105   4.892  19.100  0.00  0.00    +0.000 OA
ENDBRANCH  17  18
ENDBRANCH  12  13
ENDBRANCH   6  12
TORSDOF 4
ENDMDL
MODEL 8
REMARK VINA RESULT:      -6.9      2.481      2.562
REMARK  Name = 
REMARK  5 active torsions:
REMARK  status: ('A' for Active; 'I' for Inactive)
REMARK    1  A    between atoms: C_1  and  C_2
REMARK    2  A    between atoms: N_4  and  C_5
REMARK    3  A    between atoms: C_10  and  S_11
REMARK    4  A    between atoms: S_11  and  C_12
REMARK    5  A    between atoms: C_16  and  N_17
REMARK                            x       y       z     vdW  Elec       q    Type
REMARK                         _______ _______ _______ _____ _____    ______ ____
ROOT
ATOM      1  C   UNL     1       6.345   4.266  16.959  0.00  0.00    +0.000 A 
ATOM      2  C   UNL     1       7.635   4.662  17.346  0.00  0.00    +0.000 A 
ATOM      3  C   UNL     1       7.855   5.274  18.580  0.00  0.00    +0.000 A 
ATOM      4  C   UNL     1       6.790   5.493  19.444  0.00  0.00    +0.000 A 
ATOM      5  C   UNL     1       5.498   5.113  19.068  0.00  0.00    +0.000 A 
ATOM      6  C   UNL     1       5.259   4.501  17.825  0.00  0.00    +0.000 A 
ENDROOT
BRANCH   1  10
ATOM      7  C   UNL     1       5.927   3.608  13.274  0.00  0.00    +0.000 C 
ATOM      8  C   UNL     1       6.371   4.354  14.499  0.00  0.00    +0.000 C 
ATOM      9  O   UNL     1       6.930   5.449  14.402  0.00  0.00    +0.000 OA
ATOM     10  N   UNL     1       6.137   3.687  15.683  0.00  0.00    +0.000 N 
ATOM     11  H   UNL     1       6.134   2.669  15.634  0.00  0.00    +0.000 HD
ENDBRANCH   1  10
BRANCH   6  12
ATOM     12  S   UNL     1       3.572   4.090  17.388  0.00  0.00    +0.000 S 
BRANCH  12  13
ATOM     13  C   UNL     1       2.811   4.157  18.990  0.00  0.00    +0.000 A 
ATOM     14  S   UNL     1       2.740   2.718  19.939  0.00  0.00    +0.000 S 
ATOM     15  C   UNL     1       2.088   3.536  21.287  0.00  0.00    +0.000 A 
ATOM     16  C   UNL     1       1.895   4.871  21.026  0.00  0.00    +0.000 A 
ATOM     17  C   UNL     1       2.323   5.247  19.701  0.00  0.00    +0.000 A 
BRANCH  17  18
ATOM     18  N   UNL     1       2.263   6.613  19.232  0.00  0.00    +0.000 N 
ATOM     19  O   UNL     1       2.281   6.821  18.011  0.00  0.00    +0.000 OA
ATOM     20  O   UNL     1       2.218   7.496  20.098  0.00  0.00    +0.000 OA
ENDBRANCH  17  18
ENDBRANCH  12  13
ENDBRANCH   6  12
TORSDOF 4
ENDMDL
MODEL 9
REMARK VINA RESULT:      -6.8      2.025      2.770
REMARK  Name = 
REMARK  5 active torsions:
REMARK  status: ('A' for Active; 'I' for Inactive)
REMARK    1  A    between atoms: C_1  and  C_2
REMARK    2  A    between atoms: N_4  and  C_5
REMARK    3  A    between atoms: C_10  and  S_11
REMARK    4  A    between atoms: S_11  and  C_12
REMARK    5  A    between atoms: C_16  and  N_17
REMARK                            x       y       z     vdW  Elec       q    Type
REMARK                         _______ _______ _______ _____ _____    ______ ____
ROOT
ATOM      1  C   UNL     1       4.132   5.893  17.376  0.00  0.00    +0.000 A 
ATOM      2  C   UNL     1       4.298   7.286  17.400  0.00  0.00    +0.000 A 
ATOM      3  C   UNL     1       3.242   8.125  17.756  0.00  0.00    +0.000 A 
ATOM      4  C   UNL     1       2.009   7.582  18.094  0.00  0.00    +0.000 A 
ATOM      5  C   UNL     1       1.826   6.196  18.064  0.00  0.00    +0.000 A 
ATOM      6  C   UNL     1       2.879   5.338  17.702  0.00  0.00    +0.000 A 
ENDROOT
BRANCH   1  10
ATOM      7  C   UNL     1       6.782   4.034  15.449  0.00  0.00    +0.000 C 
ATOM      8  C   UNL     1       5.773   5.115  15.714  0.00  0.00    +0.000 C 
ATOM      9  O   UNL     1       5.537   5.978  14.865  0.00  0.00    +0.000 OA
ATOM     10  N   UNL     1       5.205   5.061  16.969  0.00  0.00    +0.000 N 
ATOM     11  H   UNL     1       5.779   4.657  17.707  0.00  0.00    +0.000 HD
ENDBRANCH   1  10
BRANCH   6  12
ATOM     12  S   UNL     1       2.558   3.577  17.633  0.00  0.00    +0.000 S 
BRANCH  12  13
ATOM     13  C   UNL     1       2.374   3.227  19.363  0.00  0.00    +0.000 A 
ATOM     14  S   UNL     1       0.800   3.298  20.065  0.00  0.00    +0.000 S 
ATOM     15  C   UNL     1       1.352   2.725  21.573  0.00  0.00    +0.000 A 
ATOM     16  C   UNL     1       2.708   2.507  21.569  0.00  0.00    +0.000 A 
ATOM     17  C   UNL     1       3.311   2.782  20.288  0.00  0.00    +0.000 A 
BRANCH  17  18
ATOM     18  N   UNL     1       4.720   2.570  20.039  0.00  0.00    +0.000 N 
ATOM     19  O   UNL     1       5.379   3.493  19.542  0.00  0.00    +0.000 OA
ATOM     20  O   UNL     1       5.171   1.454  20.327  0.00  0.00    +0.000 OA
ENDBRANCH  17  18
ENDBRANCH  12  13
ENDBRANCH   6  12
TORSDOF 4
ENDMDL
