MODEL 1
REMARK VINA RESULT:      -7.2      0.000      0.000
REMARK  Name = 
REMARK  3 active torsions:
REMARK  status: ('A' for Active; 'I' for Inactive)
REMARK    1  A    between atoms: C_1  and  N_2
REMARK    2  A    between atoms: N_4  and  C_5
REMARK    3  A    between atoms: C_5  and  C_7
REMARK                            x       y       z     vdW  Elec       q    Type
REMARK                         _______ _______ _______ _____ _____    ______ ____
ROOT
ATOM      1  C   UNL     1       3.750   7.338  17.665  0.00  0.00    +0.000 C 
ATOM      2  N   UNL     1       3.774   5.895  17.790  0.00  0.00    +0.000 N 
ATOM      3  C   UNL     1       4.686   5.066  17.134  0.00  0.00    +0.000 A 
ATOM      4  N   UNL     1       5.584   5.453  16.278  0.00  0.00    +0.000 NA
ATOM      5  S   UNL     1       4.417   3.367  17.664  0.00  0.00    +0.000 S 
ATOM      6  C   UNL     1       3.280   3.890  18.915  0.00  0.00    +0.000 A 
ATOM      7  C   UNL     1       2.691   3.089  19.883  0.00  0.00    +0.000 A 
ATOM      8  C   UNL     1       1.842   3.695  20.796  0.00  0.00    +0.000 A 
ATOM      9  F   UNL     1       1.260   2.951  21.748  0.00  0.00    +0.000 F 
ATOM     10  C   UNL     1       1.584   5.063  20.748  0.00  0.00    +0.000 A 
ATOM     11  C   UNL     1       2.194   5.845  19.762  0.00  0.00    +0.000 A 
ATOM     12  F   UNL     1       1.941   7.160  19.753  0.00  0.00    +0.000 F 
ATOM     13  C   UNL     1       3.055   5.272  18.829  0.00  0.00    +0.000 A 
ENDROOT
BRANCH   4  14
ATOM     14  C   UNL     1       6.571   4.579  15.898  0.00  0.00    +0.000 C 
ATOM     15  O   UNL     1       7.688   4.512  16.399  0.00  0.00    +0.000 OA
BRANCH  14  16
ATOM     16  C   UNL     1       6.371   3.777  14.655  0.00  0.00    +0.000 C 
ATOM     17  C   UNL     1       5.411   4.028  13.525  0.00  0.00    +0.000 C 
ATOM     18  C   UNL     1       6.855   4.402  13.363  0.00  0.00    +0.000 C 
ENDBRANCH  14  16
ENDBRANCH   4  14
TORSDOF 2
ENDMDL
MODEL 2
REMARK VINA RESULT:      -7.0      1.516      2.016
REMARK  Name = 
REMARK  3 active torsions:
REMARK  status: ('A' for Active; 'I' for Inactive)
REMARK    1  A    between atoms: C_1  and  N_2
REMARK    2  A    between atoms: N_4  and  C_5
REMARK    3  A    between atoms: C_5  and  C_7
REMARK                            x       y       z     vdW  Elec       q    Type
REMARK                         _______ _______ _______ _____ _____    ______ ____
ROOT
ATOM      1  C   UNL     1       2.706   7.235  18.506  0.00  0.00    +0.000 C 
ATOM      2  N   UNL     1       3.044   5.834  18.349  0.00  0.00    +0.000 N 
ATOM      3  C   UNL     1       3.982   5.351  17.435  0.00  0.00    +0.000 A 
ATOM      4  N   UNL     1       4.624   6.064  16.558  0.00  0.00    +0.000 NA
ATOM      5  S   UNL     1       4.158   3.574  17.662  0.00  0.00    +0.000 S 
ATOM      6  C   UNL     1       3.167   3.619  19.127  0.00  0.00    +0.000 A 
ATOM      7  C   UNL     1       2.926   2.562  19.994  0.00  0.00    +0.000 A 
ATOM      8  C   UNL     1       2.138   2.805  21.108  0.00  0.00    +0.000 A 
ATOM      9  F   UNL     1       1.889   1.807  21.968  0.00  0.00    +0.000 F 
ATOM     10  C   UNL     1       1.603   4.067  21.356  0.00  0.00    +0.000 A 
ATOM     11  C   UNL     1       1.865   5.113  20.465  0.00  0.00    +0.000 A 
ATOM     12  F   UNL     1       1.351   6.319  20.740  0.00  0.00    +0.000 F 
ATOM     13  C   UNL     1       2.654   4.908  19.336  0.00  0.00    +0.000 A 
ENDROOT
BRANCH   4  14
ATOM     14  C   UNL     1       5.689   5.512  15.893  0.00  0.00    +0.000 C 
ATOM     15  O   UNL     1       5.608   4.710  14.969  0.00  0.00    +0.000 OA
BRANCH  14  16
ATOM     16  C   UNL     1       7.060   5.725  16.443  0.00  0.00    +0.000 C 
ATOM     17  C   UNL     1       7.454   6.160  17.828  0.00  0.00    +0.000 C 
ATOM     18  C   UNL     1       7.548   4.709  17.455  0.00  0.00    +0.000 C 
ENDBRANCH  14  16
ENDBRANCH   4  14
TORSDOF 2
ENDMDL
MODEL 3
REMARK VINA RESULT:      -6.7      1.471      2.550
REMARK  Name = 
REMARK  3 active torsions:
REMARK  status: ('A' for Active; 'I' for Inactive)
REMARK    1  A    between atoms: C_1  and  N_2
REMARK    2  A    between atoms: N_4  and  C_5
REMARK    3  A    between atoms: C_5  and  C_7
REMARK                            x       y       z     vdW  Elec       q    Type
REMARK                         _______ _______ _______ _____ _____    ______ ____
ROOT
ATOM      1  C   UNL     1       3.441   1.911  17.840  0.00  0.00    +0.000 C 
ATOM      2  N   UNL     1       3.886   3.246  18.184  0.00  0.00    +0.000 N 
ATOM      3  C   UNL     1       4.947   3.905  17.561  0.00  0.00    +0.000 A 
ATOM      4  N   UNL     1       5.722   3.400  16.647  0.00  0.00    +0.000 NA
ATOM      5  S   UNL     1       5.075   5.571  18.229  0.00  0.00    +0.000 S 
ATOM      6  C   UNL     1       3.553   5.380  19.113  0.00  0.00    +0.000 A 
ATOM      7  C   UNL     1       2.885   6.364  19.829  0.00  0.00    +0.000 A 
ATOM      8  C   UNL     1       1.687   6.022  20.435  0.00  0.00    +0.000 A 
ATOM      9  F   UNL     1       1.013   6.949  21.130  0.00  0.00    +0.000 F 
ATOM     10  C   UNL     1       1.163   4.735  20.330  0.00  0.00    +0.000 A 
ATOM     11  C   UNL     1       1.858   3.766  19.599  0.00  0.00    +0.000 A 
ATOM     12  F   UNL     1       1.320   2.543  19.502  0.00  0.00    +0.000 F 
ATOM     13  C   UNL     1       3.064   4.072  18.975  0.00  0.00    +0.000 A 
ENDROOT
BRANCH   4  14
ATOM     14  C   UNL     1       6.562   4.228  15.947  0.00  0.00    +0.000 C 
ATOM     15  O   UNL     1       7.591   4.728  16.387  0.00  0.00    +0.000 OA
BRANCH  14  16
ATOM     16  C   UNL     1       6.113   4.739  14.618  0.00  0.00    +0.000 C 
ATOM     17  C   UNL     1       6.925   4.924  13.366  0.00  0.00    +0.000 C 
ATOM     18  C   UNL     1       6.034   3.724  13.496  0.00  0.00    +0.000 C 
ENDBRANCH  14  16
ENDBRANCH   4  14
TORSDOF 2
ENDMDL
MODEL 4
REMARK VINA RESULT:      -6.7      2.155      2.608
REMARK  Name = 
REMARK  3 active torsions:
REMARK  status: ('A' for Active; 'I' for Inactive)
REMARK    1  A    between atoms: C_1  and  N_2
REMARK    2  A    between atoms: N_4  and  C_5
REMARK    3  A    between atoms: C_5  and  C_7
REMARK                            x       y       z     vdW  Elec       q    Type
REMARK                         _______ _______ _______ _____ _____    ______ ____
ROOT
ATOM      1  C   UNL     1       2.722   7.155  19.178  0.00  0.00    +0.000 C 
ATOM      2  N   UNL     1       3.014   5.965  18.405  0.00  0.00    +0.000 N 
ATOM      3  C   UNL     1       4.081   5.852  17.512  0.00  0.00    +0.000 A 
ATOM      4  N   UNL     1       4.911   6.802  17.197  0.00  0.00    +0.000 NA
ATOM      5  S   UNL     1       4.124   4.174  16.861  0.00  0.00    +0.000 S 
ATOM      6  C   UNL     1       2.879   3.652  18.006  0.00  0.00    +0.000 A 
ATOM      7  C   UNL     1       2.428   2.353  18.199  0.00  0.00    +0.000 A 
ATOM      8  C   UNL     1       1.458   2.143  19.167  0.00  0.00    +0.000 A 
ATOM      9  F   UNL     1       1.004   0.900  19.384  0.00  0.00    +0.000 F 
ATOM     10  C   UNL     1       0.949   3.196  19.924  0.00  0.00    +0.000 A 
ATOM     11  C   UNL     1       1.425   4.493  19.707  0.00  0.00    +0.000 A 
ATOM     12  F   UNL     1       0.929   5.482  20.462  0.00  0.00    +0.000 F 
ATOM     13  C   UNL     1       2.400   4.744  18.745  0.00  0.00    +0.000 A 
ENDROOT
BRANCH   4  14
ATOM     14  C   UNL     1       6.053   6.493  16.503  0.00  0.00    +0.000 C 
ATOM     15  O   UNL     1       6.099   6.187  15.316  0.00  0.00    +0.000 OA
BRANCH  14  16
ATOM     16  C   UNL     1       7.322   6.310  17.266  0.00  0.00    +0.000 C 
ATOM     17  C   UNL     1       7.499   6.052  18.737  0.00  0.00    +0.000 C 
ATOM     18  C   UNL     1       7.613   4.911  17.768  0.00  0.00    +0.000 C 
ENDBRANCH  14  16
ENDBRANCH   4  14
TORSDOF 2
ENDMDL
MODEL 5
REMARK VINA RESULT:      -6.6      3.198      6.056
REMARK  Name = 
REMARK  3 active torsions:
REMARK  status: ('A' for Active; 'I' for Inactive)
REMARK    1  A    between atoms: C_1  and  N_2
REMARK    2  A    between atoms: N_4  and  C_5
REMARK    3  A    between atoms: C_5  and  C_7
REMARK                            x       y       z     vdW  Elec       q    Type
REMARK                         _______ _______ _______ _____ _____    ______ ____
ROOT
ATOM      1  C   UNL     1       2.757   6.810  18.063  0.00  0.00    +0.000 C 
ATOM      2  N   UNL     1       3.343   5.499  17.867  0.00  0.00    +0.000 N 
ATOM      3  C   UNL     1       2.799   4.314  18.367  0.00  0.00    +0.000 A 
ATOM      4  N   UNL     1       1.747   4.222  19.125  0.00  0.00    +0.000 NA
ATOM      5  S   UNL     1       3.793   2.928  17.794  0.00  0.00    +0.000 S 
ATOM      6  C   UNL     1       4.721   3.982  16.716  0.00  0.00    +0.000 A 
ATOM      7  C   UNL     1       5.674   3.582  15.789  0.00  0.00    +0.000 A 
ATOM      8  C   UNL     1       6.276   4.563  15.017  0.00  0.00    +0.000 A 
ATOM      9  F   UNL     1       7.197   4.211  14.108  0.00  0.00    +0.000 F 
ATOM     10  C   UNL     1       5.940   5.907  15.160  0.00  0.00    +0.000 A 
ATOM     11  C   UNL     1       4.974   6.278  16.102  0.00  0.00    +0.000 A 
ATOM     12  F   UNL     1       4.659   7.576  16.204  0.00  0.00    +0.000 F 
ATOM     13  C   UNL     1       4.346   5.322  16.895  0.00  0.00    +0.000 A 
ENDROOT
BRANCH   4  14
ATOM     14  C   UNL     1       1.180   2.992  19.341  0.00  0.00    +0.000 C 
ATOM     15  O   UNL     1       0.237   2.528  18.711  0.00  0.00    +0.000 OA
BRANCH  14  16
ATOM     16  C   UNL     1       1.587   2.224  20.555  0.00  0.00    +0.000 C 
ATOM     17  C   UNL     1       2.697   2.525  21.522  0.00  0.00    +0.000 C 
ATOM     18  C   UNL     1       1.283   2.865  21.893  0.00  0.00    +0.000 C 
ENDBRANCH  14  16
ENDBRANCH   4  14
TORSDOF 2
ENDMDL
MODEL 6
REMARK VINA RESULT:      -6.6      3.168      5.644
REMARK  Name = 
REMARK  3 active torsions:
REMARK  status: ('A' for Active; 'I' for Inactive)
REMARK    1  A    between atoms: C_1  and  N_2
REMARK    2  A    between atoms: N_4  and  C_5
REMARK    3  A    between atoms: C_5  and  C_7
REMARK                            x       y       z     vdW  Elec       q    Type
REMARK                         _______ _______ _______ _____ _____    ______ ____
ROOT
ATOM      1  C   UNL     1       2.534   7.215  18.944  0.00  0.00    +0.000 C 
ATOM      2  N   UNL     1       3.395   6.050  18.949  0.00  0.00    +0.000 N 
ATOM      3  C   UNL     1       3.198   4.932  19.762  0.00  0.00    +0.000 A 
ATOM      4  N   UNL     1       2.273   4.805  20.667  0.00  0.00    +0.000 NA
ATOM      5  S   UNL     1       4.437   3.690  19.359  0.00  0.00    +0.000 S 
ATOM      6  C   UNL     1       4.983   4.626  17.959  0.00  0.00    +0.000 A 
ATOM      7  C   UNL     1       5.914   4.226  17.011  0.00  0.00    +0.000 A 
ATOM      8  C   UNL     1       6.191   5.097  15.969  0.00  0.00    +0.000 A 
ATOM      9  F   UNL     1       7.081   4.740  15.032  0.00  0.00    +0.000 F 
ATOM     10  C   UNL     1       5.559   6.334  15.871  0.00  0.00    +0.000 A 
ATOM     11  C   UNL     1       4.624   6.708  16.841  0.00  0.00    +0.000 A 
ATOM     12  F   UNL     1       4.019   7.897  16.710  0.00  0.00    +0.000 F 
ATOM     13  C   UNL     1       4.317   5.860  17.902  0.00  0.00    +0.000 A 
ENDROOT
BRANCH   4  14
ATOM     14  C   UNL     1       2.038   3.572  21.218  0.00  0.00    +0.000 C 
ATOM     15  O   UNL     1       2.677   3.075  22.139  0.00  0.00    +0.000 OA
BRANCH  14  16
ATOM     16  C   UNL     1       1.071   2.660  20.538  0.00  0.00    +0.000 C 
ATOM     17  C   UNL     1       0.499   2.772  19.152  0.00  0.00    +0.000 C 
ATOM     18  C   UNL     1       1.623   1.811  19.411  0.00  0.00    +0.000 C 
ENDBRANCH  14  16
ENDBRANCH   4  14
TORSDOF 2
ENDMDL
MODEL 7
REMARK VINA RESULT:      -6.6      3.387      6.251
REMARK  Name = 
REMARK  3 active torsions:
REMARK  status: ('A' for Active; 'I' for Inactive)
REMARK    1  A    between atoms: C_1  and  N_2
REMARK    2  A    between atoms: N_4  and  C_5
REMARK    3  A    between atoms: C_5  and  C_7
REMARK                            x       y       z     vdW  Elec       q    Type
REMARK                         _______ _______ _______ _____ _____    ______ ____
ROOT
ATOM      1  C   UNL     1       6.484   5.195  19.567  0.00  0.00    +0.000 C 
ATOM      2  N   UNL     1       5.470   4.743  18.636  0.00  0.00    +0.000 N 
ATOM      3  C   UNL     1       4.104   4.708  18.920  0.00  0.00    +0.000 A 
ATOM      4  N   UNL     1       3.558   5.003  20.063  0.00  0.00    +0.000 NA
ATOM      5  S   UNL     1       3.213   4.183  17.447  0.00  0.00    +0.000 S 
ATOM      6  C   UNL     1       4.684   4.288  16.467  0.00  0.00    +0.000 A 
ATOM      7  C   UNL     1       4.773   4.125  15.092  0.00  0.00    +0.000 A 
ATOM      8  C   UNL     1       6.019   4.270  14.503  0.00  0.00    +0.000 A 
ATOM      9  F   UNL     1       6.140   4.125  13.175  0.00  0.00    +0.000 F 
ATOM     10  C   UNL     1       7.149   4.571  15.260  0.00  0.00    +0.000 A 
ATOM     11  C   UNL     1       7.026   4.731  16.645  0.00  0.00    +0.000 A 
ATOM     12  F   UNL     1       8.127   5.038  17.344  0.00  0.00    +0.000 F 
ATOM     13  C   UNL     1       5.791   4.595  17.272  0.00  0.00    +0.000 A 
ENDROOT
BRANCH   4  14
ATOM     14  C   UNL     1       2.199   5.165  20.136  0.00  0.00    +0.000 C 
ATOM     15  O   UNL     1       1.607   6.235  20.041  0.00  0.00    +0.000 OA
BRANCH  14  16
ATOM     16  C   UNL     1       1.365   4.002  20.563  0.00  0.00    +0.000 C 
ATOM     17  C   UNL     1       1.668   2.536  20.427  0.00  0.00    +0.000 C 
ATOM     18  C   UNL     1       1.869   3.211  21.753  0.00  0.00    +0.000 C 
ENDBRANCH  14  16
ENDBRANCH   4  14
TORSDOF 2
ENDMDL
MODEL 8
REMARK VINA RESULT:      -6.5      1.019      1.170
REMARK  Name = 
REMARK  3 active torsions:
REMARK  status: ('A' for Active; 'I' for Inactive)
REMARK    1  A    between atoms: C_1  and  N_2
REMARK    2  A    between atoms: N_4  and  C_5
REMARK    3  A    between atoms: C_5  and  C_7
REMARK                            x       y       z     vdW  Elec       q    Type
REMARK                         _______ _______ _______ _____ _____    ______ ____
ROOT
ATOM      1  C   UNL     1       3.011   7.186  18.448  0.00  0.00    +0.000 C 
ATOM      2  N   UNL     1       3.502   5.823  18.495  0.00  0.00    +0.000 N 
ATOM      3  C   UNL     1       4.663   5.385  17.856  0.00  0.00    +0.000 A 
ATOM      4  N   UNL     1       5.422   6.104  17.083  0.00  0.00    +0.000 NA
ATOM      5  S   UNL     1       4.943   3.656  18.272  0.00  0.00    +0.000 S 
ATOM      6  C   UNL     1       3.643   3.690  19.473  0.00  0.00    +0.000 A 
ATOM      7  C   UNL     1       3.307   2.672  20.355  0.00  0.00    +0.000 A 
ATOM      8  C   UNL     1       2.267   2.901  21.241  0.00  0.00    +0.000 A 
ATOM      9  F   UNL     1       1.920   1.941  22.111  0.00  0.00    +0.000 F 
ATOM     10  C   UNL     1       1.577   4.111  21.253  0.00  0.00    +0.000 A 
ATOM     11  C   UNL     1       1.940   5.118  20.353  0.00  0.00    +0.000 A 
ATOM     12  F   UNL     1       1.270   6.278  20.400  0.00  0.00    +0.000 F 
ATOM     13  C   UNL     1       2.982   4.927  19.449  0.00  0.00    +0.000 A 
ENDROOT
BRANCH   4  14
ATOM     14  C   UNL     1       6.656   5.627  16.721  0.00  0.00    +0.000 C 
ATOM     15  O   UNL     1       7.683   5.754  17.378  0.00  0.00    +0.000 OA
BRANCH  14  16
ATOM     16  C   UNL     1       6.834   5.089  15.341  0.00  0.00    +0.000 C 
ATOM     17  C   UNL     1       6.311   3.802  14.765  0.00  0.00    +0.000 C 
ATOM     18  C   UNL     1       5.608   5.090  14.451  0.00  0.00    +0.000 C 
ENDBRANCH  14  16
ENDBRANCH   4  14
TORSDOF 2
ENDMDL
MODEL 9
REMARK VINA RESULT:      -6.4      1.886      3.010
REMARK  Name = 
REMARK  3 active torsions:
REMARK  status: ('A' for Active; 'I' for Inactive)
REMARK    1  A    between atoms: C_1  and  N_2
REMARK    2  A    between atoms: N_4  and  C_5
REMARK    3  A    between atoms: C_5  and  C_7
REMARK                            x       y       z     vdW  Elec       q    Type
REMARK                         _______ _______ _______ _____ _____    ______ ____
ROOT
ATOM      1  C   UNL     1       5.131   3.751  19.060  0.00  0.00    +0.000 C 
ATOM      2  N   UNL     1       5.027   4.947  18.249  0.00  0.00    +0.000 N 
ATOM      3  C   UNL     1       5.651   5.113  17.011  0.00  0.00    +0.000 A 
ATOM      4  N   UNL     1       6.459   4.265  16.449  0.00  0.00    +0.000 NA
ATOM      5  S   UNL     1       5.159   6.699  16.317  0.00  0.00    +0.000 S 
ATOM      6  C   UNL     1       3.955   6.934  17.592  0.00  0.00    +0.000 A 
ATOM      7  C   UNL     1       3.027   7.963  17.672  0.00  0.00    +0.000 A 
ATOM      8  C   UNL     1       2.146   7.958  18.742  0.00  0.00    +0.000 A 
ATOM      9  F   UNL     1       1.233   8.935  18.847  0.00  0.00    +0.000 F 
ATOM     10  C   UNL     1       2.186   6.956  19.709  0.00  0.00    +0.000 A 
ATOM     11  C   UNL     1       3.131   5.932  19.600  0.00  0.00    +0.000 A 
ATOM     12  F   UNL     1       3.133   4.972  20.536  0.00  0.00    +0.000 F 
ATOM     13  C   UNL     1       4.031   5.901  18.538  0.00  0.00    +0.000 A 
ENDROOT
BRANCH   4  14
ATOM     14  C   UNL     1       6.805   4.438  15.133  0.00  0.00    +0.000 C 
ATOM     15  O   UNL     1       7.531   5.327  14.704  0.00  0.00    +0.000 OA
BRANCH  14  16
ATOM     16  C   UNL     1       6.102   3.623  14.099  0.00  0.00    +0.000 C 
ATOM     17  C   UNL     1       5.193   4.094  12.998  0.00  0.00    +0.000 C 
ATOM     18  C   UNL     1       6.617   3.743  12.679  0.00  0.00    +0.000 C 
ENDBRANCH  14  16
ENDBRANCH   4  14
TORSDOF 2
ENDMDL
