MODEL 1
REMARK VINA RESULT:      -8.0      0.000      0.000
REMARK  Name = 
REMARK  13 active torsions:
REMARK  status: ('A' for Active; 'I' for Inactive)
REMARK    1  A    between atoms: C_1  and  C_2
REMARK    2  A    between atoms: C_2  and  O_3
REMARK    3  A    between atoms: O_3  and  C_4
REMARK    4  A    between atoms: C_4  and  C_6
REMARK    5  A    between atoms: N_8  and  C_9
REMARK    6  A    between atoms: C_12  and  C_13
REMARK    7  A    between atoms: C_13  and  O_14
REMARK    8  A    between atoms: C_13  and  C_15
REMARK    9  A    between atoms: C_13  and  C_19
REMARK   10  A    between atoms: C_25  and  C_26
REMARK   11  A    between atoms: C_26  and  C_27
REMARK   12  A    between atoms: C_26  and  C_28
REMARK   13  A    between atoms: C_28  and  C_29
REMARK                            x       y       z     vdW  Elec       q    Type
REMARK                         _______ _______ _______ _____ _____    ______ ____
ROOT
ATOM      1  C   UNL     1       2.403   7.339  18.939  0.00  0.00    +0.000 A 
ATOM      2  C   UNL     1       2.104   8.218  17.892  0.00  0.00    +0.000 A 
ATOM      3  C   UNL     1       1.312   9.345  18.130  0.00  0.00    +0.000 A 
ATOM      4  C   UNL     1       0.812   9.625  19.414  0.00  0.00    +0.000 A 
ATOM      5  C   UNL     1       1.171   8.757  20.463  0.00  0.00    +0.000 A 
ATOM      6  C   UNL     1       1.959   7.629  20.228  0.00  0.00    +0.000 A 
ENDROOT
BRANCH   1   9
ATOM      7  C   UNL     1       4.852   4.869  18.101  0.00  0.00    +0.000 A 
ATOM      8  C   UNL     1       4.433   6.178  18.150  0.00  0.00    +0.000 A 
ATOM      9  N   UNL     1       3.162   6.171  18.678  0.00  0.00    +0.000 N 
ATOM     10  C   UNL     1       2.809   4.827  18.834  0.00  0.00    +0.000 A 
ATOM     11  N   UNL     1       3.835   4.049  18.533  0.00  0.00    +0.000 NA
BRANCH   7  12
ATOM     12  C   UNL     1       6.137   4.396  17.597  0.00  0.00    +0.000 C 
ATOM     13  O   UNL     1       7.181   4.467  18.238  0.00  0.00    +0.000 OA
BRANCH  12  14
ATOM     14  O   UNL     1       6.050   3.973  16.303  0.00  0.00    +0.000 OA
BRANCH  14  16
ATOM     15  C   UNL     1       6.481   4.249  13.970  0.00  0.00    +0.000 C 
ATOM     16  C   UNL     1       6.883   4.670  15.373  0.00  0.00    +0.000 C 
ENDBRANCH  14  16
ENDBRANCH  12  14
ENDBRANCH   7  12
BRANCH  10  17
ATOM     17  C   UNL     1       1.426   4.293  19.166  0.00  0.00    +0.000 C 
ATOM     18  C   UNL     1       1.164   2.942  18.488  0.00  0.00    +0.000 C 
BRANCH  17  19
ATOM     19  C   UNL     1       1.252   4.173  20.701  0.00  0.00    +0.000 C 
ATOM     20  C   UNL     1       1.499   2.771  21.242  0.00  0.00    +0.000 C 
ENDBRANCH  17  19
ENDBRANCH  10  17
ENDBRANCH   1   9
BRANCH   4  21
ATOM     21  C   UNL     1      -0.112  10.830  19.683  0.00  0.00    +0.000 C 
BRANCH  21  22
ATOM     22  C   UNL     1       0.654  12.175  19.551  0.00  0.00    +0.000 C 
ATOM     23  F   UNL     1       1.615  12.324  20.499  0.00  0.00    +0.000 F 
ATOM     24  F   UNL     1       1.246  12.426  18.374  0.00  0.00    +0.000 F 
ATOM     25  F   UNL     1      -0.216  13.204  19.775  0.00  0.00    +0.000 F 
ENDBRANCH  21  22
BRANCH  21  26
ATOM     26  C   UNL     1      -1.356  10.817  18.751  0.00  0.00    +0.000 C 
ATOM     27  F   UNL     1      -2.425  11.447  19.305  0.00  0.00    +0.000 F 
ATOM     28  F   UNL     1      -1.112  11.473  17.586  0.00  0.00    +0.000 F 
ATOM     29  F   UNL     1      -1.801   9.593  18.400  0.00  0.00    +0.000 F 
ENDBRANCH  21  26
BRANCH  21  30
ATOM     30  O   UNL     1      -0.563  10.681  21.082  0.00  0.00    +0.000 OA
ATOM     31  H   UNL     1       0.128  11.071  21.654  0.00  0.00    +0.000 HD
ENDBRANCH  21  30
ENDBRANCH   4  21
TORSDOF 10
ENDMDL
MODEL 2
REMARK VINA RESULT:      -7.9      0.241      1.128
REMARK  Name = 
REMARK  13 active torsions:
REMARK  status: ('A' for Active; 'I' for Inactive)
REMARK    1  A    between atoms: C_1  and  C_2
REMARK    2  A    between atoms: C_2  and  O_3
REMARK    3  A    between atoms: O_3  and  C_4
REMARK    4  A    between atoms: C_4  and  C_6
REMARK    5  A    between atoms: N_8  and  C_9
REMARK    6  A    between atoms: C_12  and  C_13
REMARK    7  A    between atoms: C_13  and  O_14
REMARK    8  A    between atoms: C_13  and  C_15
REMARK    9  A    between atoms: C_13  and  C_19
REMARK   10  A    between atoms: C_25  and  C_26
REMARK   11  A    between atoms: C_26  and  C_27
REMARK   12  A    between atoms: C_26  and  C_28
REMARK   13  A    between atoms: C_28  and  C_29
REMARK                            x       y       z     vdW  Elec       q    Type
REMARK                         _______ _______ _______ _____ _____    ______ ____
ROOT
ATOM      1  C   UNL     1       2.376   7.324  18.941  0.00  0.00    +0.000 A 
ATOM      2  C   UNL     1       1.905   7.583  20.233  0.00  0.00    +0.000 A 
ATOM      3  C   UNL     1       1.167   8.742  20.488  0.00  0.00    +0.000 A 
ATOM      4  C   UNL     1       0.873   9.658  19.463  0.00  0.00    +0.000 A 
ATOM      5  C   UNL     1       1.310   9.350  18.161  0.00  0.00    +0.000 A 
ATOM      6  C   UNL     1       2.051   8.195  17.903  0.00  0.00    +0.000 A 
ENDROOT
BRANCH   1   9
ATOM      7  C   UNL     1       4.909   4.915  18.178  0.00  0.00    +0.000 A 
ATOM      8  C   UNL     1       4.456   6.213  18.214  0.00  0.00    +0.000 A 
ATOM      9  N   UNL     1       3.171   6.174  18.703  0.00  0.00    +0.000 N 
ATOM     10  C   UNL     1       2.846   4.822  18.849  0.00  0.00    +0.000 A 
ATOM     11  N   UNL     1       3.900   4.070  18.579  0.00  0.00    +0.000 NA
BRANCH   7  12
ATOM     12  C   UNL     1       6.220   4.473  17.713  0.00  0.00    +0.000 C 
ATOM     13  O   UNL     1       7.245   4.589  18.377  0.00  0.00    +0.000 OA
BRANCH  12  14
ATOM     14  O   UNL     1       6.177   4.025  16.425  0.00  0.00    +0.000 OA
BRANCH  14  16
ATOM     15  C   UNL     1       6.491   4.355  14.081  0.00  0.00    +0.000 C 
ATOM     16  C   UNL     1       6.873   4.832  15.472  0.00  0.00    +0.000 C 
ENDBRANCH  14  16
ENDBRANCH  12  14
ENDBRANCH   7  12
BRANCH  10  17
ATOM     17  C   UNL     1       1.468   4.254  19.139  0.00  0.00    +0.000 C 
ATOM     18  C   UNL     1       1.263   2.892  18.463  0.00  0.00    +0.000 C 
BRANCH  17  19
ATOM     19  C   UNL     1       1.246   4.140  20.669  0.00  0.00    +0.000 C 
ATOM     20  C   UNL     1       1.483   2.741  21.223  0.00  0.00    +0.000 C 
ENDBRANCH  17  19
ENDBRANCH  10  17
ENDBRANCH   1   9
BRANCH   4  21
ATOM     21  C   UNL     1       0.111  10.970  19.738  0.00  0.00    +0.000 C 
BRANCH  21  22
ATOM     22  C   UNL     1       0.998  12.213  19.449  0.00  0.00    +0.000 C 
ATOM     23  F   UNL     1       2.010  12.351  20.343  0.00  0.00    +0.000 F 
ATOM     24  F   UNL     1       1.557  12.294  18.232  0.00  0.00    +0.000 F 
ATOM     25  F   UNL     1       0.243  13.341  19.605  0.00  0.00    +0.000 F 
ENDBRANCH  21  22
BRANCH  21  26
ATOM     26  C   UNL     1      -1.214  11.045  18.926  0.00  0.00    +0.000 C 
ATOM     27  F   UNL     1      -1.762   9.819  18.718  0.00  0.00    +0.000 F 
ATOM     28  F   UNL     1      -2.162  11.760  19.586  0.00  0.00    +0.000 F 
ATOM     29  F   UNL     1      -1.111  11.605  17.704  0.00  0.00    +0.000 F 
ENDBRANCH  21  26
BRANCH  21  30
ATOM     30  O   UNL     1      -0.213  10.949  21.178  0.00  0.00    +0.000 OA
ATOM     31  H   UNL     1       0.570  10.602  21.649  0.00  0.00    +0.000 HD
ENDBRANCH  21  30
ENDBRANCH   4  21
TORSDOF 10
ENDMDL
MODEL 3
REMARK VINA RESULT:      -7.9      0.797      1.490
REMARK  Name = 
REMARK  13 active torsions:
REMARK  status: ('A' for Active; 'I' for Inactive)
REMARK    1  A    between atoms: C_1  and  C_2
REMARK    2  A    between atoms: C_2  and  O_3
REMARK    3  A    between atoms: O_3  and  C_4
REMARK    4  A    between atoms: C_4  and  C_6
REMARK    5  A    between atoms: N_8  and  C_9
REMARK    6  A    between atoms: C_12  and  C_13
REMARK    7  A    between atoms: C_13  and  O_14
REMARK    8  A    between atoms: C_13  and  C_15
REMARK    9  A    between atoms: C_13  and  C_19
REMARK   10  A    between atoms: C_25  and  C_26
REMARK   11  A    between atoms: C_26  and  C_27
REMARK   12  A    between atoms: C_26  and  C_28
REMARK   13  A    between atoms: C_28  and  C_29
REMARK                            x       y       z     vdW  Elec       q    Type
REMARK                         _______ _______ _______ _____ _____    ______ ____
ROOT
ATOM      1  C   UNL     1       2.325   7.493  18.754  0.00  0.00    +0.000 A 
ATOM      2  C   UNL     1       2.014   8.446  17.778  0.00  0.00    +0.000 A 
ATOM      3  C   UNL     1       1.251   9.567  18.115  0.00  0.00    +0.000 A 
ATOM      4  C   UNL     1       0.792   9.768  19.429  0.00  0.00    +0.000 A 
ATOM      5  C   UNL     1       1.163   8.825  20.405  0.00  0.00    +0.000 A 
ATOM      6  C   UNL     1       1.923   7.702  20.072  0.00  0.00    +0.000 A 
ENDROOT
BRANCH   1   9
ATOM      7  C   UNL     1       4.585   5.038  17.464  0.00  0.00    +0.000 A 
ATOM      8  C   UNL     1       4.108   6.326  17.508  0.00  0.00    +0.000 A 
ATOM      9  N   UNL     1       3.053   6.332  18.392  0.00  0.00    +0.000 N 
ATOM     10  C   UNL     1       2.858   5.002  18.779  0.00  0.00    +0.000 A 
ATOM     11  N   UNL     1       3.802   4.235  18.260  0.00  0.00    +0.000 NA
BRANCH   7  12
ATOM     12  C   UNL     1       5.695   4.559  16.645  0.00  0.00    +0.000 C 
ATOM     13  O   UNL     1       5.622   3.567  15.926  0.00  0.00    +0.000 OA
BRANCH  12  14
ATOM     14  O   UNL     1       6.833   5.277  16.863  0.00  0.00    +0.000 OA
BRANCH  14  16
ATOM     15  C   UNL     1       7.829   6.000  18.911  0.00  0.00    +0.000 C 
ATOM     16  C   UNL     1       7.638   4.832  17.958  0.00  0.00    +0.000 C 
ENDBRANCH  14  16
ENDBRANCH  12  14
ENDBRANCH   7  12
BRANCH  10  17
ATOM     17  C   UNL     1       1.677   4.458  19.563  0.00  0.00    +0.000 C 
ATOM     18  C   UNL     1       1.126   3.170  18.935  0.00  0.00    +0.000 C 
BRANCH  17  19
ATOM     19  C   UNL     1       2.079   4.212  21.039  0.00  0.00    +0.000 C 
ATOM     20  C   UNL     1       1.731   2.820  21.550  0.00  0.00    +0.000 C 
ENDBRANCH  17  19
ENDBRANCH  10  17
ENDBRANCH   1   9
BRANCH   4  21
ATOM     21  C   UNL     1      -0.101  10.968  19.805  0.00  0.00    +0.000 C 
BRANCH  21  22
ATOM     22  C   UNL     1       0.682  12.307  19.723  0.00  0.00    +0.000 C 
ATOM     23  F   UNL     1       1.787  12.315  20.513  0.00  0.00    +0.000 F 
ATOM     24  F   UNL     1       1.087  12.704  18.507  0.00  0.00    +0.000 F 
ATOM     25  F   UNL     1      -0.103  13.310  20.216  0.00  0.00    +0.000 F 
ENDBRANCH  21  22
BRANCH  21  26
ATOM     26  C   UNL     1      -1.380  11.029  18.923  0.00  0.00    +0.000 C 
ATOM     27  F   UNL     1      -1.858   9.793  18.619  0.00  0.00    +0.000 F 
ATOM     28  F   UNL     1      -2.396  11.663  19.564  0.00  0.00    +0.000 F 
ATOM     29  F   UNL     1      -1.236  11.661  17.741  0.00  0.00    +0.000 F 
ENDBRANCH  21  26
BRANCH  21  30
ATOM     30  O   UNL     1      -0.500  10.742  21.209  0.00  0.00    +0.000 OA
ATOM     31  H   UNL     1      -1.310  11.265  21.370  0.00  0.00    +0.000 HD
ENDBRANCH  21  30
ENDBRANCH   4  21
TORSDOF 10
ENDMDL
MODEL 4
REMARK VINA RESULT:      -7.8      0.413      1.056
REMARK  Name = 
REMARK  13 active torsions:
REMARK  status: ('A' for Active; 'I' for Inactive)
REMARK    1  A    between atoms: C_1  and  C_2
REMARK    2  A    between atoms: C_2  and  O_3
REMARK    3  A    between atoms: O_3  and  C_4
REMARK    4  A    between atoms: C_4  and  C_6
REMARK    5  A    between atoms: N_8  and  C_9
REMARK    6  A    between atoms: C_12  and  C_13
REMARK    7  A    between atoms: C_13  and  O_14
REMARK    8  A    between atoms: C_13  and  C_15
REMARK    9  A    between atoms: C_13  and  C_19
REMARK   10  A    between atoms: C_25  and  C_26
REMARK   11  A    between atoms: C_26  and  C_27
REMARK   12  A    between atoms: C_26  and  C_28
REMARK   13  A    between atoms: C_28  and  C_29
REMARK                            x       y       z     vdW  Elec       q    Type
REMARK                         _______ _______ _______ _____ _____    ______ ____
ROOT
ATOM      1  C   UNL     1       2.357   7.421  18.858  0.00  0.00    +0.000 A 
ATOM      2  C   UNL     1       2.055   8.344  17.850  0.00  0.00    +0.000 A 
ATOM      3  C   UNL     1       1.276   9.467  18.143  0.00  0.00    +0.000 A 
ATOM      4  C   UNL     1       0.792   9.699  19.442  0.00  0.00    +0.000 A 
ATOM      5  C   UNL     1       1.153   8.786  20.451  0.00  0.00    +0.000 A 
ATOM      6  C   UNL     1       1.929   7.662  20.162  0.00  0.00    +0.000 A 
ENDROOT
BRANCH   1   9
ATOM      7  C   UNL     1       4.713   4.963  17.758  0.00  0.00    +0.000 A 
ATOM      8  C   UNL     1       4.259   6.260  17.797  0.00  0.00    +0.000 A 
ATOM      9  N   UNL     1       3.102   6.257  18.541  0.00  0.00    +0.000 N 
ATOM     10  C   UNL     1       2.833   4.918  18.843  0.00  0.00    +0.000 A 
ATOM     11  N   UNL     1       3.820   4.149  18.414  0.00  0.00    +0.000 NA
BRANCH   7  12
ATOM     12  C   UNL     1       5.907   4.490  17.065  0.00  0.00    +0.000 C 
ATOM     13  O   UNL     1       7.048   4.727  17.449  0.00  0.00    +0.000 OA
BRANCH  12  14
ATOM     14  O   UNL     1       5.598   3.855  15.898  0.00  0.00    +0.000 OA
BRANCH  14  16
ATOM     15  C   UNL     1       6.202   3.854  13.587  0.00  0.00    +0.000 C 
ATOM     16  C   UNL     1       5.626   4.676  14.728  0.00  0.00    +0.000 C 
ENDBRANCH  14  16
ENDBRANCH  12  14
ENDBRANCH   7  12
BRANCH  10  17
ATOM     17  C   UNL     1       1.551   4.373  19.448  0.00  0.00    +0.000 C 
ATOM     18  C   UNL     1       1.100   3.083  18.749  0.00  0.00    +0.000 C 
BRANCH  17  19
ATOM     19  C   UNL     1       1.735   4.131  20.968  0.00  0.00    +0.000 C 
ATOM     20  C   UNL     1       1.480   2.693  21.399  0.00  0.00    +0.000 C 
ENDBRANCH  17  19
ENDBRANCH  10  17
ENDBRANCH   1   9
BRANCH   4  21
ATOM     21  C   UNL     1      -0.118  10.900  19.770  0.00  0.00    +0.000 C 
BRANCH  21  22
ATOM     22  C   UNL     1       0.666  12.240  19.711  0.00  0.00    +0.000 C 
ATOM     23  F   UNL     1       1.236  12.458  18.498  0.00  0.00    +0.000 F 
ATOM     24  F   UNL     1      -0.013  13.357  20.014  0.00  0.00    +0.000 F 
ATOM     25  F   UNL     1       1.717  12.177  20.581  0.00  0.00    +0.000 F 
ENDBRANCH  21  22
BRANCH  21  26
ATOM     26  C   UNL     1      -1.358  10.951  18.833  0.00  0.00    +0.000 C 
ATOM     27  F   UNL     1      -1.828   9.713  18.528  0.00  0.00    +0.000 F 
ATOM     28  F   UNL     1      -2.398  11.600  19.420  0.00  0.00    +0.000 F 
ATOM     29  F   UNL     1      -1.161  11.564  17.648  0.00  0.00    +0.000 F 
ENDBRANCH  21  26
BRANCH  21  30
ATOM     30  O   UNL     1      -0.578  10.685  21.157  0.00  0.00    +0.000 OA
ATOM     31  H   UNL     1      -0.033   9.967  21.537  0.00  0.00    +0.000 HD
ENDBRANCH  21  30
ENDBRANCH   4  21
TORSDOF 10
ENDMDL
MODEL 5
REMARK VINA RESULT:      -7.8      0.958      1.961
REMARK  Name = 
REMARK  13 active torsions:
REMARK  status: ('A' for Active; 'I' for Inactive)
REMARK    1  A    between atoms: C_1  and  C_2
REMARK    2  A    between atoms: C_2  and  O_3
REMARK    3  A    between atoms: O_3  and  C_4
REMARK    4  A    between atoms: C_4  and  C_6
REMARK    5  A    between atoms: N_8  and  C_9
REMARK    6  A    between atoms: C_12  and  C_13
REMARK    7  A    between atoms: C_13  and  O_14
REMARK    8  A    between atoms: C_13  and  C_15
REMARK    9  A    between atoms: C_13  and  C_19
REMARK   10  A    between atoms: C_25  and  C_26
REMARK   11  A    between atoms: C_26  and  C_27
REMARK   12  A    between atoms: C_26  and  C_28
REMARK   13  A    between atoms: C_28  and  C_29
REMARK                            x       y       z     vdW  Elec       q    Type
REMARK                         _______ _______ _______ _____ _____    ______ ____
ROOT
ATOM      1  C   UNL     1       2.584   7.446  18.713  0.00  0.00    +0.000 A 
ATOM      2  C   UNL     1       2.481   8.341  17.642  0.00  0.00    +0.000 A 
ATOM      3  C   UNL     1       1.700   9.494  17.768  0.00  0.00    +0.000 A 
ATOM      4  C   UNL     1       1.016   9.782  18.962  0.00  0.00    +0.000 A 
ATOM      5  C   UNL     1       1.177   8.895  20.043  0.00  0.00    +0.000 A 
ATOM      6  C   UNL     1       1.954   7.742  19.920  0.00  0.00    +0.000 A 
ENDROOT
BRANCH   1   9
ATOM      7  C   UNL     1       5.007   4.891  18.082  0.00  0.00    +0.000 A 
ATOM      8  C   UNL     1       4.592   6.199  18.003  0.00  0.00    +0.000 A 
ATOM      9  N   UNL     1       3.334   6.253  18.558  0.00  0.00    +0.000 N 
ATOM     10  C   UNL     1       2.982   4.934  18.863  0.00  0.00    +0.000 A 
ATOM     11  N   UNL     1       4.000   4.125  18.621  0.00  0.00    +0.000 NA
BRANCH   7  12
ATOM     12  C   UNL     1       6.280   4.361  17.601  0.00  0.00    +0.000 C 
ATOM     13  O   UNL     1       7.329   4.451  18.231  0.00  0.00    +0.000 OA
BRANCH  12  14
ATOM     14  O   UNL     1       6.175   3.862  16.336  0.00  0.00    +0.000 OA
BRANCH  14  16
ATOM     15  C   UNL     1       6.349   4.131  13.969  0.00  0.00    +0.000 C 
ATOM     16  C   UNL     1       6.836   4.623  15.321  0.00  0.00    +0.000 C 
ENDBRANCH  14  16
ENDBRANCH  12  14
ENDBRANCH   7  12
BRANCH  10  17
ATOM     17  C   UNL     1       1.607   4.444  19.281  0.00  0.00    +0.000 C 
ATOM     18  C   UNL     1       1.205   3.172  18.523  0.00  0.00    +0.000 C 
BRANCH  17  19
ATOM     19  C   UNL     1       1.567   4.199  20.811  0.00  0.00    +0.000 C 
ATOM     20  C   UNL     1       1.470   2.729  21.198  0.00  0.00    +0.000 C 
ENDBRANCH  17  19
ENDBRANCH  10  17
ENDBRANCH   1   9
BRANCH   4  21
ATOM     21  C   UNL     1       0.102  11.017  19.099  0.00  0.00    +0.000 C 
BRANCH  21  22
ATOM     22  C   UNL     1      -1.330  10.725  18.572  0.00  0.00    +0.000 C 
ATOM     23  F   UNL     1      -2.237  11.647  18.987  0.00  0.00    +0.000 F 
ATOM     24  F   UNL     1      -1.482  10.621  17.243  0.00  0.00    +0.000 F 
ATOM     25  F   UNL     1      -1.767   9.546  19.106  0.00  0.00    +0.000 F 
ENDBRANCH  21  22
BRANCH  21  26
ATOM     26  C   UNL     1       0.049  11.531  20.566  0.00  0.00    +0.000 C 
ATOM     27  F   UNL     1      -0.401  12.810  20.650  0.00  0.00    +0.000 F 
ATOM     28  F   UNL     1      -0.808  10.794  21.321  0.00  0.00    +0.000 F 
ATOM     29  F   UNL     1       1.226  11.519  21.224  0.00  0.00    +0.000 F 
ENDBRANCH  21  26
BRANCH  21  30
ATOM     30  O   UNL     1       0.712  12.060  18.250  0.00  0.00    +0.000 OA
ATOM     31  H   UNL     1       1.354  11.618  17.661  0.00  0.00    +0.000 HD
ENDBRANCH  21  30
ENDBRANCH   4  21
TORSDOF 10
ENDMDL
MODEL 6
REMARK VINA RESULT:      -7.8      0.956      2.204
REMARK  Name = 
REMARK  13 active torsions:
REMARK  status: ('A' for Active; 'I' for Inactive)
REMARK    1  A    between atoms: C_1  and  C_2
REMARK    2  A    between atoms: C_2  and  O_3
REMARK    3  A    between atoms: O_3  and  C_4
REMARK    4  A    between atoms: C_4  and  C_6
REMARK    5  A    between atoms: N_8  and  C_9
REMARK    6  A    between atoms: C_12  and  C_13
REMARK    7  A    between atoms: C_13  and  O_14
REMARK    8  A    between atoms: C_13  and  C_15
REMARK    9  A    between atoms: C_13  and  C_19
REMARK   10  A    between atoms: C_25  and  C_26
REMARK   11  A    between atoms: C_26  and  C_27
REMARK   12  A    between atoms: C_26  and  C_28
REMARK   13  A    between atoms: C_28  and  C_29
REMARK                            x       y       z     vdW  Elec       q    Type
REMARK                         _______ _______ _______ _____ _____    ______ ____
ROOT
ATOM      1  C   UNL     1       2.447   7.447  18.779  0.00  0.00    +0.000 A 
ATOM      2  C   UNL     1       1.893   7.786  20.019  0.00  0.00    +0.000 A 
ATOM      3  C   UNL     1       1.140   8.956  20.151  0.00  0.00    +0.000 A 
ATOM      4  C   UNL     1       0.915   9.805  19.053  0.00  0.00    +0.000 A 
ATOM      5  C   UNL     1       1.436   9.417  17.805  0.00  0.00    +0.000 A 
ATOM      6  C   UNL     1       2.191   8.250  17.669  0.00  0.00    +0.000 A 
ENDROOT
BRANCH   1   9
ATOM      7  C   UNL     1       5.021   5.003  18.338  0.00  0.00    +0.000 A 
ATOM      8  C   UNL     1       4.569   6.299  18.262  0.00  0.00    +0.000 A 
ATOM      9  N   UNL     1       3.254   6.287  18.666  0.00  0.00    +0.000 N 
ATOM     10  C   UNL     1       2.918   4.946  18.875  0.00  0.00    +0.000 A 
ATOM     11  N   UNL     1       3.987   4.181  18.723  0.00  0.00    +0.000 NA
BRANCH   7  12
ATOM     12  C   UNL     1       6.360   4.536  17.989  0.00  0.00    +0.000 C 
ATOM     13  O   UNL     1       7.346   4.730  18.693  0.00  0.00    +0.000 OA
BRANCH  12  14
ATOM     14  O   UNL     1       6.391   3.964  16.751  0.00  0.00    +0.000 OA
BRANCH  14  16
ATOM     15  C   UNL     1       5.807   5.055  14.708  0.00  0.00    +0.000 C 
ATOM     16  C   UNL     1       6.919   4.789  15.709  0.00  0.00    +0.000 C 
ENDBRANCH  14  16
ENDBRANCH  12  14
ENDBRANCH   7  12
BRANCH  10  17
ATOM     17  C   UNL     1       1.523   4.394  19.107  0.00  0.00    +0.000 C 
ATOM     18  C   UNL     1       1.324   3.045  18.403  0.00  0.00    +0.000 C 
BRANCH  17  19
ATOM     19  C   UNL     1       1.245   4.260  20.626  0.00  0.00    +0.000 C 
ATOM     20  C   UNL     1       1.499   2.863  21.178  0.00  0.00    +0.000 C 
ENDBRANCH  17  19
ENDBRANCH  10  17
ENDBRANCH   1   9
BRANCH   4  21
ATOM     21  C   UNL     1       0.139  11.130  19.194  0.00  0.00    +0.000 C 
BRANCH  21  22
ATOM     22  C   UNL     1      -1.350  10.962  18.785  0.00  0.00    +0.000 C 
ATOM     23  F   UNL     1      -1.756   9.667  18.811  0.00  0.00    +0.000 F 
ATOM     24  F   UNL     1      -2.259  11.654  19.490  0.00  0.00    +0.000 F 
ATOM     25  F   UNL     1      -1.498  11.345  17.482  0.00  0.00    +0.000 F 
ENDBRANCH  21  22
BRANCH  21  26
ATOM     26  C   UNL     1       0.247  11.708  20.634  0.00  0.00    +0.000 C 
ATOM     27  F   UNL     1      -0.452  10.975  21.540  0.00  0.00    +0.000 F 
ATOM     28  F   UNL     1       1.532  11.701  21.077  0.00  0.00    +0.000 F 
ATOM     29  F   UNL     1      -0.188  12.975  20.782  0.00  0.00    +0.000 F 
ENDBRANCH  21  26
BRANCH  21  30
ATOM     30  O   UNL     1       0.781  12.071  18.254  0.00  0.00    +0.000 OA
ATOM     31  H   UNL     1       0.091  12.687  17.940  0.00  0.00    +0.000 HD
ENDBRANCH  21  30
ENDBRANCH   4  21
TORSDOF 10
ENDMDL
MODEL 7
REMARK VINA RESULT:      -7.8      0.997      2.171
REMARK  Name = 
REMARK  13 active torsions:
REMARK  status: ('A' for Active; 'I' for Inactive)
REMARK    1  A    between atoms: C_1  and  C_2
REMARK    2  A    between atoms: C_2  and  O_3
REMARK    3  A    between atoms: O_3  and  C_4
REMARK    4  A    between atoms: C_4  and  C_6
REMARK    5  A    between atoms: N_8  and  C_9
REMARK    6  A    between atoms: C_12  and  C_13
REMARK    7  A    between atoms: C_13  and  O_14
REMARK    8  A    between atoms: C_13  and  C_15
REMARK    9  A    between atoms: C_13  and  C_19
REMARK   10  A    between atoms: C_25  and  C_26
REMARK   11  A    between atoms: C_26  and  C_27
REMARK   12  A    between atoms: C_26  and  C_28
REMARK   13  A    between atoms: C_28  and  C_29
REMARK                            x       y       z     vdW  Elec       q    Type
REMARK                         _______ _______ _______ _____ _____    ______ ____
ROOT
ATOM      1  C   UNL     1       2.471   7.515  18.768  0.00  0.00    +0.000 A 
ATOM      2  C   UNL     1       1.863   7.821  19.991  0.00  0.00    +0.000 A 
ATOM      3  C   UNL     1       1.072   8.967  20.111  0.00  0.00    +0.000 A 
ATOM      4  C   UNL     1       0.862   9.824  19.017  0.00  0.00    +0.000 A 
ATOM      5  C   UNL     1       1.439   9.469  17.783  0.00  0.00    +0.000 A 
ATOM      6  C   UNL     1       2.232   8.326  17.660  0.00  0.00    +0.000 A 
ENDROOT
BRANCH   1   9
ATOM      7  C   UNL     1       5.093   5.136  18.256  0.00  0.00    +0.000 A 
ATOM      8  C   UNL     1       4.573   6.401  18.113  0.00  0.00    +0.000 A 
ATOM      9  N   UNL     1       3.315   6.381  18.670  0.00  0.00    +0.000 N 
ATOM     10  C   UNL     1       3.071   5.055  19.043  0.00  0.00    +0.000 A 
ATOM     11  N   UNL     1       4.152   4.320  18.838  0.00  0.00    +0.000 NA
BRANCH   7  12
ATOM     12  C   UNL     1       6.404   4.688  17.796  0.00  0.00    +0.000 C 
ATOM     13  O   UNL     1       7.307   4.352  18.556  0.00  0.00    +0.000 OA
BRANCH  12  14
ATOM     14  O   UNL     1       6.529   4.793  16.442  0.00  0.00    +0.000 OA
BRANCH  14  16
ATOM     15  C   UNL     1       6.110   4.052  14.210  0.00  0.00    +0.000 C 
ATOM     16  C   UNL     1       5.862   3.780  15.684  0.00  0.00    +0.000 C 
ENDBRANCH  14  16
ENDBRANCH  12  14
ENDBRANCH   7  12
BRANCH  10  17
ATOM     17  C   UNL     1       1.741   4.477  19.492  0.00  0.00    +0.000 C 
ATOM     18  C   UNL     1       1.359   3.235  18.676  0.00  0.00    +0.000 C 
BRANCH  17  19
ATOM     19  C   UNL     1       1.785   4.141  21.004  0.00  0.00    +0.000 C 
ATOM     20  C   UNL     1       1.513   2.675  21.317  0.00  0.00    +0.000 C 
ENDBRANCH  17  19
ENDBRANCH  10  17
ENDBRANCH   1   9
BRANCH   4  21
ATOM     21  C   UNL     1       0.043  11.124  19.146  0.00  0.00    +0.000 C 
BRANCH  21  22
ATOM     22  C   UNL     1      -1.420  10.925  18.660  0.00  0.00    +0.000 C 
ATOM     23  F   UNL     1      -1.575  11.209  17.341  0.00  0.00    +0.000 F 
ATOM     24  F   UNL     1      -1.966   9.714  18.850  0.00  0.00    +0.000 F 
ATOM     25  F   UNL     1      -2.226  11.820  19.305  0.00  0.00    +0.000 F 
ENDBRANCH  21  22
BRANCH  21  26
ATOM     26  C   UNL     1       0.064  11.673  20.601  0.00  0.00    +0.000 C 
ATOM     27  F   UNL     1       1.303  11.614  21.158  0.00  0.00    +0.000 F 
ATOM     28  F   UNL     1      -0.291  12.984  20.643  0.00  0.00    +0.000 F 
ATOM     29  F   UNL     1      -0.751  11.040  21.468  0.00  0.00    +0.000 F 
ENDBRANCH  21  26
BRANCH  21  30
ATOM     30  O   UNL     1       0.704  12.102  18.258  0.00  0.00    +0.000 OA
ATOM     31  H   UNL     1       0.367  11.949  17.353  0.00  0.00    +0.000 HD
ENDBRANCH  21  30
ENDBRANCH   4  21
TORSDOF 10
ENDMDL
MODEL 8
REMARK VINA RESULT:      -7.7      0.834      1.556
REMARK  Name = 
REMARK  13 active torsions:
REMARK  status: ('A' for Active; 'I' for Inactive)
REMARK    1  A    between atoms: C_1  and  C_2
REMARK    2  A    between atoms: C_2  and  O_3
REMARK    3  A    between atoms: O_3  and  C_4
REMARK    4  A    between atoms: C_4  and  C_6
REMARK    5  A    between atoms: N_8  and  C_9
REMARK    6  A    between atoms: C_12  and  C_13
REMARK    7  A    between atoms: C_13  and  O_14
REMARK    8  A    between atoms: C_13  and  C_15
REMARK    9  A    between atoms: C_13  and  C_19
REMARK   10  A    between atoms: C_25  and  C_26
REMARK   11  A    between atoms: C_26  and  C_27
REMARK   12  A    between atoms: C_26  and  C_28
REMARK   13  A    between atoms: C_28  and  C_29
REMARK                            x       y       z     vdW  Elec       q    Type
REMARK                         _______ _______ _______ _____ _____    ______ ____
ROOT
ATOM      1  C   UNL     1       2.501   7.614  18.515  0.00  0.00    +0.000 A 
ATOM      2  C   UNL     1       2.092   7.668  19.852  0.00  0.00    +0.000 A 
ATOM      3  C   UNL     1       1.262   8.704  20.287  0.00  0.00    +0.000 A 
ATOM      4  C   UNL     1       0.814   9.699  19.401  0.00  0.00    +0.000 A 
ATOM      5  C   UNL     1       1.193   9.595  18.050  0.00  0.00    +0.000 A 
ATOM      6  C   UNL     1       2.025   8.563  17.611  0.00  0.00    +0.000 A 
ENDROOT
BRANCH   1   9
ATOM      7  C   UNL     1       5.142   5.594  17.196  0.00  0.00    +0.000 A 
ATOM      8  C   UNL     1       4.524   6.811  17.351  0.00  0.00    +0.000 A 
ATOM      9  N   UNL     1       3.387   6.591  18.094  0.00  0.00    +0.000 N 
ATOM     10  C   UNL     1       3.299   5.207  18.276  0.00  0.00    +0.000 A 
ATOM     11  N   UNL     1       4.373   4.614  17.779  0.00  0.00    +0.000 NA
BRANCH   7  12
ATOM     12  C   UNL     1       6.379   5.343  16.461  0.00  0.00    +0.000 C 
ATOM     13  O   UNL     1       7.300   6.151  16.397  0.00  0.00    +0.000 OA
BRANCH  12  14
ATOM     14  O   UNL     1       6.332   4.164  15.777  0.00  0.00    +0.000 OA
BRANCH  14  16
ATOM     15  C   UNL     1       6.630   4.097  13.409  0.00  0.00    +0.000 C 
ATOM     16  C   UNL     1       5.620   4.202  14.538  0.00  0.00    +0.000 C 
ENDBRANCH  14  16
ENDBRANCH  12  14
ENDBRANCH   7  12
BRANCH  10  17
ATOM     17  C   UNL     1       2.108   4.447  18.833  0.00  0.00    +0.000 C 
ATOM     18  C   UNL     1       1.788   3.203  17.993  0.00  0.00    +0.000 C 
BRANCH  17  19
ATOM     19  C   UNL     1       2.366   4.054  20.310  0.00  0.00    +0.000 C 
ATOM     20  C   UNL     1       1.258   3.207  20.924  0.00  0.00    +0.000 C 
ENDBRANCH  17  19
ENDBRANCH  10  17
ENDBRANCH   1   9
BRANCH   4  21
ATOM     21  C   UNL     1      -0.053  10.883  19.876  0.00  0.00    +0.000 C 
BRANCH  21  22
ATOM     22  C   UNL     1       0.761  12.205  19.912  0.00  0.00    +0.000 C 
ATOM     23  F   UNL     1       1.492  12.399  18.784  0.00  0.00    +0.000 F 
ATOM     24  F   UNL     1       0.074  13.340  20.114  0.00  0.00    +0.000 F 
ATOM     25  F   UNL     1       1.685  12.129  20.916  0.00  0.00    +0.000 F 
ENDBRANCH  21  22
BRANCH  21  26
ATOM     26  C   UNL     1      -1.326  11.049  18.998  0.00  0.00    +0.000 C 
ATOM     27  F   UNL     1      -1.853   9.856  18.619  0.00  0.00    +0.000 F 
ATOM     28  F   UNL     1      -2.318  11.685  19.676  0.00  0.00    +0.000 F 
ATOM     29  F   UNL     1      -1.152  11.746  17.857  0.00  0.00    +0.000 F 
ENDBRANCH  21  26
BRANCH  21  30
ATOM     30  O   UNL     1      -0.465  10.547  21.254  0.00  0.00    +0.000 OA
ATOM     31  H   UNL     1      -0.051   9.691  21.482  0.00  0.00    +0.000 HD
ENDBRANCH  21  30
ENDBRANCH   4  21
TORSDOF 10
ENDMDL
MODEL 9
REMARK VINA RESULT:      -7.6      0.444      1.385
REMARK  Name = 
REMARK  13 active torsions:
REMARK  status: ('A' for Active; 'I' for Inactive)
REMARK    1  A    between atoms: C_1  and  C_2
REMARK    2  A    between atoms: C_2  and  O_3
REMARK    3  A    between atoms: O_3  and  C_4
REMARK    4  A    between atoms: C_4  and  C_6
REMARK    5  A    between atoms: N_8  and  C_9
REMARK    6  A    between atoms: C_12  and  C_13
REMARK    7  A    between atoms: C_13  and  O_14
REMARK    8  A    between atoms: C_13  and  C_15
REMARK    9  A    between atoms: C_13  and  C_19
REMARK   10  A    between atoms: C_25  and  C_26
REMARK   11  A    between atoms: C_26  and  C_27
REMARK   12  A    between atoms: C_26  and  C_28
REMARK   13  A    between atoms: C_28  and  C_29
REMARK                            x       y       z     vdW  Elec       q    Type
REMARK                         _______ _______ _______ _____ _____    ______ ____
ROOT
ATOM      1  C   UNL     1       2.375   7.456  19.013  0.00  0.00    +0.000 A 
ATOM      2  C   UNL     1       1.865   7.681  20.296  0.00  0.00    +0.000 A 
ATOM      3  C   UNL     1       1.066   8.801  20.544  0.00  0.00    +0.000 A 
ATOM      4  C   UNL     1       0.751   9.711  19.519  0.00  0.00    +0.000 A 
ATOM      5  C   UNL     1       1.230   9.436  18.225  0.00  0.00    +0.000 A 
ATOM      6  C   UNL     1       2.030   8.320  17.974  0.00  0.00    +0.000 A 
ENDROOT
BRANCH   1   9
ATOM      7  C   UNL     1       4.986   5.168  18.151  0.00  0.00    +0.000 A 
ATOM      8  C   UNL     1       4.431   6.425  18.118  0.00  0.00    +0.000 A 
ATOM      9  N   UNL     1       3.229   6.348  18.783  0.00  0.00    +0.000 N 
ATOM     10  C   UNL     1       3.045   5.001  19.108  0.00  0.00    +0.000 A 
ATOM     11  N   UNL     1       4.116   4.302  18.771  0.00  0.00    +0.000 NA
BRANCH   7  12
ATOM     12  C   UNL     1       6.259   4.773  17.554  0.00  0.00    +0.000 C 
ATOM     13  O   UNL     1       7.223   4.396  18.213  0.00  0.00    +0.000 OA
BRANCH  12  14
ATOM     14  O   UNL     1       6.273   4.980  16.206  0.00  0.00    +0.000 OA
BRANCH  14  16
ATOM     15  C   UNL     1       6.286   4.014  14.022  0.00  0.00    +0.000 C 
ATOM     16  C   UNL     1       5.697   3.934  15.420  0.00  0.00    +0.000 C 
ENDBRANCH  14  16
ENDBRANCH  12  14
ENDBRANCH   7  12
BRANCH  10  17
ATOM     17  C   UNL     1       1.771   4.370  19.643  0.00  0.00    +0.000 C 
ATOM     18  C   UNL     1       1.373   3.128  18.836  0.00  0.00    +0.000 C 
BRANCH  17  19
ATOM     19  C   UNL     1       1.938   4.013  21.143  0.00  0.00    +0.000 C 
ATOM     20  C   UNL     1       1.451   2.615  21.500  0.00  0.00    +0.000 C 
ENDBRANCH  17  19
ENDBRANCH  10  17
ENDBRANCH   1   9
BRANCH   4  21
ATOM     21  C   UNL     1      -0.079  10.983  19.787  0.00  0.00    +0.000 C 
BRANCH  21  22
ATOM     22  C   UNL     1       0.776  12.268  19.607  0.00  0.00    +0.000 C 
ATOM     23  F   UNL     1       0.038  13.404  19.704  0.00  0.00    +0.000 F 
ATOM     24  F   UNL     1       1.820  12.427  20.433  0.00  0.00    +0.000 F 
ATOM     25  F   UNL     1       1.279  12.290  18.337  0.00  0.00    +0.000 F 
ENDBRANCH  21  22
BRANCH  21  26
ATOM     26  C   UNL     1      -1.347  11.040  18.888  0.00  0.00    +0.000 C 
ATOM     27  F   UNL     1      -1.096  11.600  17.675  0.00  0.00    +0.000 F 
ATOM     28  F   UNL     1      -1.824   9.796  18.622  0.00  0.00    +0.000 F 
ATOM     29  F   UNL     1      -2.385  11.734  19.398  0.00  0.00    +0.000 F 
ENDBRANCH  21  26
BRANCH  21  30
ATOM     30  O   UNL     1      -0.500  10.894  21.200  0.00  0.00    +0.000 OA
ATOM     31  H   UNL     1      -1.327  11.408  21.291  0.00  0.00    +0.000 HD
ENDBRANCH  21  30
ENDBRANCH   4  21
TORSDOF 10
ENDMDL
