MODEL 1
REMARK VINA RESULT:      -7.5      0.000      0.000
REMARK  Name = 
REMARK  2 active torsions:
REMARK  status: ('A' for Active; 'I' for Inactive)
REMARK    1  A    between atoms: C_1  and  C_2
REMARK    2  A    between atoms: C_6  and  C_7
REMARK                            x       y       z     vdW  Elec       q    Type
REMARK                         _______ _______ _______ _____ _____    ______ ____
ROOT
ATOM      1  C   UNL     1       5.139   4.920  16.312  0.00  0.00    +0.000 A 
ATOM      2  C   UNL     1       6.306   5.579  15.965  0.00  0.00    +0.000 A 
ATOM      3  C   UNL     1       6.699   5.134  14.684  0.00  0.00    +0.000 A 
ATOM      4  N   UNL     1       7.771   5.506  13.944  0.00  0.00    +0.000 NA
ATOM      5  C   UNL     1       7.859   4.899  12.741  0.00  0.00    +0.000 A 
ATOM      6  C   UNL     1       6.963   3.966  12.238  0.00  0.00    +0.000 A 
ATOM      7  C   UNL     1       5.865   3.590  13.008  0.00  0.00    +0.000 A 
ATOM      8  C   UNL     1       5.756   4.206  14.254  0.00  0.00    +0.000 A 
ATOM      9  N   UNL     1       4.819   4.093  15.255  0.00  0.00    +0.000 N 
ATOM     10  H   UNL     1       4.000   3.504  15.200  0.00  0.00    +0.000 HD
ENDROOT
BRANCH   1  16
ATOM     11  C   UNL     1       1.381   2.823  20.713  0.00  0.00    +0.000 C 
ATOM     12  C   UNL     1       2.342   2.735  19.553  0.00  0.00    +0.000 C 
ATOM     13  O   UNL     1       2.502   1.659  18.975  0.00  0.00    +0.000 OA
ATOM     14  N   UNL     1       2.958   3.926  19.151  0.00  0.00    +0.000 N 
ATOM     15  C   UNL     1       3.760   3.923  18.011  0.00  0.00    +0.000 C 
ATOM     16  C   UNL     1       4.295   5.038  17.464  0.00  0.00    +0.000 C 
ATOM     17  C   UNL     1       4.010   6.397  18.084  0.00  0.00    +0.000 C 
ATOM     18  C   UNL     1       2.864   6.385  19.086  0.00  0.00    +0.000 C 
ATOM     19  C   UNL     1       2.944   5.151  19.961  0.00  0.00    +0.000 C 
ENDBRANCH   1  16
TORSDOF 1
ENDMDL
MODEL 2
REMARK VINA RESULT:      -7.3      3.355      7.257
REMARK  Name = 
REMARK  2 active torsions:
REMARK  status: ('A' for Active; 'I' for Inactive)
REMARK    1  A    between atoms: C_1  and  C_2
REMARK    2  A    between atoms: C_6  and  C_7
REMARK                            x       y       z     vdW  Elec       q    Type
REMARK                         _______ _______ _______ _____ _____    ______ ____
ROOT
ATOM      1  C   UNL     1       2.374   7.008  18.753  0.00  0.00    +0.000 A 
ATOM      2  C   UNL     1       2.004   8.252  18.269  0.00  0.00    +0.000 A 
ATOM      3  C   UNL     1       1.509   9.015  19.349  0.00  0.00    +0.000 A 
ATOM      4  N   UNL     1       1.041  10.286  19.351  0.00  0.00    +0.000 NA
ATOM      5  C   UNL     1       0.651  10.738  20.562  0.00  0.00    +0.000 A 
ATOM      6  C   UNL     1       0.700  10.018  21.748  0.00  0.00    +0.000 A 
ATOM      7  C   UNL     1       1.182   8.712  21.734  0.00  0.00    +0.000 A 
ATOM      8  C   UNL     1       1.590   8.227  20.492  0.00  0.00    +0.000 A 
ATOM      9  N   UNL     1       2.118   7.016  20.108  0.00  0.00    +0.000 N 
ATOM     10  H   UNL     1       2.314   6.256  20.745  0.00  0.00    +0.000 HD
ENDROOT
BRANCH   1  16
ATOM     11  C   UNL     1       6.545   4.200  15.202  0.00  0.00    +0.000 C 
ATOM     12  C   UNL     1       5.921   5.338  15.971  0.00  0.00    +0.000 C 
ATOM     13  O   UNL     1       6.352   6.483  15.824  0.00  0.00    +0.000 OA
ATOM     14  N   UNL     1       4.817   5.028  16.775  0.00  0.00    +0.000 N 
ATOM     15  C   UNL     1       4.130   6.060  17.411  0.00  0.00    +0.000 C 
ATOM     16  C   UNL     1       2.981   5.885  18.102  0.00  0.00    +0.000 C 
ATOM     17  C   UNL     1       2.355   4.502  18.195  0.00  0.00    +0.000 C 
ATOM     18  C   UNL     1       2.935   3.500  17.205  0.00  0.00    +0.000 C 
ATOM     19  C   UNL     1       4.440   3.651  17.125  0.00  0.00    +0.000 C 
ENDBRANCH   1  16
TORSDOF 1
ENDMDL
MODEL 3
REMARK VINA RESULT:      -7.1      7.251      9.060
REMARK  Name = 
REMARK  2 active torsions:
REMARK  status: ('A' for Active; 'I' for Inactive)
REMARK    1  A    between atoms: C_1  and  C_2
REMARK    2  A    between atoms: C_6  and  C_7
REMARK                            x       y       z     vdW  Elec       q    Type
REMARK                         _______ _______ _______ _____ _____    ______ ____
ROOT
ATOM      1  C   UNL     1       8.709   9.407  18.535  0.00  0.00    +0.000 A 
ATOM      2  C   UNL     1       7.860   9.201  17.460  0.00  0.00    +0.000 A 
ATOM      3  C   UNL     1       7.477   7.842  17.456  0.00  0.00    +0.000 A 
ATOM      4  N   UNL     1       6.656   7.191  16.598  0.00  0.00    +0.000 NA
ATOM      5  C   UNL     1       6.479   5.882  16.877  0.00  0.00    +0.000 A 
ATOM      6  C   UNL     1       7.054   5.196  17.938  0.00  0.00    +0.000 A 
ATOM      7  C   UNL     1       7.897   5.875  18.813  0.00  0.00    +0.000 A 
ATOM      8  C   UNL     1       8.093   7.229  18.542  0.00  0.00    +0.000 A 
ATOM      9  N   UNL     1       8.833   8.196  19.183  0.00  0.00    +0.000 N 
ATOM     10  H   UNL     1       9.366   8.035  20.026  0.00  0.00    +0.000 HD
ENDROOT
BRANCH   1  16
ATOM     11  C   UNL     1      11.879  14.661  18.045  0.00  0.00    +0.000 C 
ATOM     12  C   UNL     1      11.138  13.440  17.561  0.00  0.00    +0.000 C 
ATOM     13  O   UNL     1      11.185  13.130  16.369  0.00  0.00    +0.000 OA
ATOM     14  N   UNL     1      10.479  12.674  18.531  0.00  0.00    +0.000 N 
ATOM     15  C   UNL     1       9.881  11.473  18.155  0.00  0.00    +0.000 C 
ATOM     16  C   UNL     1       9.334  10.598  19.030  0.00  0.00    +0.000 C 
ATOM     17  C   UNL     1       9.373  10.894  20.521  0.00  0.00    +0.000 C 
ATOM     18  C   UNL     1      10.332  12.015  20.898  0.00  0.00    +0.000 C 
ATOM     19  C   UNL     1      10.234  13.150  19.899  0.00  0.00    +0.000 C 
ENDBRANCH   1  16
TORSDOF 1
ENDMDL
MODEL 4
REMARK VINA RESULT:      -7.0      5.133      7.209
REMARK  Name = 
REMARK  2 active torsions:
REMARK  status: ('A' for Active; 'I' for Inactive)
REMARK    1  A    between atoms: C_1  and  C_2
REMARK    2  A    between atoms: C_6  and  C_7
REMARK                            x       y       z     vdW  Elec       q    Type
REMARK                         _______ _______ _______ _____ _____    ______ ____
ROOT
ATOM      1  C   UNL     1       2.132   6.942  19.998  0.00  0.00    +0.000 A 
ATOM      2  C   UNL     1       3.062   6.257  19.234  0.00  0.00    +0.000 A 
ATOM      3  C   UNL     1       3.161   4.941  19.737  0.00  0.00    +0.000 A 
ATOM      4  N   UNL     1       3.936   3.919  19.302  0.00  0.00    +0.000 NA
ATOM      5  C   UNL     1       3.787   2.769  19.995  0.00  0.00    +0.000 A 
ATOM      6  C   UNL     1       2.929   2.577  21.068  0.00  0.00    +0.000 A 
ATOM      7  C   UNL     1       2.137   3.635  21.507  0.00  0.00    +0.000 A 
ATOM      8  C   UNL     1       2.277   4.831  20.805  0.00  0.00    +0.000 A 
ATOM      9  N   UNL     1       1.662   6.055  20.945  0.00  0.00    +0.000 N 
ATOM     10  H   UNL     1       0.948   6.254  21.630  0.00  0.00    +0.000 HD
ENDROOT
BRANCH   1  16
ATOM     11  C   UNL     1      -0.534  12.087  22.076  0.00  0.00    +0.000 C 
ATOM     12  C   UNL     1       0.096  10.719  22.166  0.00  0.00    +0.000 C 
ATOM     13  O   UNL     1       0.033  10.086  23.221  0.00  0.00    +0.000 OA
ATOM     14  N   UNL     1       0.672  10.210  20.995  0.00  0.00    +0.000 N 
ATOM     15  C   UNL     1       1.159   8.904  20.992  0.00  0.00    +0.000 C 
ATOM     16  C   UNL     1       1.614   8.273  19.885  0.00  0.00    +0.000 C 
ATOM     17  C   UNL     1       1.587   8.986  18.542  0.00  0.00    +0.000 C 
ATOM     18  C   UNL     1       0.732  10.246  18.534  0.00  0.00    +0.000 C 
ATOM     19  C   UNL     1       0.945  11.034  19.810  0.00  0.00    +0.000 C 
ENDBRANCH   1  16
TORSDOF 1
ENDMDL
MODEL 5
REMARK VINA RESULT:      -7.0      2.226      6.761
REMARK  Name = 
REMARK  2 active torsions:
REMARK  status: ('A' for Active; 'I' for Inactive)
REMARK    1  A    between atoms: C_1  and  C_2
REMARK    2  A    between atoms: C_6  and  C_7
REMARK                            x       y       z     vdW  Elec       q    Type
REMARK                         _______ _______ _______ _____ _____    ______ ____
ROOT
ATOM      1  C   UNL     1       4.123   3.709  17.352  0.00  0.00    +0.000 A 
ATOM      2  C   UNL     1       2.826   3.321  17.058  0.00  0.00    +0.000 A 
ATOM      3  C   UNL     1       2.132   3.148  18.276  0.00  0.00    +0.000 A 
ATOM      4  N   UNL     1       0.844   2.782  18.477  0.00  0.00    +0.000 NA
ATOM      5  C   UNL     1       0.476   2.720  19.775  0.00  0.00    +0.000 A 
ATOM      6  C   UNL     1       1.294   2.998  20.862  0.00  0.00    +0.000 A 
ATOM      7  C   UNL     1       2.616   3.372  20.642  0.00  0.00    +0.000 A 
ATOM      8  C   UNL     1       3.016   3.442  19.309  0.00  0.00    +0.000 A 
ATOM      9  N   UNL     1       4.216   3.781  18.726  0.00  0.00    +0.000 N 
ATOM     10  H   UNL     1       5.035   4.069  19.243  0.00  0.00    +0.000 HD
ENDROOT
BRANCH   1  16
ATOM     11  C   UNL     1       7.149   4.047  12.001  0.00  0.00    +0.000 C 
ATOM     12  C   UNL     1       5.986   3.763  12.921  0.00  0.00    +0.000 C 
ATOM     13  O   UNL     1       5.011   3.141  12.497  0.00  0.00    +0.000 OA
ATOM     14  N   UNL     1       6.118   4.176  14.252  0.00  0.00    +0.000 N 
ATOM     15  C   UNL     1       5.127   3.832  15.170  0.00  0.00    +0.000 C 
ATOM     16  C   UNL     1       5.217   4.067  16.499  0.00  0.00    +0.000 C 
ATOM     17  C   UNL     1       6.467   4.720  17.069  0.00  0.00    +0.000 C 
ATOM     18  C   UNL     1       7.641   4.746  16.101  0.00  0.00    +0.000 C 
ATOM     19  C   UNL     1       7.166   5.100  14.707  0.00  0.00    +0.000 C 
ENDBRANCH   1  16
TORSDOF 1
ENDMDL
MODEL 6
REMARK VINA RESULT:      -7.0      3.430      7.165
REMARK  Name = 
REMARK  2 active torsions:
REMARK  status: ('A' for Active; 'I' for Inactive)
REMARK    1  A    between atoms: C_1  and  C_2
REMARK    2  A    between atoms: C_6  and  C_7
REMARK                            x       y       z     vdW  Elec       q    Type
REMARK                         _______ _______ _______ _____ _____    ______ ____
ROOT
ATOM      1  C   UNL     1       2.353   7.091  18.777  0.00  0.00    +0.000 A 
ATOM      2  C   UNL     1       2.007   7.326  20.097  0.00  0.00    +0.000 A 
ATOM      3  C   UNL     1       1.490   8.636  20.191  0.00  0.00    +0.000 A 
ATOM      4  N   UNL     1       1.022   9.291  21.280  0.00  0.00    +0.000 NA
ATOM      5  C   UNL     1       0.579  10.543  21.033  0.00  0.00    +0.000 A 
ATOM      6  C   UNL     1       0.570  11.168  19.793  0.00  0.00    +0.000 A 
ATOM      7  C   UNL     1       1.055  10.485  18.681  0.00  0.00    +0.000 A 
ATOM      8  C   UNL     1       1.517   9.191  18.916  0.00  0.00    +0.000 A 
ATOM      9  N   UNL     1       2.042   8.237  18.074  0.00  0.00    +0.000 N 
ATOM     10  H   UNL     1       2.153   8.360  17.078  0.00  0.00    +0.000 HD
ENDROOT
BRANCH   1  16
ATOM     11  C   UNL     1       6.146   3.975  15.062  0.00  0.00    +0.000 C 
ATOM     12  C   UNL     1       5.626   5.166  15.830  0.00  0.00    +0.000 C 
ATOM     13  O   UNL     1       6.097   6.284  15.613  0.00  0.00    +0.000 OA
ATOM     14  N   UNL     1       4.567   4.934  16.715  0.00  0.00    +0.000 N 
ATOM     15  C   UNL     1       3.971   6.017  17.358  0.00  0.00    +0.000 C 
ATOM     16  C   UNL     1       2.864   5.920  18.129  0.00  0.00    +0.000 C 
ATOM     17  C   UNL     1       2.185   4.571  18.312  0.00  0.00    +0.000 C 
ATOM     18  C   UNL     1       2.651   3.511  17.323  0.00  0.00    +0.000 C 
ATOM     19  C   UNL     1       4.153   3.589  17.138  0.00  0.00    +0.000 C 
ENDBRANCH   1  16
TORSDOF 1
ENDMDL
MODEL 7
REMARK VINA RESULT:      -6.9      3.236      7.043
REMARK  Name = 
REMARK  2 active torsions:
REMARK  status: ('A' for Active; 'I' for Inactive)
REMARK    1  A    between atoms: C_1  and  C_2
REMARK    2  A    between atoms: C_6  and  C_7
REMARK                            x       y       z     vdW  Elec       q    Type
REMARK                         _______ _______ _______ _____ _____    ______ ____
ROOT
ATOM      1  C   UNL     1       2.229   7.383  19.158  0.00  0.00    +0.000 A 
ATOM      2  C   UNL     1       1.822   8.601  18.639  0.00  0.00    +0.000 A 
ATOM      3  C   UNL     1       1.215   9.341  19.677  0.00  0.00    +0.000 A 
ATOM      4  N   UNL     1       0.678  10.584  19.635  0.00  0.00    +0.000 NA
ATOM      5  C   UNL     1       0.185  11.020  20.815  0.00  0.00    +0.000 A 
ATOM      6  C   UNL     1       0.197  10.312  22.008  0.00  0.00    +0.000 A 
ATOM      7  C   UNL     1       0.752   9.035  22.039  0.00  0.00    +0.000 A 
ATOM      8  C   UNL     1       1.266   8.566  20.831  0.00  0.00    +0.000 A 
ATOM      9  N   UNL     1       1.885   7.384  20.494  0.00  0.00    +0.000 N 
ATOM     10  H   UNL     1       2.082   6.641  21.149  0.00  0.00    +0.000 HD
ENDROOT
BRANCH   1  16
ATOM     11  C   UNL     1       3.643   1.456  18.283  0.00  0.00    +0.000 C 
ATOM     12  C   UNL     1       2.865   2.630  18.825  0.00  0.00    +0.000 C 
ATOM     13  O   UNL     1       2.027   2.450  19.710  0.00  0.00    +0.000 OA
ATOM     14  N   UNL     1       3.199   3.895  18.324  0.00  0.00    +0.000 N 
ATOM     15  C   UNL     1       2.596   5.023  18.877  0.00  0.00    +0.000 C 
ATOM     16  C   UNL     1       2.939   6.292  18.559  0.00  0.00    +0.000 C 
ATOM     17  C   UNL     1       4.059   6.546  17.563  0.00  0.00    +0.000 C 
ATOM     18  C   UNL     1       4.908   5.317  17.268  0.00  0.00    +0.000 C 
ATOM     19  C   UNL     1       4.028   4.092  17.128  0.00  0.00    +0.000 C 
ENDBRANCH   1  16
TORSDOF 1
ENDMDL
MODEL 8
REMARK VINA RESULT:      -6.9      1.661      2.309
REMARK  Name = 
REMARK  2 active torsions:
REMARK  status: ('A' for Active; 'I' for Inactive)
REMARK    1  A    between atoms: C_1  and  C_2
REMARK    2  A    between atoms: C_6  and  C_7
REMARK                            x       y       z     vdW  Elec       q    Type
REMARK                         _______ _______ _______ _____ _____    ______ ____
ROOT
ATOM      1  C   UNL     1       5.250   4.388  16.279  0.00  0.00    +0.000 A 
ATOM      2  C   UNL     1       6.370   5.173  16.059  0.00  0.00    +0.000 A 
ATOM      3  C   UNL     1       6.805   4.957  14.733  0.00  0.00    +0.000 A 
ATOM      4  N   UNL     1       7.853   5.512  14.080  0.00  0.00    +0.000 NA
ATOM      5  C   UNL     1       7.995   5.103  12.800  0.00  0.00    +0.000 A 
ATOM      6  C   UNL     1       7.172   4.198  12.144  0.00  0.00    +0.000 A 
ATOM      7  C   UNL     1       6.098   3.633  12.826  0.00  0.00    +0.000 A 
ATOM      8  C   UNL     1       5.934   4.042  14.149  0.00  0.00    +0.000 A 
ATOM      9  N   UNL     1       4.999   3.712  15.103  0.00  0.00    +0.000 N 
ATOM     10  H   UNL     1       4.225   3.083  14.943  0.00  0.00    +0.000 HD
ENDROOT
BRANCH   1  16
ATOM     11  C   UNL     1       1.547   6.500  20.721  0.00  0.00    +0.000 C 
ATOM     12  C   UNL     1       2.392   6.566  19.472  0.00  0.00    +0.000 C 
ATOM     13  O   UNL     1       2.669   7.662  18.981  0.00  0.00    +0.000 OA
ATOM     14  N   UNL     1       2.880   5.352  18.973  0.00  0.00    +0.000 N 
ATOM     15  C   UNL     1       3.762   5.368  17.895  0.00  0.00    +0.000 C 
ATOM     16  C   UNL     1       4.390   4.269  17.420  0.00  0.00    +0.000 C 
ATOM     17  C   UNL     1       4.167   2.921  18.087  0.00  0.00    +0.000 C 
ATOM     18  C   UNL     1       3.494   3.017  19.450  0.00  0.00    +0.000 C 
ATOM     19  C   UNL     1       2.381   4.043  19.416  0.00  0.00    +0.000 C 
ENDBRANCH   1  16
TORSDOF 1
ENDMDL
MODEL 9
REMARK VINA RESULT:      -6.9      3.905      7.856
REMARK  Name = 
REMARK  2 active torsions:
REMARK  status: ('A' for Active; 'I' for Inactive)
REMARK    1  A    between atoms: C_1  and  C_2
REMARK    2  A    between atoms: C_6  and  C_7
REMARK                            x       y       z     vdW  Elec       q    Type
REMARK                         _______ _______ _______ _____ _____    ______ ____
ROOT
ATOM      1  C   UNL     1       1.654   7.945  19.989  0.00  0.00    +0.000 A 
ATOM      2  C   UNL     1       1.199   9.173  19.538  0.00  0.00    +0.000 A 
ATOM      3  C   UNL     1       0.532   9.814  20.605  0.00  0.00    +0.000 A 
ATOM      4  N   UNL     1      -0.066  11.028  20.629  0.00  0.00    +0.000 NA
ATOM      5  C   UNL     1      -0.607  11.363  21.820  0.00  0.00    +0.000 A 
ATOM      6  C   UNL     1      -0.587  10.580  22.966  0.00  0.00    +0.000 A 
ATOM      7  C   UNL     1       0.030   9.333  22.929  0.00  0.00    +0.000 A 
ATOM      8  C   UNL     1       0.595   8.969  21.708  0.00  0.00    +0.000 A 
ATOM      9  N   UNL     1       1.281   7.843  21.313  0.00  0.00    +0.000 N 
ATOM     10  H   UNL     1       1.499   7.069  21.924  0.00  0.00    +0.000 HD
ENDROOT
BRANCH   1  16
ATOM     11  C   UNL     1       4.135   2.342  19.396  0.00  0.00    +0.000 C 
ATOM     12  C   UNL     1       3.261   3.415  19.999  0.00  0.00    +0.000 C 
ATOM     13  O   UNL     1       2.721   3.220  21.089  0.00  0.00    +0.000 OA
ATOM     14  N   UNL     1       3.169   4.623  19.298  0.00  0.00    +0.000 N 
ATOM     15  C   UNL     1       2.473   5.687  19.870  0.00  0.00    +0.000 C 
ATOM     16  C   UNL     1       2.432   6.931  19.341  0.00  0.00    +0.000 C 
ATOM     17  C   UNL     1       3.195   7.235  18.060  0.00  0.00    +0.000 C 
ATOM     18  C   UNL     1       4.207   6.162  17.681  0.00  0.00    +0.000 C 
ATOM     19  C   UNL     1       3.622   4.784  17.910  0.00  0.00    +0.000 C 
ENDBRANCH   1  16
TORSDOF 1
ENDMDL
