MODEL 1
REMARK VINA RESULT:      -8.4      0.000      0.000
REMARK  Name = 
REMARK  10 active torsions:
REMARK  status: ('A' for Active; 'I' for Inactive)
REMARK    1  A    between atoms: C_1  and  C_2
REMARK    2  A    between atoms: C_2  and  N_3
REMARK    3  A    between atoms: C_2  and  C_4
REMARK    4  A    between atoms: C_2  and  C_6
REMARK    5  A    between atoms: C_4  and  O_5
REMARK    6  A    between atoms: N_8  and  C_9
REMARK    7  A    between atoms: C_12  and  O_13
REMARK    8  A    between atoms: O_13  and  C_14
REMARK    9  A    between atoms: C_14  and  C_15
REMARK   10  A    between atoms: C_15  and  C_16
REMARK                            x       y       z     vdW  Elec       q    Type
REMARK                         _______ _______ _______ _____ _____    ______ ____
ROOT
ATOM      1  C   UNL     1       6.041   4.938  18.426  0.00  0.00    +0.000 A 
ATOM      2  C   UNL     1       7.336   5.224  18.841  0.00  0.00    +0.000 A 
ATOM      3  C   UNL     1       7.985   6.376  18.424  0.00  0.00    +0.000 A 
ATOM      4  C   UNL     1       7.372   7.273  17.552  0.00  0.00    +0.000 A 
ATOM      5  C   UNL     1       6.082   6.985  17.099  0.00  0.00    +0.000 A 
ATOM      6  C   UNL     1       5.420   5.815  17.529  0.00  0.00    +0.000 A 
ENDROOT
BRANCH   1   9
ATOM      7  C   UNL     1       4.282   3.204  18.230  0.00  0.00    +0.000 C 
ATOM      8  O   UNL     1       3.863   3.551  17.123  0.00  0.00    +0.000 OA
ATOM      9  N   UNL     1       5.368   3.783  18.884  0.00  0.00    +0.000 N 
ATOM     10  H   UNL     1       5.799   3.272  19.643  0.00  0.00    +0.000 HD
BRANCH   7  12
ATOM     11  C   UNL     1       2.067   2.213  18.957  0.00  0.00    +0.000 C 
ATOM     12  C   UNL     1       3.587   2.043  18.989  0.00  0.00    +0.000 C 
BRANCH  12  13
ATOM     13  N   UNL     1       3.959   0.755  18.348  0.00  0.00    +0.000 NA
ATOM     14  H   UNL     1       3.596   0.741  17.392  0.00  0.00    +0.000 HD
ATOM     15  H   UNL     1       3.510  -0.022  18.826  0.00  0.00    +0.000 HD
ENDBRANCH  12  13
BRANCH  12  16
ATOM     16  C   UNL     1       4.097   2.061  20.459  0.00  0.00    +0.000 C 
BRANCH  16  17
ATOM     17  O   UNL     1       5.377   1.439  20.596  0.00  0.00    +0.000 OA
ATOM     18  H   UNL     1       5.974   2.139  20.933  0.00  0.00    +0.000 HD
ENDBRANCH  16  17
ENDBRANCH  12  16
ENDBRANCH   7  12
ENDBRANCH   1   9
BRANCH   4  19
ATOM     19  O   UNL     1       7.970   8.428  17.099  0.00  0.00    +0.000 OA
BRANCH  19  20
ATOM     20  C   UNL     1       7.942   9.497  18.058  0.00  0.00    +0.000 C 
BRANCH  20  21
ATOM     21  C   UNL     1       9.136   9.470  19.004  0.00  0.00    +0.000 C 
BRANCH  21  22
ATOM     22  C   UNL     1       9.776  10.842  19.069  0.00  0.00    +0.000 A 
ATOM     23  C   UNL     1       9.915  11.507  20.294  0.00  0.00    +0.000 A 
ATOM     24  C   UNL     1      10.512  12.771  20.354  0.00  0.00    +0.000 A 
ATOM     25  C   UNL     1      10.989  13.381  19.192  0.00  0.00    +0.000 A 
ATOM     26 CL   UNL     1      11.681  14.958  19.336  0.00  0.00    +0.000 Cl
ATOM     27  C   UNL     1      10.888  12.712  17.968  0.00  0.00    +0.000 A 
ATOM     28 CL   UNL     1      11.481  13.391  16.493  0.00  0.00    +0.000 Cl
ATOM     29  C   UNL     1      10.290  11.446  17.911  0.00  0.00    +0.000 A 
ENDBRANCH  21  22
ENDBRANCH  20  21
ENDBRANCH  19  20
ENDBRANCH   4  19
TORSDOF 9
ENDMDL
MODEL 2
REMARK VINA RESULT:      -8.2      1.880      2.671
REMARK  Name = 
REMARK  10 active torsions:
REMARK  status: ('A' for Active; 'I' for Inactive)
REMARK    1  A    between atoms: C_1  and  C_2
REMARK    2  A    between atoms: C_2  and  N_3
REMARK    3  A    between atoms: C_2  and  C_4
REMARK    4  A    between atoms: C_2  and  C_6
REMARK    5  A    between atoms: C_4  and  O_5
REMARK    6  A    between atoms: N_8  and  C_9
REMARK    7  A    between atoms: C_12  and  O_13
REMARK    8  A    between atoms: O_13  and  C_14
REMARK    9  A    between atoms: C_14  and  C_15
REMARK   10  A    between atoms: C_15  and  C_16
REMARK                            x       y       z     vdW  Elec       q    Type
REMARK                         _______ _______ _______ _____ _____    ______ ____
ROOT
ATOM      1  C   UNL     1       4.876   5.054  18.399  0.00  0.00    +0.000 A 
ATOM      2  C   UNL     1       4.574   5.974  17.402  0.00  0.00    +0.000 A 
ATOM      3  C   UNL     1       5.532   6.858  16.928  0.00  0.00    +0.000 A 
ATOM      4  C   UNL     1       6.821   6.874  17.456  0.00  0.00    +0.000 A 
ATOM      5  C   UNL     1       7.132   5.979  18.482  0.00  0.00    +0.000 A 
ATOM      6  C   UNL     1       6.159   5.075  18.959  0.00  0.00    +0.000 A 
ENDROOT
BRANCH   1   9
ATOM      7  C   UNL     1       2.819   4.469  19.651  0.00  0.00    +0.000 C 
ATOM      8  O   UNL     1       2.501   5.622  19.950  0.00  0.00    +0.000 OA
ATOM      9  N   UNL     1       3.910   4.129  18.852  0.00  0.00    +0.000 N 
ATOM     10  H   UNL     1       3.936   3.203  18.446  0.00  0.00    +0.000 HD
BRANCH   7  12
ATOM     11  C   UNL     1       2.474   2.826  21.547  0.00  0.00    +0.000 C 
ATOM     12  C   UNL     1       1.976   3.277  20.173  0.00  0.00    +0.000 C 
BRANCH  12  13
ATOM     13  N   UNL     1       0.553   3.694  20.269  0.00  0.00    +0.000 NA
ATOM     14  H   UNL     1       0.104   3.176  21.028  0.00  0.00    +0.000 HD
ATOM     15  H   UNL     1       0.049   3.439  19.424  0.00  0.00    +0.000 HD
ENDBRANCH  12  13
BRANCH  12  16
ATOM     16  C   UNL     1       2.109   2.113  19.148  0.00  0.00    +0.000 C 
BRANCH  16  17
ATOM     17  O   UNL     1       0.939   1.967  18.339  0.00  0.00    +0.000 OA
ATOM     18  H   UNL     1       0.182   2.098  18.947  0.00  0.00    +0.000 HD
ENDBRANCH  16  17
ENDBRANCH  12  16
ENDBRANCH   7  12
ENDBRANCH   1   9
BRANCH   4  19
ATOM     19  O   UNL     1       7.810   7.734  17.029  0.00  0.00    +0.000 OA
BRANCH  19  20
ATOM     20  C   UNL     1       7.805   8.994  17.718  0.00  0.00    +0.000 C 
BRANCH  20  21
ATOM     21  C   UNL     1       8.815   9.047  18.857  0.00  0.00    +0.000 C 
BRANCH  21  22
ATOM     22  C   UNL     1       9.348  10.457  19.010  0.00  0.00    +0.000 A 
ATOM     23  C   UNL     1       9.850  11.155  17.903  0.00  0.00    +0.000 A 
ATOM     24  C   UNL     1      10.335  12.459  18.044  0.00  0.00    +0.000 A 
ATOM     25  C   UNL     1      10.314  13.087  19.291  0.00  0.00    +0.000 A 
ATOM     26 CL   UNL     1      10.964  14.685  19.398  0.00  0.00    +0.000 Cl
ATOM     27  C   UNL     1       9.783  12.415  20.397  0.00  0.00    +0.000 A 
ATOM     28 CL   UNL     1       9.698  13.138  21.965  0.00  0.00    +0.000 Cl
ATOM     29  C   UNL     1       9.297  11.109  20.252  0.00  0.00    +0.000 A 
ENDBRANCH  21  22
ENDBRANCH  20  21
ENDBRANCH  19  20
ENDBRANCH   4  19
TORSDOF 9
ENDMDL
MODEL 3
REMARK VINA RESULT:      -8.1      1.396      1.761
REMARK  Name = 
REMARK  10 active torsions:
REMARK  status: ('A' for Active; 'I' for Inactive)
REMARK    1  A    between atoms: C_1  and  C_2
REMARK    2  A    between atoms: C_2  and  N_3
REMARK    3  A    between atoms: C_2  and  C_4
REMARK    4  A    between atoms: C_2  and  C_6
REMARK    5  A    between atoms: C_4  and  O_5
REMARK    6  A    between atoms: N_8  and  C_9
REMARK    7  A    between atoms: C_12  and  O_13
REMARK    8  A    between atoms: O_13  and  C_14
REMARK    9  A    between atoms: C_14  and  C_15
REMARK   10  A    between atoms: C_15  and  C_16
REMARK                            x       y       z     vdW  Elec       q    Type
REMARK                         _______ _______ _______ _____ _____    ______ ____
ROOT
ATOM      1  C   UNL     1       4.848   5.256  17.843  0.00  0.00    +0.000 A 
ATOM      2  C   UNL     1       4.714   6.263  16.894  0.00  0.00    +0.000 A 
ATOM      3  C   UNL     1       5.755   7.137  16.624  0.00  0.00    +0.000 A 
ATOM      4  C   UNL     1       6.962   7.056  17.314  0.00  0.00    +0.000 A 
ATOM      5  C   UNL     1       7.104   6.070  18.294  0.00  0.00    +0.000 A 
ATOM      6  C   UNL     1       6.045   5.176  18.564  0.00  0.00    +0.000 A 
ENDROOT
BRANCH   1   9
ATOM      7  C   UNL     1       2.936   4.422  19.179  0.00  0.00    +0.000 C 
ATOM      8  O   UNL     1       2.903   5.359  19.980  0.00  0.00    +0.000 OA
ATOM      9  N   UNL     1       3.800   4.342  18.088  0.00  0.00    +0.000 N 
ATOM     10  H   UNL     1       3.578   3.689  17.348  0.00  0.00    +0.000 HD
BRANCH   7  12
ATOM     11  C   UNL     1       1.019   3.465  20.529  0.00  0.00    +0.000 C 
ATOM     12  C   UNL     1       1.963   3.226  19.350  0.00  0.00    +0.000 C 
BRANCH  12  13
ATOM     13  N   UNL     1       1.172   3.062  18.103  0.00  0.00    +0.000 NA
ATOM     14  H   UNL     1       1.808   2.856  17.329  0.00  0.00    +0.000 HD
ATOM     15  H   UNL     1       0.711   3.934  17.856  0.00  0.00    +0.000 HD
ENDBRANCH  12  13
BRANCH  12  16
ATOM     16  C   UNL     1       2.817   1.949  19.598  0.00  0.00    +0.000 C 
BRANCH  16  17
ATOM     17  O   UNL     1       4.115   2.258  20.112  0.00  0.00    +0.000 OA
ATOM     18  H   UNL     1       4.127   1.901  21.025  0.00  0.00    +0.000 HD
ENDBRANCH  16  17
ENDBRANCH  12  16
ENDBRANCH   7  12
ENDBRANCH   1   9
BRANCH   4  19
ATOM     19  O   UNL     1       8.028   7.901  17.092  0.00  0.00    +0.000 OA
BRANCH  19  20
ATOM     20  C   UNL     1       7.946   9.127  17.836  0.00  0.00    +0.000 C 
BRANCH  20  21
ATOM     21  C   UNL     1       8.937   9.182  18.992  0.00  0.00    +0.000 C 
BRANCH  21  22
ATOM     22  C   UNL     1       9.492  10.585  19.131  0.00  0.00    +0.000 A 
ATOM     23  C   UNL     1       9.530  11.217  20.381  0.00  0.00    +0.000 A 
ATOM     24  C   UNL     1      10.049  12.509  20.509  0.00  0.00    +0.000 A 
ATOM     25  C   UNL     1      10.549  13.182  19.392  0.00  0.00    +0.000 A 
ATOM     26 CL   UNL     1      11.141  14.790  19.619  0.00  0.00    +0.000 Cl
ATOM     27  C   UNL     1      10.550  12.549  18.146  0.00  0.00    +0.000 A 
ATOM     28 CL   UNL     1      11.177  13.307  16.724  0.00  0.00    +0.000 Cl
ATOM     29  C   UNL     1      10.029  11.254  18.020  0.00  0.00    +0.000 A 
ENDBRANCH  21  22
ENDBRANCH  20  21
ENDBRANCH  19  20
ENDBRANCH   4  19
TORSDOF 9
ENDMDL
MODEL 4
REMARK VINA RESULT:      -8.1      1.437      1.594
REMARK  Name = 
REMARK  10 active torsions:
REMARK  status: ('A' for Active; 'I' for Inactive)
REMARK    1  A    between atoms: C_1  and  C_2
REMARK    2  A    between atoms: C_2  and  N_3
REMARK    3  A    between atoms: C_2  and  C_4
REMARK    4  A    between atoms: C_2  and  C_6
REMARK    5  A    between atoms: C_4  and  O_5
REMARK    6  A    between atoms: N_8  and  C_9
REMARK    7  A    between atoms: C_12  and  O_13
REMARK    8  A    between atoms: O_13  and  C_14
REMARK    9  A    between atoms: C_14  and  C_15
REMARK   10  A    between atoms: C_15  and  C_16
REMARK                            x       y       z     vdW  Elec       q    Type
REMARK                         _______ _______ _______ _____ _____    ______ ____
ROOT
ATOM      1  C   UNL     1       4.785   5.335  17.455  0.00  0.00    +0.000 A 
ATOM      2  C   UNL     1       6.070   4.807  17.473  0.00  0.00    +0.000 A 
ATOM      3  C   UNL     1       7.182   5.622  17.323  0.00  0.00    +0.000 A 
ATOM      4  C   UNL     1       7.049   6.994  17.122  0.00  0.00    +0.000 A 
ATOM      5  C   UNL     1       5.763   7.537  17.069  0.00  0.00    +0.000 A 
ATOM      6  C   UNL     1       4.631   6.708  17.227  0.00  0.00    +0.000 A 
ENDROOT
BRANCH   1   9
ATOM      7  C   UNL     1       3.172   4.129  18.898  0.00  0.00    +0.000 C 
ATOM      8  O   UNL     1       3.589   4.564  19.973  0.00  0.00    +0.000 OA
ATOM      9  N   UNL     1       3.656   4.508  17.647  0.00  0.00    +0.000 N 
ATOM     10  H   UNL     1       3.088   4.312  16.834  0.00  0.00    +0.000 HD
BRANCH   7  12
ATOM     11  C   UNL     1       1.116   3.266  20.099  0.00  0.00    +0.000 C 
ATOM     12  C   UNL     1       2.024   3.085  18.881  0.00  0.00    +0.000 C 
BRANCH  12  13
ATOM     13  N   UNL     1       1.232   3.255  17.637  0.00  0.00    +0.000 NA
ATOM     14  H   UNL     1       0.266   2.969  17.814  0.00  0.00    +0.000 HD
ATOM     15  H   UNL     1       1.574   2.633  16.909  0.00  0.00    +0.000 HD
ENDBRANCH  12  13
BRANCH  12  16
ATOM     16  C   UNL     1       2.668   1.669  18.900  0.00  0.00    +0.000 C 
BRANCH  16  17
ATOM     17  O   UNL     1       4.058   1.701  18.565  0.00  0.00    +0.000 OA
ATOM     18  H   UNL     1       4.208   0.919  17.994  0.00  0.00    +0.000 HD
ENDBRANCH  16  17
ENDBRANCH  12  16
ENDBRANCH   7  12
ENDBRANCH   1   9
BRANCH   4  19
ATOM     19  O   UNL     1       8.116   7.850  16.961  0.00  0.00    +0.000 OA
BRANCH  19  20
ATOM     20  C   UNL     1       7.978   9.077  17.695  0.00  0.00    +0.000 C 
BRANCH  20  21
ATOM     21  C   UNL     1       8.781   9.082  18.989  0.00  0.00    +0.000 C 
BRANCH  21  22
ATOM     22  C   UNL     1       9.436  10.435  19.185  0.00  0.00    +0.000 A 
ATOM     23  C   UNL     1       9.651  10.943  20.473  0.00  0.00    +0.000 A 
ATOM     24  C   UNL     1      10.262  12.188  20.654  0.00  0.00    +0.000 A 
ATOM     25  C   UNL     1      10.677  12.936  19.550  0.00  0.00    +0.000 A 
ATOM     26 CL   UNL     1      11.391  14.481  19.847  0.00  0.00    +0.000 Cl
ATOM     27  C   UNL     1      10.501  12.424  18.261  0.00  0.00    +0.000 A 
ATOM     28 CL   UNL     1      11.015  13.279  16.849  0.00  0.00    +0.000 Cl
ATOM     29  C   UNL     1       9.889  11.176  18.083  0.00  0.00    +0.000 A 
ENDBRANCH  21  22
ENDBRANCH  20  21
ENDBRANCH  19  20
ENDBRANCH   4  19
TORSDOF 9
ENDMDL
MODEL 5
REMARK VINA RESULT:      -8.1      1.716      1.935
REMARK  Name = 
REMARK  10 active torsions:
REMARK  status: ('A' for Active; 'I' for Inactive)
REMARK    1  A    between atoms: C_1  and  C_2
REMARK    2  A    between atoms: C_2  and  N_3
REMARK    3  A    between atoms: C_2  and  C_4
REMARK    4  A    between atoms: C_2  and  C_6
REMARK    5  A    between atoms: C_4  and  O_5
REMARK    6  A    between atoms: N_8  and  C_9
REMARK    7  A    between atoms: C_12  and  O_13
REMARK    8  A    between atoms: O_13  and  C_14
REMARK    9  A    between atoms: C_14  and  C_15
REMARK   10  A    between atoms: C_15  and  C_16
REMARK                            x       y       z     vdW  Elec       q    Type
REMARK                         _______ _______ _______ _____ _____    ______ ____
ROOT
ATOM      1  C   UNL     1       6.192   5.068  18.232  0.00  0.00    +0.000 A 
ATOM      2  C   UNL     1       7.348   5.458  18.897  0.00  0.00    +0.000 A 
ATOM      3  C   UNL     1       7.965   6.667  18.616  0.00  0.00    +0.000 A 
ATOM      4  C   UNL     1       7.463   7.521  17.636  0.00  0.00    +0.000 A 
ATOM      5  C   UNL     1       6.320   7.131  16.935  0.00  0.00    +0.000 A 
ATOM      6  C   UNL     1       5.689   5.902  17.226  0.00  0.00    +0.000 A 
ENDROOT
BRANCH   1   9
ATOM      7  C   UNL     1       4.374   3.768  19.301  0.00  0.00    +0.000 C 
ATOM      8  O   UNL     1       3.704   4.736  19.669  0.00  0.00    +0.000 OA
ATOM      9  N   UNL     1       5.544   3.854  18.548  0.00  0.00    +0.000 N 
ATOM     10  H   UNL     1       5.870   3.023  18.073  0.00  0.00    +0.000 HD
BRANCH   7  12
ATOM     11  C   UNL     1       3.620   1.520  18.411  0.00  0.00    +0.000 C 
ATOM     12  C   UNL     1       3.922   2.331  19.672  0.00  0.00    +0.000 C 
BRANCH  12  13
ATOM     13  N   UNL     1       5.002   1.668  20.446  0.00  0.00    +0.000 NA
ATOM     14  H   UNL     1       5.768   2.332  20.586  0.00  0.00    +0.000 HD
ATOM     15  H   UNL     1       5.399   0.897  19.915  0.00  0.00    +0.000 HD
ENDBRANCH  12  13
BRANCH  12  16
ATOM     16  C   UNL     1       2.644   2.446  20.553  0.00  0.00    +0.000 C 
BRANCH  16  17
ATOM     17  O   UNL     1       2.954   2.562  21.944  0.00  0.00    +0.000 OA
ATOM     18  H   UNL     1       3.469   1.759  22.165  0.00  0.00    +0.000 HD
ENDBRANCH  16  17
ENDBRANCH  12  16
ENDBRANCH   7  12
ENDBRANCH   1   9
BRANCH   4  19
ATOM     19  O   UNL     1       8.037   8.731  17.310  0.00  0.00    +0.000 OA
BRANCH  19  20
ATOM     20  C   UNL     1       8.559   9.437  18.446  0.00  0.00    +0.000 C 
BRANCH  20  21
ATOM     21  C   UNL     1       9.433  10.621  18.052  0.00  0.00    +0.000 C 
BRANCH  21  22
ATOM     22  C   UNL     1       9.432  11.656  19.159  0.00  0.00    +0.000 A 
ATOM     23  C   UNL     1       9.794  11.304  20.466  0.00  0.00    +0.000 A 
ATOM     24  C   UNL     1       9.800  12.261  21.485  0.00  0.00    +0.000 A 
ATOM     25  C   UNL     1       9.455  13.586  21.209  0.00  0.00    +0.000 A 
ATOM     26 CL   UNL     1       9.448  14.707  22.524  0.00  0.00    +0.000 Cl
ATOM     27  C   UNL     1       9.127  13.959  19.902  0.00  0.00    +0.000 A 
ATOM     28 CL   UNL     1       8.718  15.584  19.478  0.00  0.00    +0.000 Cl
ATOM     29  C   UNL     1       9.123  12.997  18.882  0.00  0.00    +0.000 A 
ENDBRANCH  21  22
ENDBRANCH  20  21
ENDBRANCH  19  20
ENDBRANCH   4  19
TORSDOF 9
ENDMDL
MODEL 6
REMARK VINA RESULT:      -8.1      1.085      1.128
REMARK  Name = 
REMARK  10 active torsions:
REMARK  status: ('A' for Active; 'I' for Inactive)
REMARK    1  A    between atoms: C_1  and  C_2
REMARK    2  A    between atoms: C_2  and  N_3
REMARK    3  A    between atoms: C_2  and  C_4
REMARK    4  A    between atoms: C_2  and  C_6
REMARK    5  A    between atoms: C_4  and  O_5
REMARK    6  A    between atoms: N_8  and  C_9
REMARK    7  A    between atoms: C_12  and  O_13
REMARK    8  A    between atoms: O_13  and  C_14
REMARK    9  A    between atoms: C_14  and  C_15
REMARK   10  A    between atoms: C_15  and  C_16
REMARK                            x       y       z     vdW  Elec       q    Type
REMARK                         _______ _______ _______ _____ _____    ______ ____
ROOT
ATOM      1  C   UNL     1       6.258   5.349  18.739  0.00  0.00    +0.000 A 
ATOM      2  C   UNL     1       7.558   5.668  19.112  0.00  0.00    +0.000 A 
ATOM      3  C   UNL     1       8.192   6.794  18.609  0.00  0.00    +0.000 A 
ATOM      4  C   UNL     1       7.559   7.629  17.691  0.00  0.00    +0.000 A 
ATOM      5  C   UNL     1       6.263   7.306  17.281  0.00  0.00    +0.000 A 
ATOM      6  C   UNL     1       5.616   6.163  17.798  0.00  0.00    +0.000 A 
ENDROOT
BRANCH   1   9
ATOM      7  C   UNL     1       4.696   3.433  18.575  0.00  0.00    +0.000 C 
ATOM      8  O   UNL     1       4.460   3.543  17.370  0.00  0.00    +0.000 OA
ATOM      9  N   UNL     1       5.600   4.224  19.283  0.00  0.00    +0.000 N 
ATOM     10  H   UNL     1       5.922   3.895  20.183  0.00  0.00    +0.000 HD
BRANCH   7  12
ATOM     11  C   UNL     1       3.219   1.377  18.490  0.00  0.00    +0.000 C 
ATOM     12  C   UNL     1       3.963   2.348  19.408  0.00  0.00    +0.000 C 
BRANCH  12  13
ATOM     13  N   UNL     1       4.960   1.604  20.219  0.00  0.00    +0.000 NA
ATOM     14  H   UNL     1       4.468   1.022  20.901  0.00  0.00    +0.000 HD
ATOM     15  H   UNL     1       5.528   2.248  20.765  0.00  0.00    +0.000 HD
ENDBRANCH  12  13
BRANCH  12  16
ATOM     16  C   UNL     1       2.957   3.070  20.351  0.00  0.00    +0.000 C 
BRANCH  16  17
ATOM     17  O   UNL     1       2.558   4.345  19.842  0.00  0.00    +0.000 OA
ATOM     18  H   UNL     1       3.346   4.704  19.385  0.00  0.00    +0.000 HD
ENDBRANCH  16  17
ENDBRANCH  12  16
ENDBRANCH   7  12
ENDBRANCH   1   9
BRANCH   4  19
ATOM     19  O   UNL     1       8.142   8.756  17.154  0.00  0.00    +0.000 OA
BRANCH  19  20
ATOM     20  C   UNL     1       8.124   9.884  18.043  0.00  0.00    +0.000 C 
BRANCH  20  21
ATOM     21  C   UNL     1       9.208   9.809  19.111  0.00  0.00    +0.000 C 
BRANCH  21  22
ATOM     22  C   UNL     1       9.977  11.113  19.160  0.00  0.00    +0.000 A 
ATOM     23  C   UNL     1      10.164  11.787  20.374  0.00  0.00    +0.000 A 
ATOM     24  C   UNL     1      10.880  12.987  20.420  0.00  0.00    +0.000 A 
ATOM     25  C   UNL     1      11.431  13.524  19.254  0.00  0.00    +0.000 A 
ATOM     26 CL   UNL     1      12.271  15.028  19.379  0.00  0.00    +0.000 Cl
ATOM     27  C   UNL     1      11.283  12.843  18.041  0.00  0.00    +0.000 A 
ATOM     28 CL   UNL     1      11.959  13.431  16.563  0.00  0.00    +0.000 Cl
ATOM     29  C   UNL     1      10.565  11.641  17.999  0.00  0.00    +0.000 A 
ENDBRANCH  21  22
ENDBRANCH  20  21
ENDBRANCH  19  20
ENDBRANCH   4  19
TORSDOF 9
ENDMDL
MODEL 7
REMARK VINA RESULT:      -8.0      1.920      2.496
REMARK  Name = 
REMARK  10 active torsions:
REMARK  status: ('A' for Active; 'I' for Inactive)
REMARK    1  A    between atoms: C_1  and  C_2
REMARK    2  A    between atoms: C_2  and  N_3
REMARK    3  A    between atoms: C_2  and  C_4
REMARK    4  A    between atoms: C_2  and  C_6
REMARK    5  A    between atoms: C_4  and  O_5
REMARK    6  A    between atoms: N_8  and  C_9
REMARK    7  A    between atoms: C_12  and  O_13
REMARK    8  A    between atoms: O_13  and  C_14
REMARK    9  A    between atoms: C_14  and  C_15
REMARK   10  A    between atoms: C_15  and  C_16
REMARK                            x       y       z     vdW  Elec       q    Type
REMARK                         _______ _______ _______ _____ _____    ______ ____
ROOT
ATOM      1  C   UNL     1       4.924   5.219  18.162  0.00  0.00    +0.000 A 
ATOM      2  C   UNL     1       6.157   5.145  18.800  0.00  0.00    +0.000 A 
ATOM      3  C   UNL     1       7.181   6.026  18.486  0.00  0.00    +0.000 A 
ATOM      4  C   UNL     1       7.019   6.998  17.501  0.00  0.00    +0.000 A 
ATOM      5  C   UNL     1       5.797   7.066  16.828  0.00  0.00    +0.000 A 
ATOM      6  C   UNL     1       4.753   6.173  17.151  0.00  0.00    +0.000 A 
ENDROOT
BRANCH   1   9
ATOM      7  C   UNL     1       2.820   4.692  19.359  0.00  0.00    +0.000 C 
ATOM      8  O   UNL     1       2.619   5.826  19.800  0.00  0.00    +0.000 OA
ATOM      9  N   UNL     1       3.871   4.345  18.511  0.00  0.00    +0.000 N 
ATOM     10  H   UNL     1       3.804   3.478  17.995  0.00  0.00    +0.000 HD
BRANCH   7  12
ATOM     11  C   UNL     1       2.639   2.383  20.383  0.00  0.00    +0.000 C 
ATOM     12  C   UNL     1       1.862   3.534  19.742  0.00  0.00    +0.000 C 
BRANCH  12  13
ATOM     13  N   UNL     1       0.845   4.043  20.698  0.00  0.00    +0.000 NA
ATOM     14  H   UNL     1       0.969   5.052  20.812  0.00  0.00    +0.000 HD
ATOM     15  H   UNL     1       0.990   3.640  21.620  0.00  0.00    +0.000 HD
ENDBRANCH  12  13
BRANCH  12  16
ATOM     16  C   UNL     1       1.159   3.047  18.442  0.00  0.00    +0.000 C 
BRANCH  16  17
ATOM     17  O   UNL     1       1.249   4.007  17.386  0.00  0.00    +0.000 OA
ATOM     18  H   UNL     1       1.022   3.518  16.567  0.00  0.00    +0.000 HD
ENDBRANCH  16  17
ENDBRANCH  12  16
ENDBRANCH   7  12
ENDBRANCH   1   9
BRANCH   4  19
ATOM     19  O   UNL     1       8.002   7.895  17.144  0.00  0.00    +0.000 OA
BRANCH  19  20
ATOM     20  C   UNL     1       7.808   9.204  17.703  0.00  0.00    +0.000 C 
BRANCH  20  21
ATOM     21  C   UNL     1       8.932   9.613  18.647  0.00  0.00    +0.000 C 
BRANCH  21  22
ATOM     22  C   UNL     1       9.452  10.985  18.268  0.00  0.00    +0.000 A 
ATOM     23  C   UNL     1      10.810  11.181  17.988  0.00  0.00    +0.000 A 
ATOM     24  C   UNL     1      11.288  12.447  17.632  0.00  0.00    +0.000 A 
ATOM     25  C   UNL     1      10.411  13.530  17.539  0.00  0.00    +0.000 A 
ATOM     26 CL   UNL     1      11.077  15.072  17.130  0.00  0.00    +0.000 Cl
ATOM     27  C   UNL     1       9.047  13.340  17.781  0.00  0.00    +0.000 A 
ATOM     28 CL   UNL     1       7.899  14.626  17.658  0.00  0.00    +0.000 Cl
ATOM     29  C   UNL     1       8.572  12.071  18.137  0.00  0.00    +0.000 A 
ENDBRANCH  21  22
ENDBRANCH  20  21
ENDBRANCH  19  20
ENDBRANCH   4  19
TORSDOF 9
ENDMDL
MODEL 8
REMARK VINA RESULT:      -8.0      1.803      2.019
REMARK  Name = 
REMARK  10 active torsions:
REMARK  status: ('A' for Active; 'I' for Inactive)
REMARK    1  A    between atoms: C_1  and  C_2
REMARK    2  A    between atoms: C_2  and  N_3
REMARK    3  A    between atoms: C_2  and  C_4
REMARK    4  A    between atoms: C_2  and  C_6
REMARK    5  A    between atoms: C_4  and  O_5
REMARK    6  A    between atoms: N_8  and  C_9
REMARK    7  A    between atoms: C_12  and  O_13
REMARK    8  A    between atoms: O_13  and  C_14
REMARK    9  A    between atoms: C_14  and  C_15
REMARK   10  A    between atoms: C_15  and  C_16
REMARK                            x       y       z     vdW  Elec       q    Type
REMARK                         _______ _______ _______ _____ _____    ______ ____
ROOT
ATOM      1  C   UNL     1       4.623   4.959  18.157  0.00  0.00    +0.000 A 
ATOM      2  C   UNL     1       5.723   5.147  18.986  0.00  0.00    +0.000 A 
ATOM      3  C   UNL     1       6.766   5.983  18.616  0.00  0.00    +0.000 A 
ATOM      4  C   UNL     1       6.761   6.642  17.388  0.00  0.00    +0.000 A 
ATOM      5  C   UNL     1       5.678   6.439  16.529  0.00  0.00    +0.000 A 
ATOM      6  C   UNL     1       4.615   5.593  16.909  0.00  0.00    +0.000 A 
ENDROOT
BRANCH   1   9
ATOM      7  C   UNL     1       2.780   4.356  19.698  0.00  0.00    +0.000 C 
ATOM      8  O   UNL     1       2.870   5.348  20.425  0.00  0.00    +0.000 OA
ATOM      9  N   UNL     1       3.545   4.138  18.553  0.00  0.00    +0.000 N 
ATOM     10  H   UNL     1       3.224   3.449  17.886  0.00  0.00    +0.000 HD
BRANCH   7  12
ATOM     11  C   UNL     1       2.114   2.563  21.359  0.00  0.00    +0.000 C 
ATOM     12  C   UNL     1       1.753   3.243  20.037  0.00  0.00    +0.000 C 
BRANCH  12  13
ATOM     13  N   UNL     1       0.400   3.847  20.139  0.00  0.00    +0.000 NA
ATOM     14  H   UNL     1      -0.156   3.307  20.806  0.00  0.00    +0.000 HD
ATOM     15  H   UNL     1      -0.089   3.776  19.250  0.00  0.00    +0.000 HD
ENDBRANCH  12  13
BRANCH  12  16
ATOM     16  C   UNL     1       1.776   2.205  18.878  0.00  0.00    +0.000 C 
BRANCH  16  17
ATOM     17  O   UNL     1       2.941   1.377  18.915  0.00  0.00    +0.000 OA
ATOM     18  H   UNL     1       2.988   1.032  19.831  0.00  0.00    +0.000 HD
ENDBRANCH  16  17
ENDBRANCH  12  16
ENDBRANCH   7  12
ENDBRANCH   1   9
BRANCH   4  19
ATOM     19  O   UNL     1       7.771   7.478  16.966  0.00  0.00    +0.000 OA
BRANCH  19  20
ATOM     20  C   UNL     1       8.310   8.295  18.017  0.00  0.00    +0.000 C 
BRANCH  20  21
ATOM     21  C   UNL     1       7.855   9.746  17.928  0.00  0.00    +0.000 C 
BRANCH  21  22
ATOM     22  C   UNL     1       8.974  10.667  18.370  0.00  0.00    +0.000 A 
ATOM     23  C   UNL     1       9.417  10.664  19.699  0.00  0.00    +0.000 A 
ATOM     24  C   UNL     1      10.455  11.509  20.105  0.00  0.00    +0.000 A 
ATOM     25  C   UNL     1      11.072  12.359  19.185  0.00  0.00    +0.000 A 
ATOM     26 CL   UNL     1      12.322  13.402  19.765  0.00  0.00    +0.000 Cl
ATOM     27  C   UNL     1      10.664  12.346  17.848  0.00  0.00    +0.000 A 
ATOM     28 CL   UNL     1      11.399  13.348  16.647  0.00  0.00    +0.000 Cl
ATOM     29  C   UNL     1       9.624  11.498  17.444  0.00  0.00    +0.000 A 
ENDBRANCH  21  22
ENDBRANCH  20  21
ENDBRANCH  19  20
ENDBRANCH   4  19
TORSDOF 9
ENDMDL
MODEL 9
REMARK VINA RESULT:      -7.9      1.945      2.696
REMARK  Name = 
REMARK  10 active torsions:
REMARK  status: ('A' for Active; 'I' for Inactive)
REMARK    1  A    between atoms: C_1  and  C_2
REMARK    2  A    between atoms: C_2  and  N_3
REMARK    3  A    between atoms: C_2  and  C_4
REMARK    4  A    between atoms: C_2  and  C_6
REMARK    5  A    between atoms: C_4  and  O_5
REMARK    6  A    between atoms: N_8  and  C_9
REMARK    7  A    between atoms: C_12  and  O_13
REMARK    8  A    between atoms: O_13  and  C_14
REMARK    9  A    between atoms: C_14  and  C_15
REMARK   10  A    between atoms: C_15  and  C_16
REMARK                            x       y       z     vdW  Elec       q    Type
REMARK                         _______ _______ _______ _____ _____    ______ ____
ROOT
ATOM      1  C   UNL     1       4.858   4.890  18.226  0.00  0.00    +0.000 A 
ATOM      2  C   UNL     1       5.981   5.038  19.032  0.00  0.00    +0.000 A 
ATOM      3  C   UNL     1       7.019   5.882  18.668  0.00  0.00    +0.000 A 
ATOM      4  C   UNL     1       6.986   6.589  17.468  0.00  0.00    +0.000 A 
ATOM      5  C   UNL     1       5.880   6.428  16.630  0.00  0.00    +0.000 A 
ATOM      6  C   UNL     1       4.821   5.573  17.004  0.00  0.00    +0.000 A 
ENDROOT
BRANCH   1   9
ATOM      7  C   UNL     1       2.657   4.515  19.299  0.00  0.00    +0.000 C 
ATOM      8  O   UNL     1       2.406   5.701  19.528  0.00  0.00    +0.000 OA
ATOM      9  N   UNL     1       3.785   4.061  18.617  0.00  0.00    +0.000 N 
ATOM     10  H   UNL     1       3.773   3.120  18.247  0.00  0.00    +0.000 HD
BRANCH   7  12
ATOM     11  C   UNL     1       2.420   2.351  20.593  0.00  0.00    +0.000 C 
ATOM     12  C   UNL     1       1.677   3.413  19.780  0.00  0.00    +0.000 C 
BRANCH  12  13
ATOM     13  N   UNL     1       0.621   4.035  20.619  0.00  0.00    +0.000 NA
ATOM     14  H   UNL     1      -0.245   4.092  20.077  0.00  0.00    +0.000 HD
ATOM     15  H   UNL     1       0.868   4.995  20.848  0.00  0.00    +0.000 HD
ENDBRANCH  12  13
BRANCH  12  16
ATOM     16  C   UNL     1       1.031   2.767  18.520  0.00  0.00    +0.000 C 
BRANCH  16  17
ATOM     17  O   UNL     1       1.148   3.601  17.364  0.00  0.00    +0.000 OA
ATOM     18  H   UNL     1       0.229   3.813  17.100  0.00  0.00    +0.000 HD
ENDBRANCH  16  17
ENDBRANCH  12  16
ENDBRANCH   7  12
ENDBRANCH   1   9
BRANCH   4  19
ATOM     19  O   UNL     1       7.990   7.436  17.052  0.00  0.00    +0.000 OA
BRANCH  19  20
ATOM     20  C   UNL     1       7.901   8.749  17.626  0.00  0.00    +0.000 C 
BRANCH  20  21
ATOM     21  C   UNL     1       8.901   8.969  18.754  0.00  0.00    +0.000 C 
BRANCH  21  22
ATOM     22  C   UNL     1       9.123  10.452  18.968  0.00  0.00    +0.000 A 
ATOM     23  C   UNL     1       9.138  11.336  17.880  0.00  0.00    +0.000 A 
ATOM     24  C   UNL     1       9.335  12.706  18.079  0.00  0.00    +0.000 A 
ATOM     25  C   UNL     1       9.507  13.213  19.369  0.00  0.00    +0.000 A 
ATOM     26 CL   UNL     1       9.783  14.911  19.536  0.00  0.00    +0.000 Cl
ATOM     27  C   UNL     1       9.458  12.347  20.466  0.00  0.00    +0.000 A 
ATOM     28 CL   UNL     1       9.635  12.905  22.092  0.00  0.00    +0.000 Cl
ATOM     29  C   UNL     1       9.260  10.975  20.263  0.00  0.00    +0.000 A 
ENDBRANCH  21  22
ENDBRANCH  20  21
ENDBRANCH  19  20
ENDBRANCH   4  19
TORSDOF 9
ENDMDL
