MODEL 1
REMARK VINA RESULT:      -7.9      0.000      0.000
REMARK  Name = 
REMARK  5 active torsions:
REMARK  status: ('A' for Active; 'I' for Inactive)
REMARK    1  A    between atoms: C_1  and  N_2
REMARK    2  A    between atoms: C_6  and  S_7
REMARK    3  A    between atoms: S_7  and  C_8
REMARK    4  A    between atoms: C_8  and  C_9
REMARK    5  A    between atoms: C_9  and  C_11
REMARK                            x       y       z     vdW  Elec       q    Type
REMARK                         _______ _______ _______ _____ _____    ______ ____
ROOT
ATOM      1  C   UNL     1       6.200   5.673  17.596  0.00  0.00    +0.000 C 
ATOM      2  O   UNL     1       6.548   6.854  17.569  0.00  0.00    +0.000 OA
ENDROOT
BRANCH   1   3
ATOM      3  C   UNL     1       4.921   5.329  18.311  0.00  0.00    +0.000 A 
ATOM      4  C   UNL     1       3.821   6.188  18.166  0.00  0.00    +0.000 A 
ATOM      5  C   UNL     1       2.608   5.914  18.808  0.00  0.00    +0.000 A 
ATOM      6  C   UNL     1       2.464   4.774  19.607  0.00  0.00    +0.000 A 
ATOM      7  C   UNL     1       3.566   3.919  19.781  0.00  0.00    +0.000 A 
ATOM      8  C   UNL     1       4.777   4.191  19.113  0.00  0.00    +0.000 A 
ATOM      9  C   UNL     1       3.466   2.668  20.623  0.00  0.00    +0.000 C 
ATOM     10  C   UNL     1       2.262   2.661  21.562  0.00  0.00    +0.000 C 
ATOM     11  C   UNL     1       1.004   3.089  20.818  0.00  0.00    +0.000 C 
ATOM     12  C   UNL     1       1.151   4.524  20.312  0.00  0.00    +0.000 C 
ENDBRANCH   1   3
BRANCH   1  13
ATOM     13  C   UNL     1       6.972   4.567  16.882  0.00  0.00    +0.000 C 
BRANCH  13  14
ATOM     14  S   UNL     1       6.021   3.867  15.485  0.00  0.00    +0.000 S 
BRANCH  14  20
ATOM     15  C   UNL     1       5.779   3.206  12.300  0.00  0.00    +0.000 C 
ATOM     16  N   UNL     1       6.681   4.186  12.841  0.00  0.00    +0.000 N 
ATOM     17  C   UNL     1       7.532   4.958  12.112  0.00  0.00    +0.000 A 
ATOM     18  N   UNL     1       8.203   5.759  12.915  0.00  0.00    +0.000 NA
ATOM     19  N   UNL     1       7.781   5.499  14.202  0.00  0.00    +0.000 NA
ATOM     20  C   UNL     1       6.870   4.554  14.144  0.00  0.00    +0.000 A 
ENDBRANCH  14  20
ENDBRANCH  13  14
ENDBRANCH   1  13
TORSDOF 4
ENDMDL
MODEL 2
REMARK VINA RESULT:      -7.4      2.533      3.535
REMARK  Name = 
REMARK  5 active torsions:
REMARK  status: ('A' for Active; 'I' for Inactive)
REMARK    1  A    between atoms: C_1  and  N_2
REMARK    2  A    between atoms: C_6  and  S_7
REMARK    3  A    between atoms: S_7  and  C_8
REMARK    4  A    between atoms: C_8  and  C_9
REMARK    5  A    between atoms: C_9  and  C_11
REMARK                            x       y       z     vdW  Elec       q    Type
REMARK                         _______ _______ _______ _____ _____    ______ ____
ROOT
ATOM      1  C   UNL     1       4.933   5.958  15.864  0.00  0.00    +0.000 C 
ATOM      2  O   UNL     1       4.906   7.110  15.429  0.00  0.00    +0.000 OA
ENDROOT
BRANCH   1   3
ATOM      3  C   UNL     1       4.062   5.627  17.045  0.00  0.00    +0.000 A 
ATOM      4  C   UNL     1       3.709   6.660  17.927  0.00  0.00    +0.000 A 
ATOM      5  C   UNL     1       2.898   6.408  19.040  0.00  0.00    +0.000 A 
ATOM      6  C   UNL     1       2.420   5.118  19.297  0.00  0.00    +0.000 A 
ATOM      7  C   UNL     1       2.786   4.069  18.435  0.00  0.00    +0.000 A 
ATOM      8  C   UNL     1       3.584   4.337  17.305  0.00  0.00    +0.000 A 
ATOM      9  C   UNL     1       2.290   2.659  18.657  0.00  0.00    +0.000 C 
ATOM     10  C   UNL     1       1.750   2.417  20.064  0.00  0.00    +0.000 C 
ATOM     11  C   UNL     1       0.814   3.546  20.476  0.00  0.00    +0.000 C 
ATOM     12  C   UNL     1       1.573   4.872  20.525  0.00  0.00    +0.000 C 
ENDBRANCH   1   3
BRANCH   1  13
ATOM     13  C   UNL     1       5.758   4.849  15.216  0.00  0.00    +0.000 C 
BRANCH  13  14
ATOM     14  S   UNL     1       7.526   4.965  15.669  0.00  0.00    +0.000 S 
BRANCH  14  20
ATOM     15  C   UNL     1       7.799   7.724  17.386  0.00  0.00    +0.000 C 
ATOM     16  N   UNL     1       7.543   6.441  17.981  0.00  0.00    +0.000 N 
ATOM     17  C   UNL     1       7.376   6.211  19.312  0.00  0.00    +0.000 A 
ATOM     18  N   UNL     1       7.143   4.930  19.515  0.00  0.00    +0.000 NA
ATOM     19  N   UNL     1       7.161   4.308  18.284  0.00  0.00    +0.000 NA
ATOM     20  C   UNL     1       7.403   5.224  17.374  0.00  0.00    +0.000 A 
ENDBRANCH  14  20
ENDBRANCH  13  14
ENDBRANCH   1  13
TORSDOF 4
ENDMDL
MODEL 3
REMARK VINA RESULT:      -7.3      4.547      6.423
REMARK  Name = 
REMARK  5 active torsions:
REMARK  status: ('A' for Active; 'I' for Inactive)
REMARK    1  A    between atoms: C_1  and  N_2
REMARK    2  A    between atoms: C_6  and  S_7
REMARK    3  A    between atoms: S_7  and  C_8
REMARK    4  A    between atoms: C_8  and  C_9
REMARK    5  A    between atoms: C_9  and  C_11
REMARK                            x       y       z     vdW  Elec       q    Type
REMARK                         _______ _______ _______ _____ _____    ______ ____
ROOT
ATOM      1  C   UNL     1       3.821   5.479  18.522  0.00  0.00    +0.000 C 
ATOM      2  O   UNL     1       4.934   5.432  19.048  0.00  0.00    +0.000 OA
ENDROOT
BRANCH   1   3
ATOM      3  C   UNL     1       2.995   6.720  18.724  0.00  0.00    +0.000 A 
ATOM      4  C   UNL     1       2.927   7.657  17.681  0.00  0.00    +0.000 A 
ATOM      5  C   UNL     1       2.171   8.827  17.816  0.00  0.00    +0.000 A 
ATOM      6  C   UNL     1       1.463   9.087  18.995  0.00  0.00    +0.000 A 
ATOM      7  C   UNL     1       1.542   8.169  20.056  0.00  0.00    +0.000 A 
ATOM      8  C   UNL     1       2.288   6.983  19.903  0.00  0.00    +0.000 A 
ATOM      9  C   UNL     1       0.789   8.392  21.348  0.00  0.00    +0.000 C 
ATOM     10  C   UNL     1       0.322   9.833  21.539  0.00  0.00    +0.000 C 
ATOM     11  C   UNL     1      -0.332  10.354  20.266  0.00  0.00    +0.000 C 
ATOM     12  C   UNL     1       0.681  10.375  19.121  0.00  0.00    +0.000 C 
ENDBRANCH   1   3
BRANCH   1  13
ATOM     13  C   UNL     1       3.282   4.365  17.628  0.00  0.00    +0.000 C 
BRANCH  13  14
ATOM     14  S   UNL     1       3.755   2.710  18.245  0.00  0.00    +0.000 S 
BRANCH  14  20
ATOM     15  C   UNL     1       0.571   2.588  18.937  0.00  0.00    +0.000 C 
ATOM     16  N   UNL     1       1.599   2.650  19.940  0.00  0.00    +0.000 N 
ATOM     17  C   UNL     1       1.387   2.659  21.284  0.00  0.00    +0.000 A 
ATOM     18  N   UNL     1       2.542   2.706  21.915  0.00  0.00    +0.000 NA
ATOM     19  N   UNL     1       3.534   2.732  20.957  0.00  0.00    +0.000 NA
ATOM     20  C   UNL     1       2.956   2.700  19.778  0.00  0.00    +0.000 A 
ENDBRANCH  14  20
ENDBRANCH  13  14
ENDBRANCH   1  13
TORSDOF 4
ENDMDL
MODEL 4
REMARK VINA RESULT:      -7.2      4.632      6.566
REMARK  Name = 
REMARK  5 active torsions:
REMARK  status: ('A' for Active; 'I' for Inactive)
REMARK    1  A    between atoms: C_1  and  N_2
REMARK    2  A    between atoms: C_6  and  S_7
REMARK    3  A    between atoms: S_7  and  C_8
REMARK    4  A    between atoms: C_8  and  C_9
REMARK    5  A    between atoms: C_9  and  C_11
REMARK                            x       y       z     vdW  Elec       q    Type
REMARK                         _______ _______ _______ _____ _____    ______ ____
ROOT
ATOM      1  C   UNL     1       4.003   5.009  18.158  0.00  0.00    +0.000 C 
ATOM      2  O   UNL     1       3.908   4.795  16.948  0.00  0.00    +0.000 OA
ENDROOT
BRANCH   1   3
ATOM      3  C   UNL     1       3.169   6.114  18.746  0.00  0.00    +0.000 A 
ATOM      4  C   UNL     1       2.665   5.953  20.046  0.00  0.00    +0.000 A 
ATOM      5  C   UNL     1       1.886   6.952  20.642  0.00  0.00    +0.000 A 
ATOM      6  C   UNL     1       1.594   8.136  19.955  0.00  0.00    +0.000 A 
ATOM      7  C   UNL     1       2.073   8.299  18.643  0.00  0.00    +0.000 A 
ATOM      8  C   UNL     1       2.875   7.298  18.059  0.00  0.00    +0.000 A 
ATOM      9  C   UNL     1       1.800   9.561  17.858  0.00  0.00    +0.000 C 
ATOM     10  C   UNL     1       0.656  10.398  18.427  0.00  0.00    +0.000 C 
ATOM     11  C   UNL     1       0.807  10.548  19.935  0.00  0.00    +0.000 C 
ATOM     12  C   UNL     1       0.724   9.181  20.614  0.00  0.00    +0.000 C 
ENDBRANCH   1   3
BRANCH   1  13
ATOM     13  C   UNL     1       4.874   4.162  19.082  0.00  0.00    +0.000 C 
BRANCH  13  14
ATOM     14  S   UNL     1       4.300   2.428  19.155  0.00  0.00    +0.000 S 
BRANCH  14  20
ATOM     15  C   UNL     1       1.088   2.662  18.644  0.00  0.00    +0.000 C 
ATOM     16  N   UNL     1       1.685   2.663  19.951  0.00  0.00    +0.000 N 
ATOM     17  C   UNL     1       1.006   2.752  21.127  0.00  0.00    +0.000 A 
ATOM     18  N   UNL     1       1.853   2.708  22.134  0.00  0.00    +0.000 NA
ATOM     19  N   UNL     1       3.120   2.590  21.601  0.00  0.00    +0.000 NA
ATOM     20  C   UNL     1       3.006   2.566  20.293  0.00  0.00    +0.000 A 
ENDBRANCH  14  20
ENDBRANCH  13  14
ENDBRANCH   1  13
TORSDOF 4
ENDMDL
MODEL 5
REMARK VINA RESULT:      -7.2      2.122      3.391
REMARK  Name = 
REMARK  5 active torsions:
REMARK  status: ('A' for Active; 'I' for Inactive)
REMARK    1  A    between atoms: C_1  and  N_2
REMARK    2  A    between atoms: C_6  and  S_7
REMARK    3  A    between atoms: S_7  and  C_8
REMARK    4  A    between atoms: C_8  and  C_9
REMARK    5  A    between atoms: C_9  and  C_11
REMARK                            x       y       z     vdW  Elec       q    Type
REMARK                         _______ _______ _______ _____ _____    ______ ____
ROOT
ATOM      1  C   UNL     1       4.957   6.405  16.573  0.00  0.00    +0.000 C 
ATOM      2  O   UNL     1       4.896   6.965  15.477  0.00  0.00    +0.000 OA
ENDROOT
BRANCH   1   3
ATOM      3  C   UNL     1       3.963   6.806  17.628  0.00  0.00    +0.000 A 
ATOM      4  C   UNL     1       3.772   5.954  18.727  0.00  0.00    +0.000 A 
ATOM      5  C   UNL     1       2.861   6.280  19.738  0.00  0.00    +0.000 A 
ATOM      6  C   UNL     1       2.121   7.467  19.677  0.00  0.00    +0.000 A 
ATOM      7  C   UNL     1       2.285   8.317  18.569  0.00  0.00    +0.000 A 
ATOM      8  C   UNL     1       3.221   7.991  17.567  0.00  0.00    +0.000 A 
ATOM      9  C   UNL     1       1.522   9.616  18.456  0.00  0.00    +0.000 C 
ATOM     10  C   UNL     1       0.310   9.695  19.381  0.00  0.00    +0.000 C 
ATOM     11  C   UNL     1       0.683   9.239  20.786  0.00  0.00    +0.000 C 
ATOM     12  C   UNL     1       1.123   7.776  20.769  0.00  0.00    +0.000 C 
ENDBRANCH   1   3
BRANCH   1  13
ATOM     13  C   UNL     1       5.951   5.286  16.875  0.00  0.00    +0.000 C 
BRANCH  13  14
ATOM     14  S   UNL     1       5.862   3.945  15.634  0.00  0.00    +0.000 S 
BRANCH  14  20
ATOM     15  C   UNL     1       5.823   3.364  12.425  0.00  0.00    +0.000 C 
ATOM     16  N   UNL     1       6.739   4.275  13.056  0.00  0.00    +0.000 N 
ATOM     17  C   UNL     1       7.688   5.008  12.412  0.00  0.00    +0.000 A 
ATOM     18  N   UNL     1       8.343   5.749  13.282  0.00  0.00    +0.000 NA
ATOM     19  N   UNL     1       7.809   5.491  14.527  0.00  0.00    +0.000 NA
ATOM     20  C   UNL     1       6.850   4.605  14.378  0.00  0.00    +0.000 A 
ENDBRANCH  14  20
ENDBRANCH  13  14
ENDBRANCH   1  13
TORSDOF 4
ENDMDL
MODEL 6
REMARK VINA RESULT:      -7.1      2.180      3.524
REMARK  Name = 
REMARK  5 active torsions:
REMARK  status: ('A' for Active; 'I' for Inactive)
REMARK    1  A    between atoms: C_1  and  N_2
REMARK    2  A    between atoms: C_6  and  S_7
REMARK    3  A    between atoms: S_7  and  C_8
REMARK    4  A    between atoms: C_8  and  C_9
REMARK    5  A    between atoms: C_9  and  C_11
REMARK                            x       y       z     vdW  Elec       q    Type
REMARK                         _______ _______ _______ _____ _____    ______ ____
ROOT
ATOM      1  C   UNL     1       4.557   4.699  17.949  0.00  0.00    +0.000 C 
ATOM      2  O   UNL     1       4.593   3.576  18.455  0.00  0.00    +0.000 OA
ENDROOT
BRANCH   1   3
ATOM      3  C   UNL     1       3.645   5.724  18.567  0.00  0.00    +0.000 A 
ATOM      4  C   UNL     1       3.154   5.490  19.861  0.00  0.00    +0.000 A 
ATOM      5  C   UNL     1       2.305   6.412  20.483  0.00  0.00    +0.000 A 
ATOM      6  C   UNL     1       1.928   7.590  19.828  0.00  0.00    +0.000 A 
ATOM      7  C   UNL     1       2.393   7.825  18.523  0.00  0.00    +0.000 A 
ATOM      8  C   UNL     1       3.266   6.902  17.913  0.00  0.00    +0.000 A 
ATOM      9  C   UNL     1       2.029   9.085  17.773  0.00  0.00    +0.000 C 
ATOM     10  C   UNL     1       0.827   9.820  18.363  0.00  0.00    +0.000 C 
ATOM     11  C   UNL     1       0.967   9.939  19.875  0.00  0.00    +0.000 C 
ATOM     12  C   UNL     1       0.984   8.551  20.515  0.00  0.00    +0.000 C 
ENDBRANCH   1   3
BRANCH   1  13
ATOM     13  C   UNL     1       5.442   5.104  16.774  0.00  0.00    +0.000 C 
BRANCH  13  14
ATOM     14  S   UNL     1       5.683   3.726  15.597  0.00  0.00    +0.000 S 
BRANCH  14  20
ATOM     15  C   UNL     1       5.863   3.322  12.366  0.00  0.00    +0.000 C 
ATOM     16  N   UNL     1       6.720   4.209  13.104  0.00  0.00    +0.000 N 
ATOM     17  C   UNL     1       7.696   4.989  12.564  0.00  0.00    +0.000 A 
ATOM     18  N   UNL     1       8.280   5.691  13.515  0.00  0.00    +0.000 NA
ATOM     19  N   UNL     1       7.670   5.357  14.706  0.00  0.00    +0.000 NA
ATOM     20  C   UNL     1       6.739   4.467  14.447  0.00  0.00    +0.000 A 
ENDBRANCH  14  20
ENDBRANCH  13  14
ENDBRANCH   1  13
TORSDOF 4
ENDMDL
MODEL 7
REMARK VINA RESULT:      -7.1      6.349      8.421
REMARK  Name = 
REMARK  5 active torsions:
REMARK  status: ('A' for Active; 'I' for Inactive)
REMARK    1  A    between atoms: C_1  and  N_2
REMARK    2  A    between atoms: C_6  and  S_7
REMARK    3  A    between atoms: S_7  and  C_8
REMARK    4  A    between atoms: C_8  and  C_9
REMARK    5  A    between atoms: C_9  and  C_11
REMARK                            x       y       z     vdW  Elec       q    Type
REMARK                         _______ _______ _______ _____ _____    ______ ____
ROOT
ATOM      1  C   UNL     1       2.026   8.683  18.264  0.00  0.00    +0.000 C 
ATOM      2  O   UNL     1       2.195   9.551  17.407  0.00  0.00    +0.000 OA
ENDROOT
BRANCH   1   3
ATOM      3  C   UNL     1       2.600   7.316  18.008  0.00  0.00    +0.000 A 
ATOM      4  C   UNL     1       3.876   7.223  17.431  0.00  0.00    +0.000 A 
ATOM      5  C   UNL     1       4.458   5.976  17.174  0.00  0.00    +0.000 A 
ATOM      6  C   UNL     1       3.780   4.793  17.490  0.00  0.00    +0.000 A 
ATOM      7  C   UNL     1       2.491   4.872  18.046  0.00  0.00    +0.000 A 
ATOM      8  C   UNL     1       1.922   6.131  18.321  0.00  0.00    +0.000 A 
ATOM      9  C   UNL     1       1.717   3.628  18.417  0.00  0.00    +0.000 C 
ATOM     10  C   UNL     1       2.255   2.357  17.764  0.00  0.00    +0.000 C 
ATOM     11  C   UNL     1       3.771   2.289  17.902  0.00  0.00    +0.000 C 
ATOM     12  C   UNL     1       4.422   3.462  17.171  0.00  0.00    +0.000 C 
ENDBRANCH   1   3
BRANCH   1  13
ATOM     13  C   UNL     1       1.321   8.956  19.590  0.00  0.00    +0.000 C 
BRANCH  13  14
ATOM     14  S   UNL     1       0.798  10.702  19.734  0.00  0.00    +0.000 S 
BRANCH  14  20
ATOM     15  C   UNL     1      -1.877  12.191  20.859  0.00  0.00    +0.000 C 
ATOM     16  N   UNL     1      -1.018  11.377  21.676  0.00  0.00    +0.000 N 
ATOM     17  C   UNL     1      -1.206  11.117  22.999  0.00  0.00    +0.000 A 
ATOM     18  N   UNL     1      -0.247  10.327  23.436  0.00  0.00    +0.000 NA
ATOM     19  N   UNL     1       0.589  10.066  22.372  0.00  0.00    +0.000 NA
ATOM     20  C   UNL     1       0.118  10.702  21.324  0.00  0.00    +0.000 A 
ENDBRANCH  14  20
ENDBRANCH  13  14
ENDBRANCH   1  13
TORSDOF 4
ENDMDL
MODEL 8
REMARK VINA RESULT:      -7.1      3.133      4.668
REMARK  Name = 
REMARK  5 active torsions:
REMARK  status: ('A' for Active; 'I' for Inactive)
REMARK    1  A    between atoms: C_1  and  N_2
REMARK    2  A    between atoms: C_6  and  S_7
REMARK    3  A    between atoms: S_7  and  C_8
REMARK    4  A    between atoms: C_8  and  C_9
REMARK    5  A    between atoms: C_9  and  C_11
REMARK                            x       y       z     vdW  Elec       q    Type
REMARK                         _______ _______ _______ _____ _____    ______ ____
ROOT
ATOM      1  C   UNL     1       4.323   5.008  18.380  0.00  0.00    +0.000 C 
ATOM      2  O   UNL     1       4.581   4.327  19.374  0.00  0.00    +0.000 OA
ENDROOT
BRANCH   1   3
ATOM      3  C   UNL     1       3.474   6.236  18.566  0.00  0.00    +0.000 A 
ATOM      4  C   UNL     1       3.411   7.171  17.521  0.00  0.00    +0.000 A 
ATOM      5  C   UNL     1       2.635   8.329  17.641  0.00  0.00    +0.000 A 
ATOM      6  C   UNL     1       1.899   8.579  18.805  0.00  0.00    +0.000 A 
ATOM      7  C   UNL     1       1.972   7.662  19.868  0.00  0.00    +0.000 A 
ATOM      8  C   UNL     1       2.739   6.488  19.731  0.00  0.00    +0.000 A 
ATOM      9  C   UNL     1       1.191   7.874  21.145  0.00  0.00    +0.000 C 
ATOM     10  C   UNL     1       0.698   9.308  21.326  0.00  0.00    +0.000 C 
ATOM     11  C   UNL     1       0.061   9.818  20.040  0.00  0.00    +0.000 C 
ATOM     12  C   UNL     1       1.095   9.854  18.915  0.00  0.00    +0.000 C 
ENDBRANCH   1   3
BRANCH   1  13
ATOM     13  C   UNL     1       4.881   4.692  16.995  0.00  0.00    +0.000 C 
BRANCH  13  14
ATOM     14  S   UNL     1       6.688   4.420  17.037  0.00  0.00    +0.000 S 
BRANCH  14  20
ATOM     15  C   UNL     1       8.104   5.563  19.743  0.00  0.00    +0.000 C 
ATOM     16  N   UNL     1       7.824   6.375  18.591  0.00  0.00    +0.000 N 
ATOM     17  C   UNL     1       8.111   7.700  18.473  0.00  0.00    +0.000 A 
ATOM     18  N   UNL     1       7.738   8.132  17.286  0.00  0.00    +0.000 NA
ATOM     19  N   UNL     1       7.188   7.061  16.613  0.00  0.00    +0.000 NA
ATOM     20  C   UNL     1       7.244   6.015  17.406  0.00  0.00    +0.000 A 
ENDBRANCH  14  20
ENDBRANCH  13  14
ENDBRANCH   1  13
TORSDOF 4
ENDMDL
MODEL 9
REMARK VINA RESULT:      -7.1      1.236      1.563
REMARK  Name = 
REMARK  5 active torsions:
REMARK  status: ('A' for Active; 'I' for Inactive)
REMARK    1  A    between atoms: C_1  and  N_2
REMARK    2  A    between atoms: C_6  and  S_7
REMARK    3  A    between atoms: S_7  and  C_8
REMARK    4  A    between atoms: C_8  and  C_9
REMARK    5  A    between atoms: C_9  and  C_11
REMARK                            x       y       z     vdW  Elec       q    Type
REMARK                         _______ _______ _______ _____ _____    ______ ____
ROOT
ATOM      1  C   UNL     1       5.489   6.513  17.515  0.00  0.00    +0.000 C 
ATOM      2  O   UNL     1       5.225   7.160  16.501  0.00  0.00    +0.000 OA
ENDROOT
BRANCH   1   3
ATOM      3  C   UNL     1       4.349   5.880  18.266  0.00  0.00    +0.000 A 
ATOM      4  C   UNL     1       3.078   6.468  18.174  0.00  0.00    +0.000 A 
ATOM      5  C   UNL     1       1.983   5.918  18.850  0.00  0.00    +0.000 A 
ATOM      6  C   UNL     1       2.131   4.766  19.632  0.00  0.00    +0.000 A 
ATOM      7  C   UNL     1       3.404   4.182  19.752  0.00  0.00    +0.000 A 
ATOM      8  C   UNL     1       4.496   4.729  19.050  0.00  0.00    +0.000 A 
ATOM      9  C   UNL     1       3.621   2.932  20.573  0.00  0.00    +0.000 C 
ATOM     10  C   UNL     1       2.486   2.640  21.552  0.00  0.00    +0.000 C 
ATOM     11  C   UNL     1       1.136   2.780  20.858  0.00  0.00    +0.000 C 
ATOM     12  C   UNL     1       0.935   4.216  20.375  0.00  0.00    +0.000 C 
ENDBRANCH   1   3
BRANCH   1  13
ATOM     13  C   UNL     1       6.918   6.276  17.996  0.00  0.00    +0.000 C 
BRANCH  13  14
ATOM     14  S   UNL     1       7.541   4.633  17.492  0.00  0.00    +0.000 S 
BRANCH  14  20
ATOM     15  C   UNL     1       5.189   3.031  15.898  0.00  0.00    +0.000 C 
ATOM     16  N   UNL     1       6.123   3.915  15.255  0.00  0.00    +0.000 N 
ATOM     17  C   UNL     1       6.146   4.203  13.926  0.00  0.00    +0.000 A 
ATOM     18  N   UNL     1       7.116   5.058  13.673  0.00  0.00    +0.000 NA
ATOM     19  N   UNL     1       7.744   5.333  14.870  0.00  0.00    +0.000 NA
ATOM     20  C   UNL     1       7.141   4.641  15.809  0.00  0.00    +0.000 A 
ENDBRANCH  14  20
ENDBRANCH  13  14
ENDBRANCH   1  13
TORSDOF 4
ENDMDL
