MODEL 1
REMARK VINA RESULT:      -8.3      0.000      0.000
REMARK  Name = 
REMARK  3 active torsions:
REMARK  status: ('A' for Active; 'I' for Inactive)
REMARK    1  A    between atoms: C_7  and  C_8
REMARK    2  A    between atoms: N_12  and  C_13
REMARK    3  A    between atoms: C_13  and  C_14
REMARK                            x       y       z     vdW  Elec       q    Type
REMARK                         _______ _______ _______ _____ _____    ______ ____
ROOT
ATOM      1  C   UNL     1       4.147   5.996  17.566  0.00  0.00    +0.000 A 
ATOM      2  C   UNL     1       5.390   6.435  17.133  0.00  0.00    +0.000 A 
ATOM      3  N   UNL     1       6.070   5.459  16.460  0.00  0.00    +0.000 NA
ATOM      4  C   UNL     1       5.272   4.420  16.478  0.00  0.00    +0.000 A 
ATOM      5  N   UNL     1       4.096   4.688  17.136  0.00  0.00    +0.000 N 
ENDROOT
BRANCH   1  12
ATOM      6 BR   UNL     1      -0.278   9.960  22.671  0.00  0.00    +0.000 Br
ATOM      7  C   UNL     1       0.553   9.337  21.086  0.00  0.00    +0.000 A 
ATOM      8  C   UNL     1       0.483  10.110  19.927  0.00  0.00    +0.000 A 
ATOM      9  C   UNL     1       1.112   9.687  18.751  0.00  0.00    +0.000 A 
ATOM     10  C   UNL     1       1.819   8.482  18.795  0.00  0.00    +0.000 A 
ATOM     11  N   UNL     1       2.567   7.853  17.825  0.00  0.00    +0.000 N 
ATOM     12  C   UNL     1       3.177   6.725  18.326  0.00  0.00    +0.000 A 
ATOM     13  C   UNL     1       2.720   6.569  19.618  0.00  0.00    +0.000 A 
ATOM     14  C   UNL     1       1.897   7.690  19.940  0.00  0.00    +0.000 A 
ATOM     15  C   UNL     1       1.242   8.122  21.108  0.00  0.00    +0.000 A 
ATOM     16  H   UNL     1       2.698   8.210  16.890  0.00  0.00    +0.000 HD
ENDBRANCH   1  12
BRANCH   5  17
ATOM     17  C   UNL     1       2.997   3.736  17.216  0.00  0.00    +0.000 C 
BRANCH  17  18
ATOM     18  C   UNL     1       2.573   3.356  18.619  0.00  0.00    +0.000 A 
ATOM     19  C   UNL     1       3.464   2.954  19.626  0.00  0.00    +0.000 A 
ATOM     20  C   UNL     1       3.008   2.676  20.917  0.00  0.00    +0.000 A 
ATOM     21  C   UNL     1       1.653   2.789  21.222  0.00  0.00    +0.000 A 
ATOM     22  C   UNL     1       0.750   3.160  20.231  0.00  0.00    +0.000 A 
ATOM     23  C   UNL     1       1.205   3.437  18.940  0.00  0.00    +0.000 A 
ENDBRANCH  17  18
ENDBRANCH   5  17
TORSDOF 3
ENDMDL
MODEL 2
REMARK VINA RESULT:      -8.1      0.151      1.035
REMARK  Name = 
REMARK  3 active torsions:
REMARK  status: ('A' for Active; 'I' for Inactive)
REMARK    1  A    between atoms: C_7  and  C_8
REMARK    2  A    between atoms: N_12  and  C_13
REMARK    3  A    between atoms: C_13  and  C_14
REMARK                            x       y       z     vdW  Elec       q    Type
REMARK                         _______ _______ _______ _____ _____    ______ ____
ROOT
ATOM      1  C   UNL     1       4.053   6.026  17.576  0.00  0.00    +0.000 A 
ATOM      2  C   UNL     1       5.282   6.460  17.101  0.00  0.00    +0.000 A 
ATOM      3  N   UNL     1       5.951   5.470  16.436  0.00  0.00    +0.000 NA
ATOM      4  C   UNL     1       5.159   4.427  16.501  0.00  0.00    +0.000 A 
ATOM      5  N   UNL     1       3.999   4.706  17.182  0.00  0.00    +0.000 N 
ENDROOT
BRANCH   1  12
ATOM      6 BR   UNL     1      -0.286  10.048  22.709  0.00  0.00    +0.000 Br
ATOM      7  C   UNL     1       0.529   9.417  21.119  0.00  0.00    +0.000 A 
ATOM      8  C   UNL     1       0.472  10.196  19.964  0.00  0.00    +0.000 A 
ATOM      9  C   UNL     1       1.090   9.767  18.785  0.00  0.00    +0.000 A 
ATOM     10  C   UNL     1       1.775   8.548  18.821  0.00  0.00    +0.000 A 
ATOM     11  N   UNL     1       2.508   7.910  17.847  0.00  0.00    +0.000 N 
ATOM     12  C   UNL     1       3.098   6.769  18.341  0.00  0.00    +0.000 A 
ATOM     13  C   UNL     1       2.641   6.615  19.634  0.00  0.00    +0.000 A 
ATOM     14  C   UNL     1       1.840   7.750  19.963  0.00  0.00    +0.000 A 
ATOM     15  C   UNL     1       1.195   8.188  21.134  0.00  0.00    +0.000 A 
ATOM     16  H   UNL     1       2.645   8.269  16.914  0.00  0.00    +0.000 HD
ENDBRANCH   1  12
BRANCH   5  17
ATOM     17  C   UNL     1       2.908   3.751  17.313  0.00  0.00    +0.000 C 
BRANCH  17  18
ATOM     18  C   UNL     1       2.504   3.425  18.737  0.00  0.00    +0.000 A 
ATOM     19  C   UNL     1       1.186   3.492  19.213  0.00  0.00    +0.000 A 
ATOM     20  C   UNL     1       0.878   3.119  20.523  0.00  0.00    +0.000 A 
ATOM     21  C   UNL     1       1.883   2.677  21.382  0.00  0.00    +0.000 A 
ATOM     22  C   UNL     1       3.200   2.629  20.937  0.00  0.00    +0.000 A 
ATOM     23  C   UNL     1       3.509   3.004  19.627  0.00  0.00    +0.000 A 
ENDBRANCH  17  18
ENDBRANCH   5  17
TORSDOF 3
ENDMDL
MODEL 3
REMARK VINA RESULT:      -8.1      0.906      1.438
REMARK  Name = 
REMARK  3 active torsions:
REMARK  status: ('A' for Active; 'I' for Inactive)
REMARK    1  A    between atoms: C_7  and  C_8
REMARK    2  A    between atoms: N_12  and  C_13
REMARK    3  A    between atoms: C_13  and  C_14
REMARK                            x       y       z     vdW  Elec       q    Type
REMARK                         _______ _______ _______ _____ _____    ______ ____
ROOT
ATOM      1  C   UNL     1       4.265   5.774  17.439  0.00  0.00    +0.000 A 
ATOM      2  C   UNL     1       5.551   5.921  16.939  0.00  0.00    +0.000 A 
ATOM      3  N   UNL     1       6.024   4.759  16.397  0.00  0.00    +0.000 NA
ATOM      4  C   UNL     1       5.054   3.892  16.563  0.00  0.00    +0.000 A 
ATOM      5  N   UNL     1       3.968   4.451  17.191  0.00  0.00    +0.000 N 
ENDROOT
BRANCH   1  12
ATOM      6 BR   UNL     1      -0.882  11.073  20.042  0.00  0.00    +0.000 Br
ATOM      7  C   UNL     1       0.386   9.670  19.939  0.00  0.00    +0.000 A 
ATOM      8  C   UNL     1       0.552   8.815  21.029  0.00  0.00    +0.000 A 
ATOM      9  C   UNL     1       1.460   7.753  20.968  0.00  0.00    +0.000 A 
ATOM     10  C   UNL     1       2.171   7.578  19.777  0.00  0.00    +0.000 A 
ATOM     11  N   UNL     1       3.077   6.608  19.415  0.00  0.00    +0.000 N 
ATOM     12  C   UNL     1       3.467   6.759  18.104  0.00  0.00    +0.000 A 
ATOM     13  C   UNL     1       2.877   7.921  17.648  0.00  0.00    +0.000 A 
ATOM     14  C   UNL     1       2.027   8.424  18.678  0.00  0.00    +0.000 A 
ATOM     15  C   UNL     1       1.123   9.499  18.764  0.00  0.00    +0.000 A 
ATOM     16  H   UNL     1       3.367   5.850  20.016  0.00  0.00    +0.000 HD
ENDBRANCH   1  12
BRANCH   5  17
ATOM     17  C   UNL     1       2.721   3.732  17.409  0.00  0.00    +0.000 C 
BRANCH  17  18
ATOM     18  C   UNL     1       2.430   3.369  18.851  0.00  0.00    +0.000 A 
ATOM     19  C   UNL     1       3.372   2.800  19.721  0.00  0.00    +0.000 A 
ATOM     20  C   UNL     1       3.051   2.547  21.058  0.00  0.00    +0.000 A 
ATOM     21  C   UNL     1       1.781   2.851  21.544  0.00  0.00    +0.000 A 
ATOM     22  C   UNL     1       0.825   3.391  20.689  0.00  0.00    +0.000 A 
ATOM     23  C   UNL     1       1.145   3.643  19.354  0.00  0.00    +0.000 A 
ENDBRANCH  17  18
ENDBRANCH   5  17
TORSDOF 3
ENDMDL
MODEL 4
REMARK VINA RESULT:      -8.0      1.881      4.048
REMARK  Name = 
REMARK  3 active torsions:
REMARK  status: ('A' for Active; 'I' for Inactive)
REMARK    1  A    between atoms: C_7  and  C_8
REMARK    2  A    between atoms: N_12  and  C_13
REMARK    3  A    between atoms: C_13  and  C_14
REMARK                            x       y       z     vdW  Elec       q    Type
REMARK                         _______ _______ _______ _____ _____    ______ ____
ROOT
ATOM      1  C   UNL     1       2.988   4.517  18.946  0.00  0.00    +0.000 A 
ATOM      2  C   UNL     1       2.538   3.417  19.663  0.00  0.00    +0.000 A 
ATOM      3  N   UNL     1       3.062   2.248  19.187  0.00  0.00    +0.000 NA
ATOM      4  C   UNL     1       3.821   2.606  18.180  0.00  0.00    +0.000 A 
ATOM      5  N   UNL     1       3.811   3.966  17.987  0.00  0.00    +0.000 N 
ENDROOT
BRANCH   1  12
ATOM      6 BR   UNL     1       0.271  11.863  18.940  0.00  0.00    +0.000 Br
ATOM      7  C   UNL     1       0.909  10.162  19.477  0.00  0.00    +0.000 A 
ATOM      8  C   UNL     1       0.748   9.757  20.802  0.00  0.00    +0.000 A 
ATOM      9  C   UNL     1       1.184   8.494  21.217  0.00  0.00    +0.000 A 
ATOM     10  C   UNL     1       1.762   7.661  20.255  0.00  0.00    +0.000 A 
ATOM     11  N   UNL     1       2.227   6.370  20.359  0.00  0.00    +0.000 N 
ATOM     12  C   UNL     1       2.631   5.890  19.133  0.00  0.00    +0.000 A 
ATOM     13  C   UNL     1       2.523   6.939  18.243  0.00  0.00    +0.000 A 
ATOM     14  C   UNL     1       1.939   8.047  18.926  0.00  0.00    +0.000 A 
ATOM     15  C   UNL     1       1.512   9.328  18.531  0.00  0.00    +0.000 A 
ATOM     16  H   UNL     1       2.213   5.829  21.211  0.00  0.00    +0.000 HD
ENDBRANCH   1  12
BRANCH   5  17
ATOM     17  C   UNL     1       4.644   4.633  16.997  0.00  0.00    +0.000 C 
BRANCH  17  18
ATOM     18  C   UNL     1       5.805   5.426  17.560  0.00  0.00    +0.000 A 
ATOM     19  C   UNL     1       6.656   4.959  18.572  0.00  0.00    +0.000 A 
ATOM     20  C   UNL     1       7.745   5.722  19.002  0.00  0.00    +0.000 A 
ATOM     21  C   UNL     1       7.998   6.967  18.431  0.00  0.00    +0.000 A 
ATOM     22  C   UNL     1       7.149   7.460  17.445  0.00  0.00    +0.000 A 
ATOM     23  C   UNL     1       6.061   6.698  17.016  0.00  0.00    +0.000 A 
ENDBRANCH  17  18
ENDBRANCH   5  17
TORSDOF 3
ENDMDL
MODEL 5
REMARK VINA RESULT:      -8.0      0.963      1.799
REMARK  Name = 
REMARK  3 active torsions:
REMARK  status: ('A' for Active; 'I' for Inactive)
REMARK    1  A    between atoms: C_7  and  C_8
REMARK    2  A    between atoms: N_12  and  C_13
REMARK    3  A    between atoms: C_13  and  C_14
REMARK                            x       y       z     vdW  Elec       q    Type
REMARK                         _______ _______ _______ _____ _____    ______ ____
ROOT
ATOM      1  C   UNL     1       4.391   5.652  17.347  0.00  0.00    +0.000 A 
ATOM      2  C   UNL     1       5.684   5.788  16.864  0.00  0.00    +0.000 A 
ATOM      3  N   UNL     1       6.161   4.617  16.343  0.00  0.00    +0.000 NA
ATOM      4  C   UNL     1       5.186   3.756  16.506  0.00  0.00    +0.000 A 
ATOM      5  N   UNL     1       4.093   4.327  17.111  0.00  0.00    +0.000 N 
ENDROOT
BRANCH   1  12
ATOM      6 BR   UNL     1      -0.774  11.000  19.810  0.00  0.00    +0.000 Br
ATOM      7  C   UNL     1       0.490   9.591  19.743  0.00  0.00    +0.000 A 
ATOM      8  C   UNL     1       0.636   8.749  20.845  0.00  0.00    +0.000 A 
ATOM      9  C   UNL     1       1.542   7.683  20.810  0.00  0.00    +0.000 A 
ATOM     10  C   UNL     1       2.269   7.491  19.632  0.00  0.00    +0.000 A 
ATOM     11  N   UNL     1       3.177   6.513  19.296  0.00  0.00    +0.000 N 
ATOM     12  C   UNL     1       3.586   6.647  17.988  0.00  0.00    +0.000 A 
ATOM     13  C   UNL     1       3.008   7.806  17.510  0.00  0.00    +0.000 A 
ATOM     14  C   UNL     1       2.145   8.325  18.520  0.00  0.00    +0.000 A 
ATOM     15  C   UNL     1       1.243   9.403  18.580  0.00  0.00    +0.000 A 
ATOM     16  H   UNL     1       3.455   5.762  19.910  0.00  0.00    +0.000 HD
ENDBRANCH   1  12
BRANCH   5  17
ATOM     17  C   UNL     1       2.840   3.614  17.320  0.00  0.00    +0.000 C 
BRANCH  17  18
ATOM     18  C   UNL     1       2.446   3.415  18.769  0.00  0.00    +0.000 A 
ATOM     19  C   UNL     1       1.169   3.692  19.280  0.00  0.00    +0.000 A 
ATOM     20  C   UNL     1       0.859   3.427  20.616  0.00  0.00    +0.000 A 
ATOM     21  C   UNL     1       1.821   2.885  21.466  0.00  0.00    +0.000 A 
ATOM     22  C   UNL     1       3.101   2.628  20.985  0.00  0.00    +0.000 A 
ATOM     23  C   UNL     1       3.412   2.894  19.650  0.00  0.00    +0.000 A 
ENDBRANCH  17  18
ENDBRANCH   5  17
TORSDOF 3
ENDMDL
MODEL 6
REMARK VINA RESULT:      -8.0      1.894      4.128
REMARK  Name = 
REMARK  3 active torsions:
REMARK  status: ('A' for Active; 'I' for Inactive)
REMARK    1  A    between atoms: C_7  and  C_8
REMARK    2  A    between atoms: N_12  and  C_13
REMARK    3  A    between atoms: C_13  and  C_14
REMARK                            x       y       z     vdW  Elec       q    Type
REMARK                         _______ _______ _______ _____ _____    ______ ____
ROOT
ATOM      1  C   UNL     1       3.037   4.769  19.022  0.00  0.00    +0.000 A 
ATOM      2  C   UNL     1       2.653   3.682  19.793  0.00  0.00    +0.000 A 
ATOM      3  N   UNL     1       3.187   2.512  19.328  0.00  0.00    +0.000 NA
ATOM      4  C   UNL     1       3.887   2.858  18.275  0.00  0.00    +0.000 A 
ATOM      5  N   UNL     1       3.829   4.211  18.042  0.00  0.00    +0.000 N 
ENDROOT
BRANCH   1  12
ATOM      6 BR   UNL     1       0.166  12.056  18.879  0.00  0.00    +0.000 Br
ATOM      7  C   UNL     1       0.838  10.378  19.448  0.00  0.00    +0.000 A 
ATOM      8  C   UNL     1       0.680   9.992  20.779  0.00  0.00    +0.000 A 
ATOM      9  C   UNL     1       1.141   8.747  21.218  0.00  0.00    +0.000 A 
ATOM     10  C   UNL     1       1.741   7.909  20.272  0.00  0.00    +0.000 A 
ATOM     11  N   UNL     1       2.232   6.631  20.400  0.00  0.00    +0.000 N 
ATOM     12  C   UNL     1       2.651   6.138  19.185  0.00  0.00    +0.000 A 
ATOM     13  C   UNL     1       2.524   7.169  18.276  0.00  0.00    +0.000 A 
ATOM     14  C   UNL     1       1.915   8.277  18.938  0.00  0.00    +0.000 A 
ATOM     15  C   UNL     1       1.463   9.541  18.519  0.00  0.00    +0.000 A 
ATOM     16  H   UNL     1       2.226   6.104  21.261  0.00  0.00    +0.000 HD
ENDBRANCH   1  12
BRANCH   5  17
ATOM     17  C   UNL     1       4.596   4.868  16.993  0.00  0.00    +0.000 C 
BRANCH  17  18
ATOM     18  C   UNL     1       5.819   5.626  17.466  0.00  0.00    +0.000 A 
ATOM     19  C   UNL     1       6.211   6.875  16.962  0.00  0.00    +0.000 A 
ATOM     20  C   UNL     1       7.319   7.545  17.489  0.00  0.00    +0.000 A 
ATOM     21  C   UNL     1       8.056   6.975  18.524  0.00  0.00    +0.000 A 
ATOM     22  C   UNL     1       7.699   5.724  19.019  0.00  0.00    +0.000 A 
ATOM     23  C   UNL     1       6.593   5.054  18.493  0.00  0.00    +0.000 A 
ENDBRANCH  17  18
ENDBRANCH   5  17
TORSDOF 3
ENDMDL
MODEL 7
REMARK VINA RESULT:      -7.9      0.982      1.149
REMARK  Name = 
REMARK  3 active torsions:
REMARK  status: ('A' for Active; 'I' for Inactive)
REMARK    1  A    between atoms: C_7  and  C_8
REMARK    2  A    between atoms: N_12  and  C_13
REMARK    3  A    between atoms: C_13  and  C_14
REMARK                            x       y       z     vdW  Elec       q    Type
REMARK                         _______ _______ _______ _____ _____    ______ ____
ROOT
ATOM      1  C   UNL     1       5.234   5.842  17.426  0.00  0.00    +0.000 A 
ATOM      2  C   UNL     1       6.541   6.304  17.358  0.00  0.00    +0.000 A 
ATOM      3  N   UNL     1       7.373   5.397  16.762  0.00  0.00    +0.000 NA
ATOM      4  C   UNL     1       6.603   4.377  16.470  0.00  0.00    +0.000 A 
ATOM      5  N   UNL     1       5.301   4.591  16.851  0.00  0.00    +0.000 N 
ENDROOT
BRANCH   1  12
ATOM      6 BR   UNL     1      -0.211   9.553  21.661  0.00  0.00    +0.000 Br
ATOM      7  C   UNL     1       0.883   8.946  20.238  0.00  0.00    +0.000 A 
ATOM      8  C   UNL     1       0.893   9.649  19.034  0.00  0.00    +0.000 A 
ATOM      9  C   UNL     1       1.713   9.238  17.978  0.00  0.00    +0.000 A 
ATOM     10  C   UNL     1       2.526   8.120  18.187  0.00  0.00    +0.000 A 
ATOM     11  N   UNL     1       3.455   7.528  17.363  0.00  0.00    +0.000 N 
ATOM     12  C   UNL     1       4.103   6.499  18.008  0.00  0.00    +0.000 A 
ATOM     13  C   UNL     1       3.495   6.358  19.238  0.00  0.00    +0.000 A 
ATOM     14  C   UNL     1       2.528   7.398  19.381  0.00  0.00    +0.000 A 
ATOM     15  C   UNL     1       1.682   7.814  20.425  0.00  0.00    +0.000 A 
ATOM     16  H   UNL     1       3.675   7.851  16.432  0.00  0.00    +0.000 HD
ENDBRANCH   1  12
BRANCH   5  17
ATOM     17  C   UNL     1       4.224   3.656  16.556  0.00  0.00    +0.000 C 
BRANCH  17  18
ATOM     18  C   UNL     1       3.387   3.238  17.747  0.00  0.00    +0.000 A 
ATOM     19  C   UNL     1       3.920   2.704  18.930  0.00  0.00    +0.000 A 
ATOM     20  C   UNL     1       3.093   2.395  20.013  0.00  0.00    +0.000 A 
ATOM     21  C   UNL     1       1.719   2.611  19.930  0.00  0.00    +0.000 A 
ATOM     22  C   UNL     1       1.168   3.114  18.756  0.00  0.00    +0.000 A 
ATOM     23  C   UNL     1       1.994   3.422  17.673  0.00  0.00    +0.000 A 
ENDBRANCH  17  18
ENDBRANCH   5  17
TORSDOF 3
ENDMDL
MODEL 8
REMARK VINA RESULT:      -7.9      1.891      4.270
REMARK  Name = 
REMARK  3 active torsions:
REMARK  status: ('A' for Active; 'I' for Inactive)
REMARK    1  A    between atoms: C_7  and  C_8
REMARK    2  A    between atoms: N_12  and  C_13
REMARK    3  A    between atoms: C_13  and  C_14
REMARK                            x       y       z     vdW  Elec       q    Type
REMARK                         _______ _______ _______ _____ _____    ______ ____
ROOT
ATOM      1  C   UNL     1       2.750   4.295  19.345  0.00  0.00    +0.000 A 
ATOM      2  C   UNL     1       1.848   3.253  19.501  0.00  0.00    +0.000 A 
ATOM      3  N   UNL     1       2.438   2.034  19.309  0.00  0.00    +0.000 NA
ATOM      4  C   UNL     1       3.688   2.308  19.027  0.00  0.00    +0.000 A 
ATOM      5  N   UNL     1       3.932   3.659  19.032  0.00  0.00    +0.000 N 
ENDROOT
BRANCH   1  12
ATOM      6 BR   UNL     1       0.584  11.803  18.803  0.00  0.00    +0.000 Br
ATOM      7  C   UNL     1       1.077  10.097  19.463  0.00  0.00    +0.000 A 
ATOM      8  C   UNL     1       0.844   9.787  20.803  0.00  0.00    +0.000 A 
ATOM      9  C   UNL     1       1.172   8.525  21.309  0.00  0.00    +0.000 A 
ATOM     10  C   UNL     1       1.718   7.595  20.419  0.00  0.00    +0.000 A 
ATOM     11  N   UNL     1       2.083   6.283  20.617  0.00  0.00    +0.000 N 
ATOM     12  C   UNL     1       2.490   5.700  19.438  0.00  0.00    +0.000 A 
ATOM     13  C   UNL     1       2.488   6.696  18.483  0.00  0.00    +0.000 A 
ATOM     14  C   UNL     1       1.966   7.884  19.078  0.00  0.00    +0.000 A 
ATOM     15  C   UNL     1       1.648   9.165  18.591  0.00  0.00    +0.000 A 
ATOM     16  H   UNL     1       2.002   5.798  21.498  0.00  0.00    +0.000 HD
ENDBRANCH   1  12
BRANCH   5  17
ATOM     17  C   UNL     1       5.261   4.226  18.845  0.00  0.00    +0.000 C 
BRANCH  17  18
ATOM     18  C   UNL     1       5.699   4.381  17.404  0.00  0.00    +0.000 A 
ATOM     19  C   UNL     1       4.831   4.282  16.306  0.00  0.00    +0.000 A 
ATOM     20  C   UNL     1       5.295   4.495  15.005  0.00  0.00    +0.000 A 
ATOM     21  C   UNL     1       6.634   4.806  14.779  0.00  0.00    +0.000 A 
ATOM     22  C   UNL     1       7.516   4.881  15.853  0.00  0.00    +0.000 A 
ATOM     23  C   UNL     1       7.054   4.667  17.153  0.00  0.00    +0.000 A 
ENDBRANCH  17  18
ENDBRANCH   5  17
TORSDOF 3
ENDMDL
MODEL 9
REMARK VINA RESULT:      -7.8      1.895      4.112
REMARK  Name = 
REMARK  3 active torsions:
REMARK  status: ('A' for Active; 'I' for Inactive)
REMARK    1  A    between atoms: C_7  and  C_8
REMARK    2  A    between atoms: N_12  and  C_13
REMARK    3  A    between atoms: C_13  and  C_14
REMARK                            x       y       z     vdW  Elec       q    Type
REMARK                         _______ _______ _______ _____ _____    ______ ____
ROOT
ATOM      1  C   UNL     1       2.824   4.444  19.516  0.00  0.00    +0.000 A 
ATOM      2  C   UNL     1       1.959   3.374  19.693  0.00  0.00    +0.000 A 
ATOM      3  N   UNL     1       2.590   2.173  19.522  0.00  0.00    +0.000 NA
ATOM      4  C   UNL     1       3.830   2.484  19.231  0.00  0.00    +0.000 A 
ATOM      5  N   UNL     1       4.027   3.843  19.211  0.00  0.00    +0.000 N 
ENDROOT
BRANCH   1  12
ATOM      6 BR   UNL     1       0.429  11.869  18.820  0.00  0.00    +0.000 Br
ATOM      7  C   UNL     1       0.959  10.188  19.515  0.00  0.00    +0.000 A 
ATOM      8  C   UNL     1       0.700   9.887  20.852  0.00  0.00    +0.000 A 
ATOM      9  C   UNL     1       1.055   8.642  21.382  0.00  0.00    +0.000 A 
ATOM     10  C   UNL     1       1.655   7.720  20.520  0.00  0.00    +0.000 A 
ATOM     11  N   UNL     1       2.058   6.423  20.744  0.00  0.00    +0.000 N 
ATOM     12  C   UNL     1       2.515   5.840  19.583  0.00  0.00    +0.000 A 
ATOM     13  C   UNL     1       2.507   6.824  18.616  0.00  0.00    +0.000 A 
ATOM     14  C   UNL     1       1.930   8.001  19.182  0.00  0.00    +0.000 A 
ATOM     15  C   UNL     1       1.584   9.265  18.670  0.00  0.00    +0.000 A 
ATOM     16  H   UNL     1       1.968   5.946  21.629  0.00  0.00    +0.000 HD
ENDBRANCH   1  12
BRANCH   5  17
ATOM     17  C   UNL     1       5.334   4.452  19.011  0.00  0.00    +0.000 C 
BRANCH  17  18
ATOM     18  C   UNL     1       5.780   4.562  17.567  0.00  0.00    +0.000 A 
ATOM     19  C   UNL     1       7.118   4.707  17.169  0.00  0.00    +0.000 A 
ATOM     20  C   UNL     1       7.462   4.741  15.815  0.00  0.00    +0.000 A 
ATOM     21  C   UNL     1       6.476   4.637  14.837  0.00  0.00    +0.000 A 
ATOM     22  C   UNL     1       5.141   4.520  15.212  0.00  0.00    +0.000 A 
ATOM     23  C   UNL     1       4.796   4.487  16.565  0.00  0.00    +0.000 A 
ENDBRANCH  17  18
ENDBRANCH   5  17
TORSDOF 3
ENDMDL
