MODEL 1
REMARK VINA RESULT:      -8.0      0.000      0.000
REMARK  Name = 
REMARK  6 active torsions:
REMARK  status: ('A' for Active; 'I' for Inactive)
REMARK    1  A    between atoms: C_1  and  O_2
REMARK    2  A    between atoms: O_2  and  C_3
REMARK    3  A    between atoms: C_6  and  N_7
REMARK    4  A    between atoms: N_7  and  C_8
REMARK    5  A    between atoms: C_13  and  C_15
REMARK    6  A    between atoms: C_15  and  C_16
REMARK                            x       y       z     vdW  Elec       q    Type
REMARK                         _______ _______ _______ _____ _____    ______ ____
ROOT
ATOM      1  C   UNL     1       7.129   6.303  16.833  0.00  0.00    +0.000 C 
ATOM      2  C   UNL     1       7.920   6.582  18.115  0.00  0.00    +0.000 C 
ATOM      3  C   UNL     1       7.454   5.772  19.330  0.00  0.00    +0.000 C 
ATOM      4  C   UNL     1       5.934   5.597  19.468  0.00  0.00    +0.000 C 
ATOM      5  N   UNL     1       5.273   5.325  18.194  0.00  0.00    +0.000 N 
ATOM      6  C   UNL     1       4.206   4.469  17.913  0.00  0.00    +0.000 C 
ATOM      7  O   UNL     1       3.777   4.421  16.750  0.00  0.00    +0.000 OA
ATOM      8  C   UNL     1       5.627   6.287  17.146  0.00  0.00    +0.000 C 
ENDROOT
BRANCH   6   9
ATOM      9  C   UNL     1       3.473   3.624  18.996  0.00  0.00    +0.000 C 
ATOM     10  C   UNL     1       4.477   2.647  19.634  0.00  0.00    +0.000 C 
ATOM     11  C   UNL     1       3.000   4.639  20.098  0.00  0.00    +0.000 C 
ATOM     12  C   UNL     1       2.142   4.047  21.213  0.00  0.00    +0.000 C 
ATOM     13  C   UNL     1       0.952   3.275  20.667  0.00  0.00    +0.000 C 
ATOM     14  C   UNL     1       1.357   2.278  19.589  0.00  0.00    +0.000 C 
ATOM     15  C   UNL     1       2.199   2.919  18.478  0.00  0.00    +0.000 C 
ENDBRANCH   6   9
BRANCH   1  16
ATOM     16  N   UNL     1       7.544   5.038  16.228  0.00  0.00    +0.000 N 
ATOM     17  H   UNL     1       8.454   4.698  16.521  0.00  0.00    +0.000 HD
BRANCH  16  21
ATOM     18  C   UNL     1       6.104   3.716  12.479  0.00  0.00    +0.000 A 
ATOM     19  C   UNL     1       5.590   3.208  13.671  0.00  0.00    +0.000 A 
ATOM     20  C   UNL     1       6.071   3.661  14.908  0.00  0.00    +0.000 A 
ATOM     21  C   UNL     1       7.098   4.610  14.986  0.00  0.00    +0.000 A 
ATOM     22  C   UNL     1       7.579   5.126  13.778  0.00  0.00    +0.000 A 
ATOM     23  C   UNL     1       7.108   4.675  12.539  0.00  0.00    +0.000 A 
BRANCH  18  25
ATOM     24  C   UNL     1       4.126   3.221  11.270  0.00  0.00    +0.000 C 
ATOM     25  O   UNL     1       5.548   3.216  11.335  0.00  0.00    +0.000 OA
ENDBRANCH  18  25
ENDBRANCH  16  21
ENDBRANCH   1  16
TORSDOF 4
ENDMDL
MODEL 2
REMARK VINA RESULT:      -7.7      0.603      1.040
REMARK  Name = 
REMARK  6 active torsions:
REMARK  status: ('A' for Active; 'I' for Inactive)
REMARK    1  A    between atoms: C_1  and  O_2
REMARK    2  A    between atoms: O_2  and  C_3
REMARK    3  A    between atoms: C_6  and  N_7
REMARK    4  A    between atoms: N_7  and  C_8
REMARK    5  A    between atoms: C_13  and  C_15
REMARK    6  A    between atoms: C_15  and  C_16
REMARK                            x       y       z     vdW  Elec       q    Type
REMARK                         _______ _______ _______ _____ _____    ______ ____
ROOT
ATOM      1  C   UNL     1       7.042   6.229  16.969  0.00  0.00    +0.000 C 
ATOM      2  C   UNL     1       7.704   6.409  18.339  0.00  0.00    +0.000 C 
ATOM      3  C   UNL     1       7.050   5.601  19.466  0.00  0.00    +0.000 C 
ATOM      4  C   UNL     1       5.516   5.537  19.431  0.00  0.00    +0.000 C 
ATOM      5  N   UNL     1       4.982   5.354  18.084  0.00  0.00    +0.000 N 
ATOM      6  C   UNL     1       3.893   4.589  17.658  0.00  0.00    +0.000 C 
ATOM      7  O   UNL     1       3.594   4.607  16.454  0.00  0.00    +0.000 OA
ATOM      8  C   UNL     1       5.517   6.316  17.117  0.00  0.00    +0.000 C 
ENDROOT
BRANCH   6   9
ATOM      9  C   UNL     1       2.987   3.770  18.623  0.00  0.00    +0.000 C 
ATOM     10  C   UNL     1       2.338   2.614  17.842  0.00  0.00    +0.000 C 
ATOM     11  C   UNL     1       3.943   3.160  19.711  0.00  0.00    +0.000 C 
ATOM     12  C   UNL     1       3.253   2.410  20.846  0.00  0.00    +0.000 C 
ATOM     13  C   UNL     1       2.172   3.248  21.510  0.00  0.00    +0.000 C 
ATOM     14  C   UNL     1       1.219   3.868  20.496  0.00  0.00    +0.000 C 
ATOM     15  C   UNL     1       1.953   4.630  19.385  0.00  0.00    +0.000 C 
ENDBRANCH   6   9
BRANCH   1  16
ATOM     16  N   UNL     1       7.430   4.954  16.366  0.00  0.00    +0.000 N 
ATOM     17  H   UNL     1       8.309   4.570  16.697  0.00  0.00    +0.000 HD
BRANCH  16  21
ATOM     18  C   UNL     1       6.115   3.739  12.536  0.00  0.00    +0.000 A 
ATOM     19  C   UNL     1       5.571   3.189  13.696  0.00  0.00    +0.000 A 
ATOM     20  C   UNL     1       6.010   3.607  14.960  0.00  0.00    +0.000 A 
ATOM     21  C   UNL     1       7.025   4.562  15.099  0.00  0.00    +0.000 A 
ATOM     22  C   UNL     1       7.537   5.121  13.923  0.00  0.00    +0.000 A 
ATOM     23  C   UNL     1       7.107   4.704  12.656  0.00  0.00    +0.000 A 
BRANCH  18  25
ATOM     24  C   UNL     1       4.178   3.196  11.281  0.00  0.00    +0.000 C 
ATOM     25  O   UNL     1       5.598   3.271  11.360  0.00  0.00    +0.000 OA
ENDBRANCH  18  25
ENDBRANCH  16  21
ENDBRANCH   1  16
TORSDOF 4
ENDMDL
MODEL 3
REMARK VINA RESULT:      -7.4      0.726      1.303
REMARK  Name = 
REMARK  6 active torsions:
REMARK  status: ('A' for Active; 'I' for Inactive)
REMARK    1  A    between atoms: C_1  and  O_2
REMARK    2  A    between atoms: O_2  and  C_3
REMARK    3  A    between atoms: C_6  and  N_7
REMARK    4  A    between atoms: N_7  and  C_8
REMARK    5  A    between atoms: C_13  and  C_15
REMARK    6  A    between atoms: C_15  and  C_16
REMARK                            x       y       z     vdW  Elec       q    Type
REMARK                         _______ _______ _______ _____ _____    ______ ____
ROOT
ATOM      1  C   UNL     1       7.276   6.233  16.950  0.00  0.00    +0.000 C 
ATOM      2  C   UNL     1       7.986   6.374  18.301  0.00  0.00    +0.000 C 
ATOM      3  C   UNL     1       7.256   5.700  19.469  0.00  0.00    +0.000 C 
ATOM      4  C   UNL     1       5.726   5.836  19.462  0.00  0.00    +0.000 C 
ATOM      5  N   UNL     1       5.144   5.675  18.132  0.00  0.00    +0.000 N 
ATOM      6  C   UNL     1       3.957   5.045  17.754  0.00  0.00    +0.000 C 
ATOM      7  O   UNL     1       3.636   5.059  16.555  0.00  0.00    +0.000 OA
ATOM      8  C   UNL     1       5.779   6.524  17.120  0.00  0.00    +0.000 C 
ENDROOT
BRANCH   6   9
ATOM      9  C   UNL     1       2.972   4.386  18.764  0.00  0.00    +0.000 C 
ATOM     10  C   UNL     1       2.334   5.486  19.631  0.00  0.00    +0.000 C 
ATOM     11  C   UNL     1       1.843   3.715  17.902  0.00  0.00    +0.000 C 
ATOM     12  C   UNL     1       0.820   2.896  18.683  0.00  0.00    +0.000 C 
ATOM     13  C   UNL     1       1.482   1.859  19.577  0.00  0.00    +0.000 C 
ATOM     14  C   UNL     1       2.590   2.459  20.432  0.00  0.00    +0.000 C 
ATOM     15  C   UNL     1       3.608   3.257  19.605  0.00  0.00    +0.000 C 
ENDBRANCH   6   9
BRANCH   1  16
ATOM     16  N   UNL     1       7.482   4.898  16.390  0.00  0.00    +0.000 N 
ATOM     17  H   UNL     1       8.288   4.398  16.750  0.00  0.00    +0.000 HD
BRANCH  16  21
ATOM     18  C   UNL     1       6.075   3.770  12.565  0.00  0.00    +0.000 A 
ATOM     19  C   UNL     1       5.507   3.250  13.727  0.00  0.00    +0.000 A 
ATOM     20  C   UNL     1       5.977   3.639  14.990  0.00  0.00    +0.000 A 
ATOM     21  C   UNL     1       7.047   4.532  15.124  0.00  0.00    +0.000 A 
ATOM     22  C   UNL     1       7.584   5.063  13.946  0.00  0.00    +0.000 A 
ATOM     23  C   UNL     1       7.123   4.675  12.681  0.00  0.00    +0.000 A 
BRANCH  18  25
ATOM     24  C   UNL     1       4.103   3.287  11.342  0.00  0.00    +0.000 C 
ATOM     25  O   UNL     1       5.525   3.335  11.392  0.00  0.00    +0.000 OA
ENDBRANCH  18  25
ENDBRANCH  16  21
ENDBRANCH   1  16
TORSDOF 4
ENDMDL
MODEL 4
REMARK VINA RESULT:      -7.3      0.693      1.635
REMARK  Name = 
REMARK  6 active torsions:
REMARK  status: ('A' for Active; 'I' for Inactive)
REMARK    1  A    between atoms: C_1  and  O_2
REMARK    2  A    between atoms: O_2  and  C_3
REMARK    3  A    between atoms: C_6  and  N_7
REMARK    4  A    between atoms: N_7  and  C_8
REMARK    5  A    between atoms: C_13  and  C_15
REMARK    6  A    between atoms: C_15  and  C_16
REMARK                            x       y       z     vdW  Elec       q    Type
REMARK                         _______ _______ _______ _____ _____    ______ ____
ROOT
ATOM      1  C   UNL     1       7.312   6.207  17.128  0.00  0.00    +0.000 C 
ATOM      2  C   UNL     1       7.947   6.283  18.521  0.00  0.00    +0.000 C 
ATOM      3  C   UNL     1       7.145   5.574  19.617  0.00  0.00    +0.000 C 
ATOM      4  C   UNL     1       5.619   5.735  19.532  0.00  0.00    +0.000 C 
ATOM      5  N   UNL     1       5.110   5.638  18.167  0.00  0.00    +0.000 N 
ATOM      6  C   UNL     1       3.937   5.042  17.698  0.00  0.00    +0.000 C 
ATOM      7  O   UNL     1       3.684   5.110  16.486  0.00  0.00    +0.000 OA
ATOM      8  C   UNL     1       5.812   6.516  17.227  0.00  0.00    +0.000 C 
ENDROOT
BRANCH   6   9
ATOM      9  C   UNL     1       2.888   4.360  18.625  0.00  0.00    +0.000 C 
ATOM     10  C   UNL     1       1.656   3.972  17.789  0.00  0.00    +0.000 C 
ATOM     11  C   UNL     1       3.563   3.044  19.156  0.00  0.00    +0.000 C 
ATOM     12  C   UNL     1       2.758   2.265  20.191  0.00  0.00    +0.000 C 
ATOM     13  C   UNL     1       2.329   3.140  21.358  0.00  0.00    +0.000 C 
ATOM     14  C   UNL     1       1.672   4.434  20.897  0.00  0.00    +0.000 C 
ATOM     15  C   UNL     1       2.524   5.197  19.873  0.00  0.00    +0.000 C 
ENDBRANCH   6   9
BRANCH   1  16
ATOM     16  N   UNL     1       7.530   4.892  16.526  0.00  0.00    +0.000 N 
ATOM     17  H   UNL     1       8.390   4.429  16.800  0.00  0.00    +0.000 HD
BRANCH  16  21
ATOM     18  C   UNL     1       5.986   3.784  12.749  0.00  0.00    +0.000 A 
ATOM     19  C   UNL     1       7.030   4.700  12.863  0.00  0.00    +0.000 A 
ATOM     20  C   UNL     1       7.539   5.052  14.121  0.00  0.00    +0.000 A 
ATOM     21  C   UNL     1       6.997   4.523  15.299  0.00  0.00    +0.000 A 
ATOM     22  C   UNL     1       5.968   3.586  15.160  0.00  0.00    +0.000 A 
ATOM     23  C   UNL     1       5.451   3.233  13.907  0.00  0.00    +0.000 A 
BRANCH  18  25
ATOM     24  C   UNL     1       4.204   3.191  11.301  0.00  0.00    +0.000 C 
ATOM     25  O   UNL     1       5.583   3.501  11.473  0.00  0.00    +0.000 OA
ENDBRANCH  18  25
ENDBRANCH  16  21
ENDBRANCH   1  16
TORSDOF 4
ENDMDL
MODEL 5
REMARK VINA RESULT:      -7.0      2.841      5.466
REMARK  Name = 
REMARK  6 active torsions:
REMARK  status: ('A' for Active; 'I' for Inactive)
REMARK    1  A    between atoms: C_1  and  O_2
REMARK    2  A    between atoms: O_2  and  C_3
REMARK    3  A    between atoms: C_6  and  N_7
REMARK    4  A    between atoms: N_7  and  C_8
REMARK    5  A    between atoms: C_13  and  C_15
REMARK    6  A    between atoms: C_15  and  C_16
REMARK                            x       y       z     vdW  Elec       q    Type
REMARK                         _______ _______ _______ _____ _____    ______ ____
ROOT
ATOM      1  C   UNL     1       7.269   5.595  16.373  0.00  0.00    +0.000 C 
ATOM      2  C   UNL     1       6.762   5.314  14.954  0.00  0.00    +0.000 C 
ATOM      3  C   UNL     1       5.342   4.740  14.896  0.00  0.00    +0.000 C 
ATOM      4  C   UNL     1       4.998   3.709  15.982  0.00  0.00    +0.000 C 
ATOM      5  N   UNL     1       5.516   4.071  17.298  0.00  0.00    +0.000 N 
ATOM      6  C   UNL     1       4.932   3.909  18.557  0.00  0.00    +0.000 C 
ATOM      7  O   UNL     1       5.576   4.262  19.556  0.00  0.00    +0.000 OA
ATOM      8  C   UNL     1       6.943   4.404  17.283  0.00  0.00    +0.000 C 
ENDROOT
BRANCH   6   9
ATOM      9  C   UNL     1       3.544   3.240  18.781  0.00  0.00    +0.000 C 
ATOM     10  C   UNL     1       3.616   1.772  18.323  0.00  0.00    +0.000 C 
ATOM     11  C   UNL     1       3.292   3.265  20.332  0.00  0.00    +0.000 C 
ATOM     12  C   UNL     1       1.922   2.766  20.782  0.00  0.00    +0.000 C 
ATOM     13  C   UNL     1       0.790   3.475  20.055  0.00  0.00    +0.000 C 
ATOM     14  C   UNL     1       0.989   3.483  18.546  0.00  0.00    +0.000 C 
ATOM     15  C   UNL     1       2.371   4.011  18.136  0.00  0.00    +0.000 C 
ENDBRANCH   6   9
BRANCH   1  16
ATOM     16  N   UNL     1       6.682   6.826  16.902  0.00  0.00    +0.000 N 
ATOM     17  H   UNL     1       5.840   7.139  16.432  0.00  0.00    +0.000 HD
BRANCH  16  21
ATOM     18  C   UNL     1       8.884   9.865  18.850  0.00  0.00    +0.000 A 
ATOM     19  C   UNL     1       7.999  10.163  17.815  0.00  0.00    +0.000 A 
ATOM     20  C   UNL     1       7.268   9.146  17.183  0.00  0.00    +0.000 A 
ATOM     21  C   UNL     1       7.426   7.803  17.547  0.00  0.00    +0.000 A 
ATOM     22  C   UNL     1       8.298   7.530  18.606  0.00  0.00    +0.000 A 
ATOM     23  C   UNL     1       9.035   8.539  19.239  0.00  0.00    +0.000 A 
BRANCH  18  25
ATOM     24  C   UNL     1       9.339  11.130  20.803  0.00  0.00    +0.000 C 
ATOM     25  O   UNL     1       9.528  10.935  19.405  0.00  0.00    +0.000 OA
ENDBRANCH  18  25
ENDBRANCH  16  21
ENDBRANCH   1  16
TORSDOF 4
ENDMDL
MODEL 6
REMARK VINA RESULT:      -7.0      2.846      5.513
REMARK  Name = 
REMARK  6 active torsions:
REMARK  status: ('A' for Active; 'I' for Inactive)
REMARK    1  A    between atoms: C_1  and  O_2
REMARK    2  A    between atoms: O_2  and  C_3
REMARK    3  A    between atoms: C_6  and  N_7
REMARK    4  A    between atoms: N_7  and  C_8
REMARK    5  A    between atoms: C_13  and  C_15
REMARK    6  A    between atoms: C_15  and  C_16
REMARK                            x       y       z     vdW  Elec       q    Type
REMARK                         _______ _______ _______ _____ _____    ______ ____
ROOT
ATOM      1  C   UNL     1       7.272   5.579  16.644  0.00  0.00    +0.000 C 
ATOM      2  C   UNL     1       6.880   4.971  15.293  0.00  0.00    +0.000 C 
ATOM      3  C   UNL     1       5.402   4.576  15.186  0.00  0.00    +0.000 C 
ATOM      4  C   UNL     1       4.793   3.940  16.445  0.00  0.00    +0.000 C 
ATOM      5  N   UNL     1       5.219   4.595  17.678  0.00  0.00    +0.000 N 
ATOM      6  C   UNL     1       4.488   4.864  18.838  0.00  0.00    +0.000 C 
ATOM      7  O   UNL     1       5.070   5.407  19.790  0.00  0.00    +0.000 OA
ATOM      8  C   UNL     1       6.674   4.740  17.781  0.00  0.00    +0.000 C 
ENDROOT
BRANCH   6   9
ATOM      9  C   UNL     1       2.998   4.455  19.030  0.00  0.00    +0.000 C 
ATOM     10  C   UNL     1       2.178   4.970  17.834  0.00  0.00    +0.000 C 
ATOM     11  C   UNL     1       2.970   2.884  19.012  0.00  0.00    +0.000 C 
ATOM     12  C   UNL     1       1.616   2.248  19.309  0.00  0.00    +0.000 C 
ATOM     13  C   UNL     1       1.013   2.767  20.605  0.00  0.00    +0.000 C 
ATOM     14  C   UNL     1       1.021   4.288  20.675  0.00  0.00    +0.000 C 
ATOM     15  C   UNL     1       2.406   4.886  20.391  0.00  0.00    +0.000 C 
ENDBRANCH   6   9
BRANCH   1  16
ATOM     16  N   UNL     1       6.828   6.969  16.739  0.00  0.00    +0.000 N 
ATOM     17  H   UNL     1       6.303   7.310  15.940  0.00  0.00    +0.000 HD
BRANCH  16  21
ATOM     18  C   UNL     1       8.915   9.824  19.057  0.00  0.00    +0.000 A 
ATOM     19  C   UNL     1       8.983   8.463  19.352  0.00  0.00    +0.000 A 
ATOM     20  C   UNL     1       8.293   7.525  18.570  0.00  0.00    +0.000 A 
ATOM     21  C   UNL     1       7.492   7.926  17.493  0.00  0.00    +0.000 A 
ATOM     22  C   UNL     1       7.460   9.293  17.198  0.00  0.00    +0.000 A 
ATOM     23  C   UNL     1       8.142  10.235  17.978  0.00  0.00    +0.000 A 
BRANCH  18  25
ATOM     24  C   UNL     1      10.557  11.525  19.231  0.00  0.00    +0.000 C 
ATOM     25  O   UNL     1       9.642  10.643  19.874  0.00  0.00    +0.000 OA
ENDBRANCH  18  25
ENDBRANCH  16  21
ENDBRANCH   1  16
TORSDOF 4
ENDMDL
MODEL 7
REMARK VINA RESULT:      -7.0      3.549      7.620
REMARK  Name = 
REMARK  6 active torsions:
REMARK  status: ('A' for Active; 'I' for Inactive)
REMARK    1  A    between atoms: C_1  and  O_2
REMARK    2  A    between atoms: O_2  and  C_3
REMARK    3  A    between atoms: C_6  and  N_7
REMARK    4  A    between atoms: N_7  and  C_8
REMARK    5  A    between atoms: C_13  and  C_15
REMARK    6  A    between atoms: C_15  and  C_16
REMARK                            x       y       z     vdW  Elec       q    Type
REMARK                         _______ _______ _______ _____ _____    ______ ____
ROOT
ATOM      1  C   UNL     1       1.287   4.613  20.629  0.00  0.00    +0.000 C 
ATOM      2  C   UNL     1       1.762   3.402  21.439  0.00  0.00    +0.000 C 
ATOM      3  C   UNL     1       3.139   2.869  21.026  0.00  0.00    +0.000 C 
ATOM      4  C   UNL     1       3.419   2.856  19.516  0.00  0.00    +0.000 C 
ATOM      5  N   UNL     1       2.938   4.056  18.836  0.00  0.00    +0.000 N 
ATOM      6  C   UNL     1       3.520   4.776  17.789  0.00  0.00    +0.000 C 
ATOM      7  O   UNL     1       2.911   5.757  17.337  0.00  0.00    +0.000 OA
ATOM      8  C   UNL     1       1.538   4.365  19.136  0.00  0.00    +0.000 C 
ENDROOT
BRANCH   6   9
ATOM      9  C   UNL     1       4.860   4.371  17.108  0.00  0.00    +0.000 C 
ATOM     10  C   UNL     1       4.774   2.900  16.665  0.00  0.00    +0.000 C 
ATOM     11  C   UNL     1       4.988   5.269  15.824  0.00  0.00    +0.000 C 
ATOM     12  C   UNL     1       6.298   5.132  15.054  0.00  0.00    +0.000 C 
ATOM     13  C   UNL     1       7.510   5.327  15.952  0.00  0.00    +0.000 C 
ATOM     14  C   UNL     1       7.433   4.480  17.215  0.00  0.00    +0.000 C 
ATOM     15  C   UNL     1       6.109   4.664  17.970  0.00  0.00    +0.000 C 
ENDBRANCH   6   9
BRANCH   1  16
ATOM     16  N   UNL     1       1.963   5.833  21.070  0.00  0.00    +0.000 N 
ATOM     17  H   UNL     1       2.461   5.756  21.950  0.00  0.00    +0.000 HD
BRANCH  16  21
ATOM     18  C   UNL     1       0.655   9.727  20.069  0.00  0.00    +0.000 A 
ATOM     19  C   UNL     1       0.186   9.078  21.211  0.00  0.00    +0.000 A 
ATOM     20  C   UNL     1       0.635   7.790  21.536  0.00  0.00    +0.000 A 
ATOM     21  C   UNL     1       1.538   7.105  20.713  0.00  0.00    +0.000 A 
ATOM     22  C   UNL     1       2.016   7.786  19.588  0.00  0.00    +0.000 A 
ATOM     23  C   UNL     1       1.569   9.070  19.254  0.00  0.00    +0.000 A 
BRANCH  18  25
ATOM     24  C   UNL     1      -0.149  11.741  21.028  0.00  0.00    +0.000 C 
ATOM     25  O   UNL     1       0.164  10.986  19.862  0.00  0.00    +0.000 OA
ENDBRANCH  18  25
ENDBRANCH  16  21
ENDBRANCH   1  16
TORSDOF 4
ENDMDL
MODEL 8
REMARK VINA RESULT:      -7.0      2.814      5.512
REMARK  Name = 
REMARK  6 active torsions:
REMARK  status: ('A' for Active; 'I' for Inactive)
REMARK    1  A    between atoms: C_1  and  O_2
REMARK    2  A    between atoms: O_2  and  C_3
REMARK    3  A    between atoms: C_6  and  N_7
REMARK    4  A    between atoms: N_7  and  C_8
REMARK    5  A    between atoms: C_13  and  C_15
REMARK    6  A    between atoms: C_15  and  C_16
REMARK                            x       y       z     vdW  Elec       q    Type
REMARK                         _______ _______ _______ _____ _____    ______ ____
ROOT
ATOM      1  C   UNL     1       7.286   5.496  16.497  0.00  0.00    +0.000 C 
ATOM      2  C   UNL     1       6.826   4.941  15.145  0.00  0.00    +0.000 C 
ATOM      3  C   UNL     1       5.337   4.578  15.087  0.00  0.00    +0.000 C 
ATOM      4  C   UNL     1       4.767   3.914  16.349  0.00  0.00    +0.000 C 
ATOM      5  N   UNL     1       5.257   4.519  17.584  0.00  0.00    +0.000 N 
ATOM      6  C   UNL     1       4.580   4.765  18.782  0.00  0.00    +0.000 C 
ATOM      7  O   UNL     1       5.211   5.264  19.726  0.00  0.00    +0.000 OA
ATOM      8  C   UNL     1       6.717   4.632  17.631  0.00  0.00    +0.000 C 
ENDROOT
BRANCH   6   9
ATOM      9  C   UNL     1       3.091   4.377  19.023  0.00  0.00    +0.000 C 
ATOM     10  C   UNL     1       2.244   4.880  17.840  0.00  0.00    +0.000 C 
ATOM     11  C   UNL     1       3.043   2.807  19.035  0.00  0.00    +0.000 C 
ATOM     12  C   UNL     1       1.690   2.194  19.382  0.00  0.00    +0.000 C 
ATOM     13  C   UNL     1       1.130   2.745  20.683  0.00  0.00    +0.000 C 
ATOM     14  C   UNL     1       1.158   4.267  20.724  0.00  0.00    +0.000 C 
ATOM     15  C   UNL     1       2.542   4.842  20.391  0.00  0.00    +0.000 C 
ENDBRANCH   6   9
BRANCH   1  16
ATOM     16  N   UNL     1       6.875   6.891  16.655  0.00  0.00    +0.000 N 
ATOM     17  H   UNL     1       6.355   7.279  15.875  0.00  0.00    +0.000 HD
BRANCH  16  21
ATOM     18  C   UNL     1       8.913   9.719  19.048  0.00  0.00    +0.000 A 
ATOM     19  C   UNL     1       8.163  10.114  17.941  0.00  0.00    +0.000 A 
ATOM     20  C   UNL     1       7.484   9.167  17.161  0.00  0.00    +0.000 A 
ATOM     21  C   UNL     1       7.564   7.798  17.447  0.00  0.00    +0.000 A 
ATOM     22  C   UNL     1       8.299   7.426  18.578  0.00  0.00    +0.000 A 
ATOM     23  C   UNL     1       8.983   8.366  19.359  0.00  0.00    +0.000 A 
BRANCH  18  25
ATOM     24  C   UNL     1       9.278  12.050  19.272  0.00  0.00    +0.000 C 
ATOM     25  O   UNL     1       9.515  10.728  19.746  0.00  0.00    +0.000 OA
ENDBRANCH  18  25
ENDBRANCH  16  21
ENDBRANCH   1  16
TORSDOF 4
ENDMDL
MODEL 9
REMARK VINA RESULT:      -7.0      3.648      7.816
REMARK  Name = 
REMARK  6 active torsions:
REMARK  status: ('A' for Active; 'I' for Inactive)
REMARK    1  A    between atoms: C_1  and  O_2
REMARK    2  A    between atoms: O_2  and  C_3
REMARK    3  A    between atoms: C_6  and  N_7
REMARK    4  A    between atoms: N_7  and  C_8
REMARK    5  A    between atoms: C_13  and  C_15
REMARK    6  A    between atoms: C_15  and  C_16
REMARK                            x       y       z     vdW  Elec       q    Type
REMARK                         _______ _______ _______ _____ _____    ______ ____
ROOT
ATOM      1  C   UNL     1       1.226   4.866  20.448  0.00  0.00    +0.000 C 
ATOM      2  C   UNL     1       1.657   3.591  21.181  0.00  0.00    +0.000 C 
ATOM      3  C   UNL     1       3.083   3.131  20.858  0.00  0.00    +0.000 C 
ATOM      4  C   UNL     1       3.509   3.275  19.389  0.00  0.00    +0.000 C 
ATOM      5  N   UNL     1       3.060   4.525  18.784  0.00  0.00    +0.000 N 
ATOM      6  C   UNL     1       3.719   5.358  17.875  0.00  0.00    +0.000 C 
ATOM      7  O   UNL     1       3.126   6.366  17.462  0.00  0.00    +0.000 OA
ATOM      8  C   UNL     1       1.628   4.774  18.971  0.00  0.00    +0.000 C 
ENDROOT
BRANCH   6   9
ATOM      9  C   UNL     1       5.131   5.052  17.295  0.00  0.00    +0.000 C 
ATOM     10  C   UNL     1       6.008   4.444  18.405  0.00  0.00    +0.000 C 
ATOM     11  C   UNL     1       4.920   3.966  16.179  0.00  0.00    +0.000 C 
ATOM     12  C   UNL     1       6.165   3.597  15.378  0.00  0.00    +0.000 C 
ATOM     13  C   UNL     1       6.852   4.821  14.795  0.00  0.00    +0.000 C 
ATOM     14  C   UNL     1       7.076   5.908  15.838  0.00  0.00    +0.000 C 
ATOM     15  C   UNL     1       5.795   6.264  16.605  0.00  0.00    +0.000 C 
ENDBRANCH   6   9
BRANCH   1  16
ATOM     16  N   UNL     1       1.817   6.051  21.071  0.00  0.00    +0.000 N 
ATOM     17  H   UNL     1       2.312   5.880  21.940  0.00  0.00    +0.000 HD
BRANCH  16  21
ATOM     18  C   UNL     1       0.302   9.947  20.433  0.00  0.00    +0.000 A 
ATOM     19  C   UNL     1       1.295   9.413  19.612  0.00  0.00    +0.000 A 
ATOM     20  C   UNL     1       1.782   8.116  19.829  0.00  0.00    +0.000 A 
ATOM     21  C   UNL     1       1.314   7.331  20.890  0.00  0.00    +0.000 A 
ATOM     22  C   UNL     1       0.299   7.876  21.684  0.00  0.00    +0.000 A 
ATOM     23  C   UNL     1      -0.189   9.172  21.477  0.00  0.00    +0.000 A 
BRANCH  18  25
ATOM     24  C   UNL     1       0.902  12.212  20.077  0.00  0.00    +0.000 C 
ATOM     25  O   UNL     1      -0.110  11.211  20.117  0.00  0.00    +0.000 OA
ENDBRANCH  18  25
ENDBRANCH  16  21
ENDBRANCH   1  16
TORSDOF 4
ENDMDL
