MODEL 1
REMARK VINA RESULT:      -7.2      0.000      0.000
REMARK  Name = 
REMARK  6 active torsions:
REMARK  status: ('A' for Active; 'I' for Inactive)
REMARK    1  A    between atoms: C_1  and  C_2
REMARK    2  A    between atoms: C_6  and  N_7
REMARK    3  A    between atoms: N_7  and  S_8
REMARK    4  A    between atoms: S_8  and  C_11
REMARK    5  A    between atoms: C_18  and  C_19
REMARK    6  A    between atoms: C_19  and  O_21
REMARK                            x       y       z     vdW  Elec       q    Type
REMARK                         _______ _______ _______ _____ _____    ______ ____
ROOT
ATOM      1  N   UNL     1       4.476   5.031  17.219  0.00  0.00    +0.000 N 
ATOM      2  H   UNL     1       4.393   5.739  16.489  0.00  0.00    +0.000 HD
ENDROOT
BRANCH   1   8
ATOM      3  C   UNL     1       1.078   3.018  20.498  0.00  0.00    +0.000 C 
ATOM      4  C   UNL     1       1.865   4.126  19.837  0.00  0.00    +0.000 A 
ATOM      5  C   UNL     1       1.700   5.420  20.368  0.00  0.00    +0.000 A 
ATOM      6  C   UNL     1       2.408   6.500  19.858  0.00  0.00    +0.000 A 
ATOM      7  C   UNL     1       3.303   6.302  18.820  0.00  0.00    +0.000 A 
ATOM      8  C   UNL     1       3.488   5.037  18.252  0.00  0.00    +0.000 A 
ATOM      9  C   UNL     1       2.762   3.925  18.749  0.00  0.00    +0.000 A 
BRANCH   9  10
ATOM     10  C   UNL     1       2.876   2.561  18.146  0.00  0.00    +0.000 C 
ATOM     11  O   UNL     1       2.083   2.040  17.386  0.00  0.00    +0.000 OA
BRANCH  10  12
ATOM     12  O   UNL     1       3.988   1.903  18.517  0.00  0.00    +0.000 OA
ATOM     13  H   UNL     1       4.333   1.556  17.664  0.00  0.00    +0.000 HD
ENDBRANCH  10  12
ENDBRANCH   9  10
ENDBRANCH   1   8
BRANCH   1  14
ATOM     14  S   UNL     1       6.079   4.649  17.553  0.00  0.00    +0.000 S 
ATOM     15  O   UNL     1       6.064   3.901  18.790  0.00  0.00    +0.000 OA
ATOM     16  O   UNL     1       6.705   4.101  16.364  0.00  0.00    +0.000 OA
BRANCH  14  17
ATOM     17  C   UNL     1       6.847   6.220  17.890  0.00  0.00    +0.000 A 
ATOM     18  C   UNL     1       7.889   6.326  18.819  0.00  0.00    +0.000 A 
ATOM     19  C   UNL     1       8.549   7.550  18.976  0.00  0.00    +0.000 A 
ATOM     20  C   UNL     1       8.175   8.649  18.200  0.00  0.00    +0.000 A 
ATOM     21 BR   UNL     1       9.097  10.290  18.380  0.00  0.00    +0.000 Br
ATOM     22  C   UNL     1       7.141   8.542  17.272  0.00  0.00    +0.000 A 
ATOM     23  C   UNL     1       6.478   7.325  17.113  0.00  0.00    +0.000 A 
ENDBRANCH  14  17
ENDBRANCH   1  14
TORSDOF 5
ENDMDL
MODEL 2
REMARK VINA RESULT:      -7.0      0.450      1.325
REMARK  Name = 
REMARK  6 active torsions:
REMARK  status: ('A' for Active; 'I' for Inactive)
REMARK    1  A    between atoms: C_1  and  C_2
REMARK    2  A    between atoms: C_6  and  N_7
REMARK    3  A    between atoms: N_7  and  S_8
REMARK    4  A    between atoms: S_8  and  C_11
REMARK    5  A    between atoms: C_18  and  C_19
REMARK    6  A    between atoms: C_19  and  O_21
REMARK                            x       y       z     vdW  Elec       q    Type
REMARK                         _______ _______ _______ _____ _____    ______ ____
ROOT
ATOM      1  N   UNL     1       4.128   4.846  17.272  0.00  0.00    +0.000 N 
ATOM      2  H   UNL     1       4.019   5.588  16.581  0.00  0.00    +0.000 HD
ENDROOT
BRANCH   1   8
ATOM      3  C   UNL     1       1.151   2.870  20.958  0.00  0.00    +0.000 C 
ATOM      4  C   UNL     1       1.825   3.973  20.175  0.00  0.00    +0.000 A 
ATOM      5  C   UNL     1       1.662   5.284  20.664  0.00  0.00    +0.000 A 
ATOM      6  C   UNL     1       2.273   6.363  20.040  0.00  0.00    +0.000 A 
ATOM      7  C   UNL     1       3.069   6.149  18.926  0.00  0.00    +0.000 A 
ATOM      8  C   UNL     1       3.247   4.866  18.398  0.00  0.00    +0.000 A 
ATOM      9  C   UNL     1       2.618   3.754  19.012  0.00  0.00    +0.000 A 
BRANCH   9  10
ATOM     10  C   UNL     1       2.726   2.368  18.459  0.00  0.00    +0.000 C 
ATOM     11  O   UNL     1       3.395   1.460  18.915  0.00  0.00    +0.000 OA
BRANCH  10  12
ATOM     12  O   UNL     1       1.985   2.172  17.356  0.00  0.00    +0.000 OA
ATOM     13  H   UNL     1       2.519   1.523  16.844  0.00  0.00    +0.000 HD
ENDBRANCH  10  12
ENDBRANCH   9  10
ENDBRANCH   1   8
BRANCH   1  14
ATOM     14  S   UNL     1       5.729   4.358  17.431  0.00  0.00    +0.000 S 
ATOM     15  O   UNL     1       5.813   3.662  18.696  0.00  0.00    +0.000 OA
ATOM     16  O   UNL     1       6.166   3.719  16.204  0.00  0.00    +0.000 OA
BRANCH  14  17
ATOM     17  C   UNL     1       6.641   5.880  17.600  0.00  0.00    +0.000 A 
ATOM     18  C   UNL     1       6.251   7.031  16.906  0.00  0.00    +0.000 A 
ATOM     19  C   UNL     1       6.916   8.238  17.149  0.00  0.00    +0.000 A 
ATOM     20  C   UNL     1       7.951   8.289  18.085  0.00  0.00    +0.000 A 
ATOM     21 BR   UNL     1       8.820   9.930  18.445  0.00  0.00    +0.000 Br
ATOM     22  C   UNL     1       8.336   7.143  18.778  0.00  0.00    +0.000 A 
ATOM     23  C   UNL     1       7.678   5.937  18.539  0.00  0.00    +0.000 A 
ENDBRANCH  14  17
ENDBRANCH   1  14
TORSDOF 5
ENDMDL
MODEL 3
REMARK VINA RESULT:      -6.9      2.597      5.584
REMARK  Name = 
REMARK  6 active torsions:
REMARK  status: ('A' for Active; 'I' for Inactive)
REMARK    1  A    between atoms: C_1  and  C_2
REMARK    2  A    between atoms: C_6  and  N_7
REMARK    3  A    between atoms: N_7  and  S_8
REMARK    4  A    between atoms: S_8  and  C_11
REMARK    5  A    between atoms: C_18  and  C_19
REMARK    6  A    between atoms: C_19  and  O_21
REMARK                            x       y       z     vdW  Elec       q    Type
REMARK                         _______ _______ _______ _____ _____    ______ ____
ROOT
ATOM      1  N   UNL     1       4.584   3.053  18.000  0.00  0.00    +0.000 N 
ATOM      2  H   UNL     1       5.012   2.751  18.875  0.00  0.00    +0.000 HD
ENDROOT
BRANCH   1   8
ATOM      3  C   UNL     1       7.574   7.184  17.408  0.00  0.00    +0.000 C 
ATOM      4  C   UNL     1       6.640   6.084  16.959  0.00  0.00    +0.000 A 
ATOM      5  C   UNL     1       6.393   5.990  15.576  0.00  0.00    +0.000 A 
ATOM      6  C   UNL     1       5.582   4.990  15.058  0.00  0.00    +0.000 A 
ATOM      7  C   UNL     1       5.016   4.058  15.912  0.00  0.00    +0.000 A 
ATOM      8  C   UNL     1       5.222   4.120  17.294  0.00  0.00    +0.000 A 
ATOM      9  C   UNL     1       6.035   5.144  17.843  0.00  0.00    +0.000 A 
BRANCH   9  10
ATOM     10  C   UNL     1       6.245   5.295  19.317  0.00  0.00    +0.000 C 
ATOM     11  O   UNL     1       7.299   5.179  19.910  0.00  0.00    +0.000 OA
BRANCH  10  12
ATOM     12  O   UNL     1       5.120   5.592  19.990  0.00  0.00    +0.000 OA
ATOM     13  H   UNL     1       5.094   6.575  19.952  0.00  0.00    +0.000 HD
ENDBRANCH  10  12
ENDBRANCH   9  10
ENDBRANCH   1   8
BRANCH   1  14
ATOM     14  S   UNL     1       2.910   2.911  18.030  0.00  0.00    +0.000 S 
ATOM     15  O   UNL     1       2.475   2.984  16.653  0.00  0.00    +0.000 OA
ATOM     16  O   UNL     1       2.533   1.787  18.867  0.00  0.00    +0.000 OA
BRANCH  14  17
ATOM     17  C   UNL     1       2.354   4.396  18.843  0.00  0.00    +0.000 A 
ATOM     18  C   UNL     1       1.996   4.383  20.196  0.00  0.00    +0.000 A 
ATOM     19  C   UNL     1       1.676   5.587  20.834  0.00  0.00    +0.000 A 
ATOM     20  C   UNL     1       1.728   6.788  20.124  0.00  0.00    +0.000 A 
ATOM     21 BR   UNL     1       1.339   8.419  20.999  0.00  0.00    +0.000 Br
ATOM     22  C   UNL     1       2.088   6.801  18.778  0.00  0.00    +0.000 A 
ATOM     23  C   UNL     1       2.406   5.604  18.137  0.00  0.00    +0.000 A 
ENDBRANCH  14  17
ENDBRANCH   1  14
TORSDOF 5
ENDMDL
MODEL 4
REMARK VINA RESULT:      -6.8      3.117      3.674
REMARK  Name = 
REMARK  6 active torsions:
REMARK  status: ('A' for Active; 'I' for Inactive)
REMARK    1  A    between atoms: C_1  and  C_2
REMARK    2  A    between atoms: C_6  and  N_7
REMARK    3  A    between atoms: N_7  and  S_8
REMARK    4  A    between atoms: S_8  and  C_11
REMARK    5  A    between atoms: C_18  and  C_19
REMARK    6  A    between atoms: C_19  and  O_21
REMARK                            x       y       z     vdW  Elec       q    Type
REMARK                         _______ _______ _______ _____ _____    ______ ____
ROOT
ATOM      1  N   UNL     1       3.844   6.292  17.445  0.00  0.00    +0.000 N 
ATOM      2  H   UNL     1       3.623   7.146  16.932  0.00  0.00    +0.000 HD
ENDROOT
BRANCH   1   8
ATOM      3  C   UNL     1       1.142   3.159  20.484  0.00  0.00    +0.000 C 
ATOM      4  C   UNL     1       1.684   4.487  20.009  0.00  0.00    +0.000 A 
ATOM      5  C   UNL     1       1.390   5.610  20.805  0.00  0.00    +0.000 A 
ATOM      6  C   UNL     1       1.875   6.868  20.477  0.00  0.00    +0.000 A 
ATOM      7  C   UNL     1       2.674   7.023  19.357  0.00  0.00    +0.000 A 
ATOM      8  C   UNL     1       2.981   5.938  18.528  0.00  0.00    +0.000 A 
ATOM      9  C   UNL     1       2.481   4.648  18.839  0.00  0.00    +0.000 A 
BRANCH   9  10
ATOM     10  C   UNL     1       2.728   3.462  17.961  0.00  0.00    +0.000 C 
ATOM     11  O   UNL     1       2.030   3.090  17.037  0.00  0.00    +0.000 OA
BRANCH  10  12
ATOM     12  O   UNL     1       3.849   2.789  18.273  0.00  0.00    +0.000 OA
ATOM     13  H   UNL     1       4.401   2.894  17.466  0.00  0.00    +0.000 HD
ENDBRANCH  10  12
ENDBRANCH   9  10
ENDBRANCH   1   8
BRANCH   1  14
ATOM     14  S   UNL     1       5.499   6.011  17.528  0.00  0.00    +0.000 S 
ATOM     15  O   UNL     1       6.131   7.310  17.474  0.00  0.00    +0.000 OA
ATOM     16  O   UNL     1       5.782   5.095  18.617  0.00  0.00    +0.000 OA
BRANCH  14  17
ATOM     17  C   UNL     1       5.882   5.170  16.005  0.00  0.00    +0.000 A 
ATOM     18  C   UNL     1       4.900   4.446  15.318  0.00  0.00    +0.000 A 
ATOM     19  C   UNL     1       5.201   3.894  14.068  0.00  0.00    +0.000 A 
ATOM     20  C   UNL     1       6.468   4.079  13.510  0.00  0.00    +0.000 A 
ATOM     21 BR   UNL     1       6.860   3.373  11.800  0.00  0.00    +0.000 Br
ATOM     22  C   UNL     1       7.444   4.805  14.192  0.00  0.00    +0.000 A 
ATOM     23  C   UNL     1       7.149   5.355  15.439  0.00  0.00    +0.000 A 
ENDBRANCH  14  17
ENDBRANCH   1  14
TORSDOF 5
ENDMDL
MODEL 5
REMARK VINA RESULT:      -6.7      2.626      5.641
REMARK  Name = 
REMARK  6 active torsions:
REMARK  status: ('A' for Active; 'I' for Inactive)
REMARK    1  A    between atoms: C_1  and  C_2
REMARK    2  A    between atoms: C_6  and  N_7
REMARK    3  A    between atoms: N_7  and  S_8
REMARK    4  A    between atoms: S_8  and  C_11
REMARK    5  A    between atoms: C_18  and  C_19
REMARK    6  A    between atoms: C_19  and  O_21
REMARK                            x       y       z     vdW  Elec       q    Type
REMARK                         _______ _______ _______ _____ _____    ______ ____
ROOT
ATOM      1  N   UNL     1       4.561   3.082  17.988  0.00  0.00    +0.000 N 
ATOM      2  H   UNL     1       5.033   2.692  18.804  0.00  0.00    +0.000 HD
ENDROOT
BRANCH   1   8
ATOM      3  C   UNL     1       7.664   7.130  17.408  0.00  0.00    +0.000 C 
ATOM      4  C   UNL     1       6.700   6.058  16.957  0.00  0.00    +0.000 A 
ATOM      5  C   UNL     1       6.449   5.976  15.573  0.00  0.00    +0.000 A 
ATOM      6  C   UNL     1       5.610   5.001  15.053  0.00  0.00    +0.000 A 
ATOM      7  C   UNL     1       5.018   4.082  15.904  0.00  0.00    +0.000 A 
ATOM      8  C   UNL     1       5.227   4.134  17.286  0.00  0.00    +0.000 A 
ATOM      9  C   UNL     1       6.069   5.132  17.838  0.00  0.00    +0.000 A 
BRANCH   9  10
ATOM     10  C   UNL     1       6.285   5.272  19.312  0.00  0.00    +0.000 C 
ATOM     11  O   UNL     1       7.328   5.089  19.908  0.00  0.00    +0.000 OA
BRANCH  10  12
ATOM     12  O   UNL     1       5.180   5.641  19.982  0.00  0.00    +0.000 OA
ATOM     13  H   UNL     1       5.521   6.313  20.614  0.00  0.00    +0.000 HD
ENDBRANCH  10  12
ENDBRANCH   9  10
ENDBRANCH   1   8
BRANCH   1  14
ATOM     14  S   UNL     1       2.889   3.078  18.162  0.00  0.00    +0.000 S 
ATOM     15  O   UNL     1       2.345   3.118  16.823  0.00  0.00    +0.000 OA
ATOM     16  O   UNL     1       2.499   2.031  19.088  0.00  0.00    +0.000 OA
BRANCH  14  17
ATOM     17  C   UNL     1       2.520   4.641  18.933  0.00  0.00    +0.000 A 
ATOM     18  C   UNL     1       2.531   5.828  18.191  0.00  0.00    +0.000 A 
ATOM     19  C   UNL     1       2.124   7.022  18.798  0.00  0.00    +0.000 A 
ATOM     20  C   UNL     1       1.701   7.020  20.129  0.00  0.00    +0.000 A 
ATOM     21 BR   UNL     1       1.109   8.625  20.934  0.00  0.00    +0.000 Br
ATOM     22  C   UNL     1       1.686   5.837  20.865  0.00  0.00    +0.000 A 
ATOM     23  C   UNL     1       2.092   4.645  20.266  0.00  0.00    +0.000 A 
ENDBRANCH  14  17
ENDBRANCH   1  14
TORSDOF 5
ENDMDL
MODEL 6
REMARK VINA RESULT:      -6.7      2.825      3.497
REMARK  Name = 
REMARK  6 active torsions:
REMARK  status: ('A' for Active; 'I' for Inactive)
REMARK    1  A    between atoms: C_1  and  C_2
REMARK    2  A    between atoms: C_6  and  N_7
REMARK    3  A    between atoms: N_7  and  S_8
REMARK    4  A    between atoms: S_8  and  C_11
REMARK    5  A    between atoms: C_18  and  C_19
REMARK    6  A    between atoms: C_19  and  O_21
REMARK                            x       y       z     vdW  Elec       q    Type
REMARK                         _______ _______ _______ _____ _____    ______ ____
ROOT
ATOM      1  N   UNL     1       4.664   3.152  17.626  0.00  0.00    +0.000 N 
ATOM      2  H   UNL     1       4.731   2.768  16.683  0.00  0.00    +0.000 HD
ENDROOT
BRANCH   1   8
ATOM      3  C   UNL     1       1.337   2.392  21.462  0.00  0.00    +0.000 C 
ATOM      4  C   UNL     1       1.762   2.761  20.059  0.00  0.00    +0.000 A 
ATOM      5  C   UNL     1       0.755   3.247  19.203  0.00  0.00    +0.000 A 
ATOM      6  C   UNL     1       1.048   3.651  17.908  0.00  0.00    +0.000 A 
ATOM      7  C   UNL     1       2.355   3.590  17.452  0.00  0.00    +0.000 A 
ATOM      8  C   UNL     1       3.385   3.102  18.262  0.00  0.00    +0.000 A 
ATOM      9  C   UNL     1       3.101   2.670  19.583  0.00  0.00    +0.000 A 
BRANCH   9  10
ATOM     10  C   UNL     1       4.150   2.086  20.476  0.00  0.00    +0.000 C 
ATOM     11  O   UNL     1       4.144   2.087  21.691  0.00  0.00    +0.000 OA
BRANCH  10  12
ATOM     12  O   UNL     1       5.167   1.517  19.806  0.00  0.00    +0.000 OA
ATOM     13  H   UNL     1       5.926   1.629  20.421  0.00  0.00    +0.000 HD
ENDBRANCH  10  12
ENDBRANCH   9  10
ENDBRANCH   1   8
BRANCH   1  14
ATOM     14  S   UNL     1       5.697   4.458  17.856  0.00  0.00    +0.000 S 
ATOM     15  O   UNL     1       6.327   4.251  19.140  0.00  0.00    +0.000 OA
ATOM     16  O   UNL     1       6.497   4.659  16.662  0.00  0.00    +0.000 OA
BRANCH  14  17
ATOM     17  C   UNL     1       4.609   5.859  18.016  0.00  0.00    +0.000 A 
ATOM     18  C   UNL     1       4.414   6.743  16.948  0.00  0.00    +0.000 A 
ATOM     19  C   UNL     1       3.466   7.766  17.066  0.00  0.00    +0.000 A 
ATOM     20  C   UNL     1       2.715   7.890  18.238  0.00  0.00    +0.000 A 
ATOM     21 BR   UNL     1       1.403   9.244  18.379  0.00  0.00    +0.000 Br
ATOM     22  C   UNL     1       2.907   7.007  19.299  0.00  0.00    +0.000 A 
ATOM     23  C   UNL     1       3.852   5.987  19.187  0.00  0.00    +0.000 A 
ENDBRANCH  14  17
ENDBRANCH   1  14
TORSDOF 5
ENDMDL
MODEL 7
REMARK VINA RESULT:      -6.7      0.592      1.218
REMARK  Name = 
REMARK  6 active torsions:
REMARK  status: ('A' for Active; 'I' for Inactive)
REMARK    1  A    between atoms: C_1  and  C_2
REMARK    2  A    between atoms: C_6  and  N_7
REMARK    3  A    between atoms: N_7  and  S_8
REMARK    4  A    between atoms: S_8  and  C_11
REMARK    5  A    between atoms: C_18  and  C_19
REMARK    6  A    between atoms: C_19  and  O_21
REMARK                            x       y       z     vdW  Elec       q    Type
REMARK                         _______ _______ _______ _____ _____    ______ ____
ROOT
ATOM      1  N   UNL     1       4.644   5.132  17.631  0.00  0.00    +0.000 N 
ATOM      2  H   UNL     1       4.549   5.892  16.957  0.00  0.00    +0.000 HD
ENDROOT
BRANCH   1   8
ATOM      3  C   UNL     1       1.650   2.742  21.048  0.00  0.00    +0.000 C 
ATOM      4  C   UNL     1       2.188   3.925  20.278  0.00  0.00    +0.000 A 
ATOM      5  C   UNL     1       1.700   5.194  20.648  0.00  0.00    +0.000 A 
ATOM      6  C   UNL     1       2.161   6.348  20.031  0.00  0.00    +0.000 A 
ATOM      7  C   UNL     1       3.128   6.255  19.043  0.00  0.00    +0.000 A 
ATOM      8  C   UNL     1       3.632   5.016  18.633  0.00  0.00    +0.000 A 
ATOM      9  C   UNL     1       3.161   3.825  19.242  0.00  0.00    +0.000 A 
BRANCH   9  10
ATOM     10  C   UNL     1       3.620   2.469  18.807  0.00  0.00    +0.000 C 
ATOM     11  O   UNL     1       3.133   1.793  17.922  0.00  0.00    +0.000 OA
BRANCH  10  12
ATOM     12  O   UNL     1       4.680   2.015  19.498  0.00  0.00    +0.000 OA
ATOM     13  H   UNL     1       5.376   2.679  19.294  0.00  0.00    +0.000 HD
ENDBRANCH  10  12
ENDBRANCH   9  10
ENDBRANCH   1   8
BRANCH   1  14
ATOM     14  S   UNL     1       6.253   4.790  17.979  0.00  0.00    +0.000 S 
ATOM     15  O   UNL     1       6.276   4.311  19.343  0.00  0.00    +0.000 OA
ATOM     16  O   UNL     1       6.823   3.996  16.906  0.00  0.00    +0.000 OA
BRANCH  14  17
ATOM     17  C   UNL     1       7.058   6.379  17.958  0.00  0.00    +0.000 A 
ATOM     18  C   UNL     1       6.565   7.423  17.167  0.00  0.00    +0.000 A 
ATOM     19  C   UNL     1       7.149   8.692  17.261  0.00  0.00    +0.000 A 
ATOM     20  C   UNL     1       8.206   8.909  18.147  0.00  0.00    +0.000 A 
ATOM     21 BR   UNL     1       8.965  10.634  18.307  0.00  0.00    +0.000 Br
ATOM     22  C   UNL     1       8.694   7.870  18.938  0.00  0.00    +0.000 A 
ATOM     23  C   UNL     1       8.116   6.603  18.847  0.00  0.00    +0.000 A 
ENDBRANCH  14  17
ENDBRANCH   1  14
TORSDOF 5
ENDMDL
MODEL 8
REMARK VINA RESULT:      -6.7      3.174      3.650
REMARK  Name = 
REMARK  6 active torsions:
REMARK  status: ('A' for Active; 'I' for Inactive)
REMARK    1  A    between atoms: C_1  and  C_2
REMARK    2  A    between atoms: C_6  and  N_7
REMARK    3  A    between atoms: N_7  and  S_8
REMARK    4  A    between atoms: S_8  and  C_11
REMARK    5  A    between atoms: C_18  and  C_19
REMARK    6  A    between atoms: C_19  and  O_21
REMARK                            x       y       z     vdW  Elec       q    Type
REMARK                         _______ _______ _______ _____ _____    ______ ____
ROOT
ATOM      1  N   UNL     1       3.807   5.987  17.393  0.00  0.00    +0.000 N 
ATOM      2  H   UNL     1       3.492   6.833  16.918  0.00  0.00    +0.000 HD
ENDROOT
BRANCH   1   8
ATOM      3  C   UNL     1       1.509   2.554  20.441  0.00  0.00    +0.000 C 
ATOM      4  C   UNL     1       1.925   3.935  19.990  0.00  0.00    +0.000 A 
ATOM      5  C   UNL     1       1.589   5.005  20.841  0.00  0.00    +0.000 A 
ATOM      6  C   UNL     1       1.960   6.307  20.537  0.00  0.00    +0.000 A 
ATOM      7  C   UNL     1       2.686   6.560  19.385  0.00  0.00    +0.000 A 
ATOM      8  C   UNL     1       3.030   5.531  18.503  0.00  0.00    +0.000 A 
ATOM      9  C   UNL     1       2.646   4.196  18.789  0.00  0.00    +0.000 A 
BRANCH   9  10
ATOM     10  C   UNL     1       2.936   3.063  17.856  0.00  0.00    +0.000 C 
ATOM     11  O   UNL     1       2.213   2.660  16.964  0.00  0.00    +0.000 OA
BRANCH  10  12
ATOM     12  O   UNL     1       4.127   2.480  18.075  0.00  0.00    +0.000 OA
ATOM     13  H   UNL     1       4.538   2.478  17.182  0.00  0.00    +0.000 HD
ENDBRANCH  10  12
ENDBRANCH   9  10
ENDBRANCH   1   8
BRANCH   1  14
ATOM     14  S   UNL     1       5.482   5.843  17.389  0.00  0.00    +0.000 S 
ATOM     15  O   UNL     1       6.001   7.189  17.474  0.00  0.00    +0.000 OA
ATOM     16  O   UNL     1       5.884   4.831  18.348  0.00  0.00    +0.000 OA
BRANCH  14  17
ATOM     17  C   UNL     1       5.869   5.225  15.763  0.00  0.00    +0.000 A 
ATOM     18  C   UNL     1       7.135   5.427  15.201  0.00  0.00    +0.000 A 
ATOM     19  C   UNL     1       7.445   4.830  13.974  0.00  0.00    +0.000 A 
ATOM     20  C   UNL     1       6.499   4.032  13.326  0.00  0.00    +0.000 A 
ATOM     21 BR   UNL     1       6.934   3.189  11.690  0.00  0.00    +0.000 Br
ATOM     22  C   UNL     1       5.240   3.828  13.889  0.00  0.00    +0.000 A 
ATOM     23  C   UNL     1       4.925   4.422  15.111  0.00  0.00    +0.000 A 
ENDBRANCH  14  17
ENDBRANCH   1  14
TORSDOF 5
ENDMDL
MODEL 9
REMARK VINA RESULT:      -6.7      3.319      3.921
REMARK  Name = 
REMARK  6 active torsions:
REMARK  status: ('A' for Active; 'I' for Inactive)
REMARK    1  A    between atoms: C_1  and  C_2
REMARK    2  A    between atoms: C_6  and  N_7
REMARK    3  A    between atoms: N_7  and  S_8
REMARK    4  A    between atoms: S_8  and  C_11
REMARK    5  A    between atoms: C_18  and  C_19
REMARK    6  A    between atoms: C_19  and  O_21
REMARK                            x       y       z     vdW  Elec       q    Type
REMARK                         _______ _______ _______ _____ _____    ______ ____
ROOT
ATOM      1  N   UNL     1       5.152   3.713  19.733  0.00  0.00    +0.000 N 
ATOM      2  H   UNL     1       5.915   3.044  19.828  0.00  0.00    +0.000 HD
ENDROOT
BRANCH   1   8
ATOM      3  C   UNL     1       0.084   2.913  19.923  0.00  0.00    +0.000 C 
ATOM      4  C   UNL     1       1.475   2.803  19.343  0.00  0.00    +0.000 A 
ATOM      5  C   UNL     1       1.589   2.170  18.090  0.00  0.00    +0.000 A 
ATOM      6  C   UNL     1       2.816   2.053  17.454  0.00  0.00    +0.000 A 
ATOM      7  C   UNL     1       3.949   2.580  18.052  0.00  0.00    +0.000 A 
ATOM      8  C   UNL     1       3.887   3.205  19.302  0.00  0.00    +0.000 A 
ATOM      9  C   UNL     1       2.644   3.320  19.974  0.00  0.00    +0.000 A 
BRANCH   9  10
ATOM     10  C   UNL     1       2.524   3.926  21.336  0.00  0.00    +0.000 C 
ATOM     11  O   UNL     1       2.377   3.325  22.383  0.00  0.00    +0.000 OA
BRANCH  10  12
ATOM     12  O   UNL     1       2.599   5.268  21.333  0.00  0.00    +0.000 OA
ATOM     13  H   UNL     1       3.562   5.434  21.223  0.00  0.00    +0.000 HD
ENDBRANCH  10  12
ENDBRANCH   9  10
ENDBRANCH   1   8
BRANCH   1  14
ATOM     14  S   UNL     1       5.692   5.227  19.241  0.00  0.00    +0.000 S 
ATOM     15  O   UNL     1       4.571   6.126  19.400  0.00  0.00    +0.000 OA
ATOM     16  O   UNL     1       6.967   5.516  19.870  0.00  0.00    +0.000 OA
BRANCH  14  17
ATOM     17  C   UNL     1       5.984   5.046  17.492  0.00  0.00    +0.000 A 
ATOM     18  C   UNL     1       5.099   5.591  16.556  0.00  0.00    +0.000 A 
ATOM     19  C   UNL     1       5.416   5.533  15.194  0.00  0.00    +0.000 A 
ATOM     20  C   UNL     1       6.614   4.945  14.781  0.00  0.00    +0.000 A 
ATOM     21 BR   UNL     1       7.064   4.907  12.945  0.00  0.00    +0.000 Br
ATOM     22  C   UNL     1       7.497   4.406  15.715  0.00  0.00    +0.000 A 
ATOM     23  C   UNL     1       7.185   4.460  17.073  0.00  0.00    +0.000 A 
ENDBRANCH  14  17
ENDBRANCH   1  14
TORSDOF 5
ENDMDL
