MODEL 1
REMARK VINA RESULT:      -6.8      0.000      0.000
REMARK  Name = 
REMARK  3 active torsions:
REMARK  status: ('A' for Active; 'I' for Inactive)
REMARK    1  A    between atoms: C_1  and  C_2
REMARK    2  A    between atoms: C_5  and  N_6
REMARK    3  A    between atoms: N_11  and  N_12
REMARK                            x       y       z     vdW  Elec       q    Type
REMARK                         _______ _______ _______ _____ _____    ______ ____
ROOT
ATOM      1  N   UNL     1       5.385   4.492  16.746  0.00  0.00    +0.000 N 
ATOM      2  C   UNL     1       5.505   4.779  15.317  0.00  0.00    +0.000 C 
ATOM      3  C   UNL     1       7.020   4.646  15.113  0.00  0.00    +0.000 C 
ATOM      4  N   UNL     1       7.517   4.987  16.427  0.00  0.00    +0.000 N 
ATOM      5  C   UNL     1       6.583   4.736  17.414  0.00  0.00    +0.000 C 
ATOM      6  N   UNL     1       6.792   4.735  18.698  0.00  0.00    +0.000 NA
ATOM      7  H   UNL     1       8.491   4.901  16.671  0.00  0.00    +0.000 HD
ENDROOT
BRANCH   1  12
ATOM      8  C   UNL     1       0.470   2.489  18.941  0.00  0.00    +0.000 C 
ATOM      9  C   UNL     1       1.750   3.004  18.355  0.00  0.00    +0.000 A 
ATOM     10  C   UNL     1       2.797   2.138  18.038  0.00  0.00    +0.000 A 
ATOM     11  C   UNL     1       3.996   2.637  17.516  0.00  0.00    +0.000 A 
ATOM     12  C   UNL     1       4.189   4.006  17.281  0.00  0.00    +0.000 A 
ATOM     13  C   UNL     1       3.118   4.860  17.591  0.00  0.00    +0.000 A 
ATOM     14  C   UNL     1       1.920   4.370  18.125  0.00  0.00    +0.000 A 
ENDBRANCH   1  12
BRANCH   6  15
ATOM     15  N   UNL     1       8.048   5.052  19.099  0.00  0.00    +0.000 N 
ATOM     16  H   UNL     1       8.447   5.711  18.430  0.00  0.00    +0.000 HD
ATOM     17  H   UNL     1       8.042   5.523  19.998  0.00  0.00    +0.000 HD
ENDBRANCH   6  15
TORSDOF 2
ENDMDL
MODEL 2
REMARK VINA RESULT:      -6.7      0.081      1.283
REMARK  Name = 
REMARK  3 active torsions:
REMARK  status: ('A' for Active; 'I' for Inactive)
REMARK    1  A    between atoms: C_1  and  C_2
REMARK    2  A    between atoms: C_5  and  N_6
REMARK    3  A    between atoms: N_11  and  N_12
REMARK                            x       y       z     vdW  Elec       q    Type
REMARK                         _______ _______ _______ _____ _____    ______ ____
ROOT
ATOM      1  N   UNL     1       5.370   4.542  16.788  0.00  0.00    +0.000 N 
ATOM      2  C   UNL     1       5.513   4.823  15.360  0.00  0.00    +0.000 C 
ATOM      3  C   UNL     1       7.032   4.703  15.184  0.00  0.00    +0.000 C 
ATOM      4  N   UNL     1       7.503   5.056  16.505  0.00  0.00    +0.000 N 
ATOM      5  C   UNL     1       6.553   4.802  17.476  0.00  0.00    +0.000 C 
ATOM      6  N   UNL     1       6.739   4.810  18.763  0.00  0.00    +0.000 NA
ATOM      7  H   UNL     1       8.472   4.982  16.766  0.00  0.00    +0.000 HD
ENDROOT
BRANCH   1  12
ATOM      8  C   UNL     1       0.434   2.517  18.914  0.00  0.00    +0.000 C 
ATOM      9  C   UNL     1       1.725   3.053  18.373  0.00  0.00    +0.000 A 
ATOM     10  C   UNL     1       1.907   4.420  18.167  0.00  0.00    +0.000 A 
ATOM     11  C   UNL     1       3.108   4.903  17.635  0.00  0.00    +0.000 A 
ATOM     12  C   UNL     1       4.169   4.048  17.304  0.00  0.00    +0.000 A 
ATOM     13  C   UNL     1       3.973   2.676  17.533  0.00  0.00    +0.000 A 
ATOM     14  C   UNL     1       2.769   2.184  18.053  0.00  0.00    +0.000 A 
ENDBRANCH   1  12
BRANCH   6  15
ATOM     15  N   UNL     1       7.985   5.142  19.185  0.00  0.00    +0.000 N 
ATOM     16  H   UNL     1       8.325   4.406  19.804  0.00  0.00    +0.000 HD
ATOM     17  H   UNL     1       8.637   5.190  18.409  0.00  0.00    +0.000 HD
ENDBRANCH   6  15
TORSDOF 2
ENDMDL
MODEL 3
REMARK VINA RESULT:      -6.7      1.689      2.114
REMARK  Name = 
REMARK  3 active torsions:
REMARK  status: ('A' for Active; 'I' for Inactive)
REMARK    1  A    between atoms: C_1  and  C_2
REMARK    2  A    between atoms: C_5  and  N_6
REMARK    3  A    between atoms: N_11  and  N_12
REMARK                            x       y       z     vdW  Elec       q    Type
REMARK                         _______ _______ _______ _____ _____    ______ ____
ROOT
ATOM      1  N   UNL     1       5.532   4.627  18.129  0.00  0.00    +0.000 N 
ATOM      2  C   UNL     1       5.421   4.698  16.673  0.00  0.00    +0.000 C 
ATOM      3  C   UNL     1       6.892   4.567  16.255  0.00  0.00    +0.000 C 
ATOM      4  N   UNL     1       7.568   5.113  17.412  0.00  0.00    +0.000 N 
ATOM      5  C   UNL     1       6.806   4.994  18.558  0.00  0.00    +0.000 C 
ATOM      6  N   UNL     1       7.207   5.191  19.780  0.00  0.00    +0.000 NA
ATOM      7  H   UNL     1       8.569   5.085  17.510  0.00  0.00    +0.000 HD
ENDROOT
BRANCH   1  12
ATOM      8  C   UNL     1       1.101   2.890  21.343  0.00  0.00    +0.000 C 
ATOM      9  C   UNL     1       2.265   3.348  20.517  0.00  0.00    +0.000 A 
ATOM     10  C   UNL     1       2.570   4.704  20.394  0.00  0.00    +0.000 A 
ATOM     11  C   UNL     1       3.643   5.119  19.596  0.00  0.00    +0.000 A 
ATOM     12  C   UNL     1       4.454   4.203  18.910  0.00  0.00    +0.000 A 
ATOM     13  C   UNL     1       4.140   2.842  19.059  0.00  0.00    +0.000 A 
ATOM     14  C   UNL     1       3.061   2.420  19.845  0.00  0.00    +0.000 A 
ENDBRANCH   1  12
BRANCH   6  15
ATOM     15  N   UNL     1       8.495   5.591  19.929  0.00  0.00    +0.000 N 
ATOM     16  H   UNL     1       8.886   5.129  20.749  0.00  0.00    +0.000 HD
ATOM     17  H   UNL     1       9.064   5.306  19.139  0.00  0.00    +0.000 HD
ENDBRANCH   6  15
TORSDOF 2
ENDMDL
MODEL 4
REMARK VINA RESULT:      -6.6      1.715      1.735
REMARK  Name = 
REMARK  3 active torsions:
REMARK  status: ('A' for Active; 'I' for Inactive)
REMARK    1  A    between atoms: C_1  and  C_2
REMARK    2  A    between atoms: C_5  and  N_6
REMARK    3  A    between atoms: N_11  and  N_12
REMARK                            x       y       z     vdW  Elec       q    Type
REMARK                         _______ _______ _______ _____ _____    ______ ____
ROOT
ATOM      1  N   UNL     1       5.485   4.867  18.196  0.00  0.00    +0.000 N 
ATOM      2  C   UNL     1       5.326   5.128  16.766  0.00  0.00    +0.000 C 
ATOM      3  C   UNL     1       6.776   5.007  16.278  0.00  0.00    +0.000 C 
ATOM      4  N   UNL     1       7.510   5.379  17.467  0.00  0.00    +0.000 N 
ATOM      5  C   UNL     1       6.785   5.137  18.618  0.00  0.00    +0.000 C 
ATOM      6  N   UNL     1       7.235   5.163  19.839  0.00  0.00    +0.000 NA
ATOM      7  H   UNL     1       8.513   5.309  17.522  0.00  0.00    +0.000 HD
ENDROOT
BRANCH   1  12
ATOM      8  C   UNL     1       1.108   2.854  21.322  0.00  0.00    +0.000 C 
ATOM      9  C   UNL     1       2.243   3.375  20.493  0.00  0.00    +0.000 A 
ATOM     10  C   UNL     1       3.077   2.507  19.789  0.00  0.00    +0.000 A 
ATOM     11  C   UNL     1       4.150   3.005  19.041  0.00  0.00    +0.000 A 
ATOM     12  C   UNL     1       4.420   4.379  18.958  0.00  0.00    +0.000 A 
ATOM     13  C   UNL     1       3.560   5.238  19.660  0.00  0.00    +0.000 A 
ATOM     14  C   UNL     1       2.492   4.746  20.421  0.00  0.00    +0.000 A 
ENDBRANCH   1  12
BRANCH   6  15
ATOM     15  N   UNL     1       8.540   5.502  19.987  0.00  0.00    +0.000 N 
ATOM     16  H   UNL     1       9.116   4.769  19.574  0.00  0.00    +0.000 HD
ATOM     17  H   UNL     1       8.759   6.357  19.486  0.00  0.00    +0.000 HD
ENDBRANCH   6  15
TORSDOF 2
ENDMDL
MODEL 5
REMARK VINA RESULT:      -6.4      1.706      2.149
REMARK  Name = 
REMARK  3 active torsions:
REMARK  status: ('A' for Active; 'I' for Inactive)
REMARK    1  A    between atoms: C_1  and  C_2
REMARK    2  A    between atoms: C_5  and  N_6
REMARK    3  A    between atoms: N_11  and  N_12
REMARK                            x       y       z     vdW  Elec       q    Type
REMARK                         _______ _______ _______ _____ _____    ______ ____
ROOT
ATOM      1  N   UNL     1       5.740   5.936  18.146  0.00  0.00    +0.000 N 
ATOM      2  C   UNL     1       5.816   6.990  17.136  0.00  0.00    +0.000 C 
ATOM      3  C   UNL     1       7.334   7.119  16.954  0.00  0.00    +0.000 C 
ATOM      4  N   UNL     1       7.815   6.694  18.249  0.00  0.00    +0.000 N 
ATOM      5  C   UNL     1       6.919   5.854  18.882  0.00  0.00    +0.000 C 
ATOM      6  N   UNL     1       7.143   5.142  19.948  0.00  0.00    +0.000 NA
ATOM      7  H   UNL     1       8.795   6.564  18.441  0.00  0.00    +0.000 HD
ENDROOT
BRANCH   1  12
ATOM      8  C   UNL     1       1.048   2.660  18.638  0.00  0.00    +0.000 C 
ATOM      9  C   UNL     1       2.276   3.512  18.525  0.00  0.00    +0.000 A 
ATOM     10  C   UNL     1       2.409   4.686  19.265  0.00  0.00    +0.000 A 
ATOM     11  C   UNL     1       3.550   5.486  19.128  0.00  0.00    +0.000 A 
ATOM     12  C   UNL     1       4.598   5.138  18.264  0.00  0.00    +0.000 A 
ATOM     13  C   UNL     1       4.454   3.944  17.539  0.00  0.00    +0.000 A 
ATOM     14  C   UNL     1       3.310   3.146  17.661  0.00  0.00    +0.000 A 
ENDBRANCH   1  12
BRANCH   6  15
ATOM     15  N   UNL     1       8.371   5.276  20.509  0.00  0.00    +0.000 N 
ATOM     16  H   UNL     1       9.075   5.019  19.817  0.00  0.00    +0.000 HD
ATOM     17  H   UNL     1       8.558   6.240  20.765  0.00  0.00    +0.000 HD
ENDBRANCH   6  15
TORSDOF 2
ENDMDL
MODEL 6
REMARK VINA RESULT:      -6.4      1.658      1.776
REMARK  Name = 
REMARK  3 active torsions:
REMARK  status: ('A' for Active; 'I' for Inactive)
REMARK    1  A    between atoms: C_1  and  C_2
REMARK    2  A    between atoms: C_5  and  N_6
REMARK    3  A    between atoms: N_11  and  N_12
REMARK                            x       y       z     vdW  Elec       q    Type
REMARK                         _______ _______ _______ _____ _____    ______ ____
ROOT
ATOM      1  N   UNL     1       5.707   5.850  18.114  0.00  0.00    +0.000 N 
ATOM      2  C   UNL     1       5.794   6.861  17.061  0.00  0.00    +0.000 C 
ATOM      3  C   UNL     1       7.314   6.980  16.888  0.00  0.00    +0.000 C 
ATOM      4  N   UNL     1       7.782   6.610  18.205  0.00  0.00    +0.000 N 
ATOM      5  C   UNL     1       6.880   5.799  18.865  0.00  0.00    +0.000 C 
ATOM      6  N   UNL     1       7.092   5.133  19.962  0.00  0.00    +0.000 NA
ATOM      7  H   UNL     1       8.760   6.488  18.411  0.00  0.00    +0.000 HD
ENDROOT
BRANCH   1  12
ATOM      8  C   UNL     1       1.009   2.596  18.685  0.00  0.00    +0.000 C 
ATOM      9  C   UNL     1       2.230   3.450  18.521  0.00  0.00    +0.000 A 
ATOM     10  C   UNL     1       3.203   3.140  17.571  0.00  0.00    +0.000 A 
ATOM     11  C   UNL     1       4.352   3.931  17.449  0.00  0.00    +0.000 A 
ATOM     12  C   UNL     1       4.564   5.059  18.255  0.00  0.00    +0.000 A 
ATOM     13  C   UNL     1       3.566   5.364  19.194  0.00  0.00    +0.000 A 
ATOM     14  C   UNL     1       2.420   4.571  19.331  0.00  0.00    +0.000 A 
ENDBRANCH   1  12
BRANCH   6  15
ATOM     15  N   UNL     1       8.316   5.289  20.528  0.00  0.00    +0.000 N 
ATOM     16  H   UNL     1       8.301   6.129  21.107  0.00  0.00    +0.000 HD
ATOM     17  H   UNL     1       8.538   4.516  21.147  0.00  0.00    +0.000 HD
ENDBRANCH   6  15
TORSDOF 2
ENDMDL
MODEL 7
REMARK VINA RESULT:      -6.3      1.464      2.549
REMARK  Name = 
REMARK  3 active torsions:
REMARK  status: ('A' for Active; 'I' for Inactive)
REMARK    1  A    between atoms: C_1  and  C_2
REMARK    2  A    between atoms: C_5  and  N_6
REMARK    3  A    between atoms: N_11  and  N_12
REMARK                            x       y       z     vdW  Elec       q    Type
REMARK                         _______ _______ _______ _____ _____    ______ ____
ROOT
ATOM      1  N   UNL     1       5.705   4.983  17.520  0.00  0.00    +0.000 N 
ATOM      2  C   UNL     1       6.579   5.897  18.253  0.00  0.00    +0.000 C 
ATOM      3  C   UNL     1       7.310   6.598  17.101  0.00  0.00    +0.000 C 
ATOM      4  N   UNL     1       7.267   5.582  16.073  0.00  0.00    +0.000 N 
ATOM      5  C   UNL     1       6.203   4.718  16.246  0.00  0.00    +0.000 C 
ATOM      6  N   UNL     1       5.769   3.840  15.390  0.00  0.00    +0.000 NA
ATOM      7  H   UNL     1       7.580   5.757  15.132  0.00  0.00    +0.000 HD
ENDROOT
BRANCH   1  12
ATOM      8  C   UNL     1       0.835   3.049  19.872  0.00  0.00    +0.000 C 
ATOM      9  C   UNL     1       2.103   3.568  19.264  0.00  0.00    +0.000 A 
ATOM     10  C   UNL     1       2.078   4.555  18.279  0.00  0.00    +0.000 A 
ATOM     11  C   UNL     1       3.270   5.010  17.702  0.00  0.00    +0.000 A 
ATOM     12  C   UNL     1       4.521   4.511  18.093  0.00  0.00    +0.000 A 
ATOM     13  C   UNL     1       4.526   3.529  19.097  0.00  0.00    +0.000 A 
ATOM     14  C   UNL     1       3.338   3.060  19.671  0.00  0.00    +0.000 A 
ENDBRANCH   1  12
BRANCH   6  15
ATOM     15  N   UNL     1       6.464   3.744  14.228  0.00  0.00    +0.000 N 
ATOM     16  H   UNL     1       6.875   2.813  14.171  0.00  0.00    +0.000 HD
ATOM     17  H   UNL     1       5.853   3.840  13.423  0.00  0.00    +0.000 HD
ENDBRANCH   6  15
TORSDOF 2
ENDMDL
MODEL 8
REMARK VINA RESULT:      -6.3      1.460      2.292
REMARK  Name = 
REMARK  3 active torsions:
REMARK  status: ('A' for Active; 'I' for Inactive)
REMARK    1  A    between atoms: C_1  and  C_2
REMARK    2  A    between atoms: C_5  and  N_6
REMARK    3  A    between atoms: N_11  and  N_12
REMARK                            x       y       z     vdW  Elec       q    Type
REMARK                         _______ _______ _______ _____ _____    ______ ____
ROOT
ATOM      1  N   UNL     1       5.702   4.988  17.524  0.00  0.00    +0.000 N 
ATOM      2  C   UNL     1       6.579   5.900  18.256  0.00  0.00    +0.000 C 
ATOM      3  C   UNL     1       7.312   6.598  17.103  0.00  0.00    +0.000 C 
ATOM      4  N   UNL     1       7.266   5.580  16.077  0.00  0.00    +0.000 N 
ATOM      5  C   UNL     1       6.200   4.720  16.251  0.00  0.00    +0.000 C 
ATOM      6  N   UNL     1       5.764   3.842  15.396  0.00  0.00    +0.000 NA
ATOM      7  H   UNL     1       7.580   5.753  15.135  0.00  0.00    +0.000 HD
ENDROOT
BRANCH   1  12
ATOM      8  C   UNL     1       0.833   3.056  19.880  0.00  0.00    +0.000 C 
ATOM      9  C   UNL     1       2.106   3.546  19.258  0.00  0.00    +0.000 A 
ATOM     10  C   UNL     1       3.342   3.034  19.651  0.00  0.00    +0.000 A 
ATOM     11  C   UNL     1       4.525   3.521  19.081  0.00  0.00    +0.000 A 
ATOM     12  C   UNL     1       4.516   4.520  18.097  0.00  0.00    +0.000 A 
ATOM     13  C   UNL     1       3.261   5.012  17.703  0.00  0.00    +0.000 A 
ATOM     14  C   UNL     1       2.075   4.539  18.277  0.00  0.00    +0.000 A 
ENDBRANCH   1  12
BRANCH   6  15
ATOM     15  N   UNL     1       6.458   3.743  14.234  0.00  0.00    +0.000 N 
ATOM     16  H   UNL     1       6.865   4.653  14.020  0.00  0.00    +0.000 HD
ATOM     17  H   UNL     1       7.233   3.094  14.321  0.00  0.00    +0.000 HD
ENDBRANCH   6  15
TORSDOF 2
ENDMDL
MODEL 9
REMARK VINA RESULT:      -6.3      1.758      2.180
REMARK  Name = 
REMARK  3 active torsions:
REMARK  status: ('A' for Active; 'I' for Inactive)
REMARK    1  A    between atoms: C_1  and  C_2
REMARK    2  A    between atoms: C_5  and  N_6
REMARK    3  A    between atoms: N_11  and  N_12
REMARK                            x       y       z     vdW  Elec       q    Type
REMARK                         _______ _______ _______ _____ _____    ______ ____
ROOT
ATOM      1  N   UNL     1       5.402   5.104  16.645  0.00  0.00    +0.000 N 
ATOM      2  C   UNL     1       5.414   4.294  15.427  0.00  0.00    +0.000 C 
ATOM      3  C   UNL     1       6.876   4.440  14.986  0.00  0.00    +0.000 C 
ATOM      4  N   UNL     1       7.216   5.730  15.544  0.00  0.00    +0.000 N 
ATOM      5  C   UNL     1       6.432   6.042  16.638  0.00  0.00    +0.000 C 
ATOM      6  N   UNL     1       6.626   7.015  17.479  0.00  0.00    +0.000 NA
ATOM      7  H   UNL     1       8.155   6.093  15.521  0.00  0.00    +0.000 HD
ENDROOT
BRANCH   1  12
ATOM      8  C   UNL     1       1.523   4.165  20.775  0.00  0.00    +0.000 C 
ATOM      9  C   UNL     1       2.539   4.424  19.703  0.00  0.00    +0.000 A 
ATOM     10  C   UNL     1       2.331   5.410  18.739  0.00  0.00    +0.000 A 
ATOM     11  C   UNL     1       3.276   5.622  17.727  0.00  0.00    +0.000 A 
ATOM     12  C   UNL     1       4.459   4.873  17.650  0.00  0.00    +0.000 A 
ATOM     13  C   UNL     1       4.657   3.896  18.639  0.00  0.00    +0.000 A 
ATOM     14  C   UNL     1       3.712   3.670  19.646  0.00  0.00    +0.000 A 
ENDBRANCH   1  12
BRANCH   6  15
ATOM     15  N   UNL     1       7.685   7.824  17.223  0.00  0.00    +0.000 N 
ATOM     16  H   UNL     1       8.332   7.771  18.009  0.00  0.00    +0.000 HD
ATOM     17  H   UNL     1       8.198   7.513  16.405  0.00  0.00    +0.000 HD
ENDBRANCH   6  15
TORSDOF 2
ENDMDL
