MODEL 1
REMARK VINA RESULT:      -7.3      0.000      0.000
REMARK  Name = 
REMARK  16 active torsions:
REMARK  status: ('A' for Active; 'I' for Inactive)
REMARK    1  A    between atoms: C_1  and  C_2
REMARK    2  A    between atoms: C_2  and  C_3
REMARK    3  A    between atoms: C_3  and  C_4
REMARK    4  A    between atoms: C_4  and  C_5
REMARK    5  A    between atoms: C_5  and  C_6
REMARK    6  A    between atoms: C_6  and  C_7
REMARK    7  A    between atoms: C_6  and  O_8
REMARK    8  A    between atoms: C_6  and  C_9
REMARK    9  A    between atoms: C_9  and  C_10
REMARK   10  A    between atoms: C_11  and  C_12
REMARK   11  A    between atoms: C_17  and  C_18
REMARK   12  A    between atoms: C_18  and  C_19
REMARK   13  A    between atoms: C_19  and  S_20
REMARK   14  A    between atoms: S_20  and  C_21
REMARK   15  A    between atoms: C_23  and  C_24
REMARK   16  A    between atoms: C_24  and  O_26
REMARK                            x       y       z     vdW  Elec       q    Type
REMARK                         _______ _______ _______ _____ _____    ______ ____
ROOT
ATOM      1  C   UNK     1       2.685   6.936  17.964  0.00  0.00    +0.000 C 
ATOM      2  C   UNK     1       2.615   5.628  18.766  0.00  0.00    +0.000 C 
ATOM      3  C   UNK     1       1.875   5.909  20.060  0.00  0.00    +0.000 C 
ATOM      4  C   UNK     1       1.848   7.400  20.158  0.00  0.00    +0.000 C 
ATOM      5  O   UNK     1       1.515   7.990  21.182  0.00  0.00    +0.000 OA
ATOM      6  C   UNK     1       2.273   8.104  18.897  0.00  0.00    +0.000 C 
ENDROOT
BRANCH   1   8
ATOM      7  C   UNK     1       4.764   6.050  16.906  0.00  0.00    +0.000 C 
ATOM      8  C   UNK     1       4.061   7.091  17.372  0.00  0.00    +0.000 C 
BRANCH   7   9
ATOM      9  C   UNK     1       6.137   6.119  16.340  0.00  0.00    +0.000 C 
BRANCH   9  10
ATOM     10  C   UNK     1       6.644   4.722  15.907  0.00  0.00    +0.000 C 
ATOM     11  C   UNK     1       5.641   3.615  16.275  0.00  0.00    +0.000 C 
BRANCH  10  12
ATOM     12  O   UNK     1       7.875   4.457  16.601  0.00  0.00    +0.000 OA
ATOM     13  H   UNK     1       8.050   5.192  17.213  0.00  0.00    +0.000 HD
ENDBRANCH  10  12
BRANCH  10  14
ATOM     14  C   UNK     1       6.925   4.720  14.392  0.00  0.00    +0.000 C 
BRANCH  14  15
ATOM     15  C   UNK     1       5.892   3.908  13.601  0.00  0.00    +0.000 C 
BRANCH  15  16
ATOM     16  C   UNK     1       6.406   3.496  12.230  0.00  0.00    +0.000 C 
BRANCH  16  18
ATOM     17  C   UNK     1       4.166   3.101  11.160  0.00  0.00    +0.000 C 
ATOM     18  C   UNK     1       5.464   2.463  11.615  0.00  0.00    +0.000 C 
ENDBRANCH  16  18
ENDBRANCH  15  16
ENDBRANCH  14  15
ENDBRANCH  10  14
ENDBRANCH   9  10
ENDBRANCH   7   9
ENDBRANCH   1   8
BRANCH   6  19
ATOM     19  C   UNK     1       1.223   9.011  18.252  0.00  0.00    +0.000 C 
BRANCH  19  20
ATOM     20  C   UNK     1       1.486  10.495  18.523  0.00  0.00    +0.000 C 
BRANCH  20  21
ATOM     21  S   UNK     1       0.396  11.090  19.847  0.00  0.00    +0.000 S 
BRANCH  21  22
ATOM     22  C   UNK     1      -1.093  11.320  18.952  0.00  0.00    +0.000 A 
ATOM     23  N   UNK     1      -1.269  10.827  17.746  0.00  0.00    +0.000 NA
ATOM     24  C   UNK     1      -2.564  11.129  17.306  0.00  0.00    +0.000 A 
ATOM     25  C   UNK     1      -3.330  11.847  18.206  0.00  0.00    +0.000 A 
ATOM     26  S   UNK     1      -2.426  12.169  19.620  0.00  0.00    +0.000 S 
BRANCH  24  27
ATOM     27  C   UNK     1      -3.026  10.671  16.000  0.00  0.00    +0.000 C 
ATOM     28  O   UNK     1      -2.972   9.508  15.617  0.00  0.00    +0.000 OA
BRANCH  27  29
ATOM     29  O   UNK     1      -3.519  11.681  15.239  0.00  0.00    +0.000 OA
ATOM     30  H   UNK     1      -4.497  11.583  15.209  0.00  0.00    +0.000 HD
ENDBRANCH  27  29
ENDBRANCH  24  27
ENDBRANCH  21  22
ENDBRANCH  20  21
ENDBRANCH  19  20
ENDBRANCH   6  19
TORSDOF 14
ENDMDL
MODEL 2
REMARK VINA RESULT:      -7.3      2.255      3.154
REMARK  Name = 
REMARK  16 active torsions:
REMARK  status: ('A' for Active; 'I' for Inactive)
REMARK    1  A    between atoms: C_1  and  C_2
REMARK    2  A    between atoms: C_2  and  C_3
REMARK    3  A    between atoms: C_3  and  C_4
REMARK    4  A    between atoms: C_4  and  C_5
REMARK    5  A    between atoms: C_5  and  C_6
REMARK    6  A    between atoms: C_6  and  C_7
REMARK    7  A    between atoms: C_6  and  O_8
REMARK    8  A    between atoms: C_6  and  C_9
REMARK    9  A    between atoms: C_9  and  C_10
REMARK   10  A    between atoms: C_11  and  C_12
REMARK   11  A    between atoms: C_17  and  C_18
REMARK   12  A    between atoms: C_18  and  C_19
REMARK   13  A    between atoms: C_19  and  S_20
REMARK   14  A    between atoms: S_20  and  C_21
REMARK   15  A    between atoms: C_23  and  C_24
REMARK   16  A    between atoms: C_24  and  O_26
REMARK                            x       y       z     vdW  Elec       q    Type
REMARK                         _______ _______ _______ _____ _____    ______ ____
ROOT
ATOM      1  C   UNK     1       2.170   4.798  18.571  0.00  0.00    +0.000 C 
ATOM      2  C   UNK     1       1.614   3.430  18.149  0.00  0.00    +0.000 C 
ATOM      3  C   UNK     1       1.507   2.563  19.389  0.00  0.00    +0.000 C 
ATOM      4  C   UNK     1       2.317   3.284  20.418  0.00  0.00    +0.000 C 
ATOM      5  O   UNK     1       2.634   2.772  21.488  0.00  0.00    +0.000 OA
ATOM      6  C   UNK     1       2.712   4.680  20.018  0.00  0.00    +0.000 C 
ENDROOT
BRANCH   1   8
ATOM      7  C   UNK     1       4.252   6.009  17.917  0.00  0.00    +0.000 C 
ATOM      8  C   UNK     1       3.202   5.252  17.572  0.00  0.00    +0.000 C 
BRANCH   7   9
ATOM      9  C   UNK     1       5.291   6.523  16.987  0.00  0.00    +0.000 C 
BRANCH   9  10
ATOM     10  C   UNK     1       6.665   5.859  17.246  0.00  0.00    +0.000 C 
ATOM     11  C   UNK     1       6.947   5.709  18.750  0.00  0.00    +0.000 C 
BRANCH  10  12
ATOM     12  O   UNK     1       7.683   6.704  16.683  0.00  0.00    +0.000 OA
ATOM     13  H   UNK     1       7.256   7.368  16.116  0.00  0.00    +0.000 HD
ENDBRANCH  10  12
BRANCH  10  14
ATOM     14  C   UNK     1       6.719   4.490  16.541  0.00  0.00    +0.000 C 
BRANCH  14  15
ATOM     15  C   UNK     1       6.983   4.612  15.035  0.00  0.00    +0.000 C 
BRANCH  15  16
ATOM     16  C   UNK     1       5.815   4.109  14.201  0.00  0.00    +0.000 C 
BRANCH  16  18
ATOM     17  C   UNK     1       5.202   3.119  11.973  0.00  0.00    +0.000 C 
ATOM     18  C   UNK     1       6.291   3.792  12.785  0.00  0.00    +0.000 C 
ENDBRANCH  16  18
ENDBRANCH  15  16
ENDBRANCH  14  15
ENDBRANCH  10  14
ENDBRANCH   9  10
ENDBRANCH   7   9
ENDBRANCH   1   8
BRANCH   6  19
ATOM     19  C   UNK     1       2.195   5.804  20.919  0.00  0.00    +0.000 C 
BRANCH  19  20
ATOM     20  C   UNK     1       1.976   7.113  20.154  0.00  0.00    +0.000 C 
BRANCH  20  21
ATOM     21  S   UNK     1       1.208   8.347  21.242  0.00  0.00    +0.000 S 
BRANCH  21  22
ATOM     22  C   UNK     1       0.527   9.439  20.053  0.00  0.00    +0.000 A 
ATOM     23  N   UNK     1      -0.517  10.195  20.312  0.00  0.00    +0.000 NA
ATOM     24  C   UNK     1      -0.802  10.992  19.196  0.00  0.00    +0.000 A 
ATOM     25  C   UNK     1       0.047  10.807  18.120  0.00  0.00    +0.000 A 
ATOM     26  S   UNK     1       1.213   9.614  18.490  0.00  0.00    +0.000 S 
BRANCH  24  27
ATOM     27  C   UNK     1      -1.905  11.946  19.231  0.00  0.00    +0.000 C 
ATOM     28  O   UNK     1      -2.514  12.260  20.248  0.00  0.00    +0.000 OA
BRANCH  27  29
ATOM     29  O   UNK     1      -2.198  12.448  18.005  0.00  0.00    +0.000 OA
ATOM     30  H   UNK     1      -2.581  11.719  17.467  0.00  0.00    +0.000 HD
ENDBRANCH  27  29
ENDBRANCH  24  27
ENDBRANCH  21  22
ENDBRANCH  20  21
ENDBRANCH  19  20
ENDBRANCH   6  19
TORSDOF 14
ENDMDL
MODEL 3
REMARK VINA RESULT:      -7.3      2.639      4.461
REMARK  Name = 
REMARK  16 active torsions:
REMARK  status: ('A' for Active; 'I' for Inactive)
REMARK    1  A    between atoms: C_1  and  C_2
REMARK    2  A    between atoms: C_2  and  C_3
REMARK    3  A    between atoms: C_3  and  C_4
REMARK    4  A    between atoms: C_4  and  C_5
REMARK    5  A    between atoms: C_5  and  C_6
REMARK    6  A    between atoms: C_6  and  C_7
REMARK    7  A    between atoms: C_6  and  O_8
REMARK    8  A    between atoms: C_6  and  C_9
REMARK    9  A    between atoms: C_9  and  C_10
REMARK   10  A    between atoms: C_11  and  C_12
REMARK   11  A    between atoms: C_17  and  C_18
REMARK   12  A    between atoms: C_18  and  C_19
REMARK   13  A    between atoms: C_19  and  S_20
REMARK   14  A    between atoms: S_20  and  C_21
REMARK   15  A    between atoms: C_23  and  C_24
REMARK   16  A    between atoms: C_24  and  O_26
REMARK                            x       y       z     vdW  Elec       q    Type
REMARK                         _______ _______ _______ _____ _____    ______ ____
ROOT
ATOM      1  C   UNK     1       2.734   3.455  18.293  0.00  0.00    +0.000 C 
ATOM      2  C   UNK     1       2.361   2.089  18.889  0.00  0.00    +0.000 C 
ATOM      3  C   UNK     1       1.820   2.320  20.287  0.00  0.00    +0.000 C 
ATOM      4  C   UNK     1       2.213   3.725  20.613  0.00  0.00    +0.000 C 
ATOM      5  O   UNK     1       2.129   4.190  21.746  0.00  0.00    +0.000 OA
ATOM      6  C   UNK     1       2.727   4.505  19.433  0.00  0.00    +0.000 C 
ENDROOT
BRANCH   1   8
ATOM      7  C   UNK     1       4.305   3.992  16.429  0.00  0.00    +0.000 C 
ATOM      8  C   UNK     1       4.055   3.348  17.576  0.00  0.00    +0.000 C 
BRANCH   7   9
ATOM      9  C   UNK     1       5.566   3.910  15.648  0.00  0.00    +0.000 C 
BRANCH   9  10
ATOM     10  C   UNK     1       6.291   5.277  15.592  0.00  0.00    +0.000 C 
ATOM     11  C   UNK     1       5.310   6.447  15.775  0.00  0.00    +0.000 C 
BRANCH  10  12
ATOM     12  O   UNK     1       6.904   5.406  14.298  0.00  0.00    +0.000 OA
ATOM     13  H   UNK     1       6.386   4.891  13.657  0.00  0.00    +0.000 HD
ENDBRANCH  10  12
BRANCH  10  14
ATOM     14  C   UNK     1       7.396   5.321  16.665  0.00  0.00    +0.000 C 
BRANCH  14  15
ATOM     15  C   UNK     1       6.935   6.004  17.959  0.00  0.00    +0.000 C 
BRANCH  15  16
ATOM     16  C   UNK     1       7.952   7.012  18.474  0.00  0.00    +0.000 C 
BRANCH  16  18
ATOM     17  C   UNK     1       8.555   9.448  18.328  0.00  0.00    +0.000 C 
ATOM     18  C   UNK     1       7.901   8.278  17.620  0.00  0.00    +0.000 C 
ENDBRANCH  16  18
ENDBRANCH  15  16
ENDBRANCH  14  15
ENDBRANCH  10  14
ENDBRANCH   9  10
ENDBRANCH   7   9
ENDBRANCH   1   8
BRANCH   6  19
ATOM     19  C   UNK     1       1.926   5.754  19.059  0.00  0.00    +0.000 C 
BRANCH  19  20
ATOM     20  C   UNK     1       2.714   7.047  19.295  0.00  0.00    +0.000 C 
BRANCH  20  21
ATOM     21  S   UNK     1       2.290   8.274  18.026  0.00  0.00    +0.000 S 
BRANCH  21  22
ATOM     22  C   UNK     1       1.257   9.344  18.951  0.00  0.00    +0.000 A 
ATOM     23  N   UNK     1       0.675  10.394  18.414  0.00  0.00    +0.000 NA
ATOM     24  C   UNK     1      -0.121  11.027  19.376  0.00  0.00    +0.000 A 
ATOM     25  C   UNK     1      -0.112  10.426  20.622  0.00  0.00    +0.000 A 
ATOM     26  S   UNK     1       0.913   9.059  20.607  0.00  0.00    +0.000 S 
BRANCH  24  27
ATOM     27  C   UNK     1      -0.901  12.210  19.029  0.00  0.00    +0.000 C 
ATOM     28  O   UNK     1      -1.641  12.802  19.807  0.00  0.00    +0.000 OA
BRANCH  27  29
ATOM     29  O   UNK     1      -0.727  12.587  17.738  0.00  0.00    +0.000 OA
ATOM     30  H   UNK     1      -0.967  13.539  17.669  0.00  0.00    +0.000 HD
ENDBRANCH  27  29
ENDBRANCH  24  27
ENDBRANCH  21  22
ENDBRANCH  20  21
ENDBRANCH  19  20
ENDBRANCH   6  19
TORSDOF 14
ENDMDL
MODEL 4
REMARK VINA RESULT:      -7.3      3.290      4.915
REMARK  Name = 
REMARK  16 active torsions:
REMARK  status: ('A' for Active; 'I' for Inactive)
REMARK    1  A    between atoms: C_1  and  C_2
REMARK    2  A    between atoms: C_2  and  C_3
REMARK    3  A    between atoms: C_3  and  C_4
REMARK    4  A    between atoms: C_4  and  C_5
REMARK    5  A    between atoms: C_5  and  C_6
REMARK    6  A    between atoms: C_6  and  C_7
REMARK    7  A    between atoms: C_6  and  O_8
REMARK    8  A    between atoms: C_6  and  C_9
REMARK    9  A    between atoms: C_9  and  C_10
REMARK   10  A    between atoms: C_11  and  C_12
REMARK   11  A    between atoms: C_17  and  C_18
REMARK   12  A    between atoms: C_18  and  C_19
REMARK   13  A    between atoms: C_19  and  S_20
REMARK   14  A    between atoms: S_20  and  C_21
REMARK   15  A    between atoms: C_23  and  C_24
REMARK   16  A    between atoms: C_24  and  O_26
REMARK                            x       y       z     vdW  Elec       q    Type
REMARK                         _______ _______ _______ _____ _____    ______ ____
ROOT
ATOM      1  C   UNK     1       1.909   4.383  18.105  0.00  0.00    +0.000 C 
ATOM      2  C   UNK     1       1.101   3.158  18.556  0.00  0.00    +0.000 C 
ATOM      3  C   UNK     1       0.973   3.210  20.066  0.00  0.00    +0.000 C 
ATOM      4  C   UNK     1       1.984   4.226  20.492  0.00  0.00    +0.000 C 
ATOM      5  O   UNK     1       2.314   4.381  21.664  0.00  0.00    +0.000 OA
ATOM      6  C   UNK     1       2.561   5.027  19.355  0.00  0.00    +0.000 C 
ENDROOT
BRANCH   1   8
ATOM      7  C   UNK     1       4.226   4.041  17.241  0.00  0.00    +0.000 C 
ATOM      8  C   UNK     1       2.902   3.971  17.049  0.00  0.00    +0.000 C 
BRANCH   7   9
ATOM      9  C   UNK     1       5.265   3.686  16.239  0.00  0.00    +0.000 C 
BRANCH   9  10
ATOM     10  C   UNK     1       6.471   4.655  16.302  0.00  0.00    +0.000 C 
ATOM     11  C   UNK     1       7.016   4.973  14.900  0.00  0.00    +0.000 C 
BRANCH  10  12
ATOM     12  O   UNK     1       7.517   4.018  17.055  0.00  0.00    +0.000 OA
ATOM     13  H   UNK     1       8.372   4.246  16.651  0.00  0.00    +0.000 HD
ENDBRANCH  10  12
BRANCH  10  14
ATOM     14  C   UNK     1       6.058   5.947  17.032  0.00  0.00    +0.000 C 
BRANCH  14  15
ATOM     15  C   UNK     1       6.726   6.087  18.406  0.00  0.00    +0.000 C 
BRANCH  15  16
ATOM     16  C   UNK     1       8.019   6.886  18.343  0.00  0.00    +0.000 C 
BRANCH  16  18
ATOM     17  C   UNK     1       8.483   9.356  18.275  0.00  0.00    +0.000 C 
ATOM     18  C   UNK     1       7.777   8.198  17.597  0.00  0.00    +0.000 C 
ENDBRANCH  16  18
ENDBRANCH  15  16
ENDBRANCH  14  15
ENDBRANCH  10  14
ENDBRANCH   9  10
ENDBRANCH   7   9
ENDBRANCH   1   8
BRANCH   6  19
ATOM     19  C   UNK     1       2.321   6.537  19.415  0.00  0.00    +0.000 C 
BRANCH  19  20
ATOM     20  C   UNK     1       2.255   7.175  18.024  0.00  0.00    +0.000 C 
BRANCH  20  21
ATOM     21  S   UNK     1       2.532   8.965  18.145  0.00  0.00    +0.000 S 
BRANCH  21  22
ATOM     22  C   UNK     1       1.287   9.401  19.298  0.00  0.00    +0.000 A 
ATOM     23  N   UNK     1       1.427   9.202  20.590  0.00  0.00    +0.000 NA
ATOM     24  C   UNK     1       0.299   9.691  21.261  0.00  0.00    +0.000 A 
ATOM     25  C   UNK     1      -0.667  10.247  20.441  0.00  0.00    +0.000 A 
ATOM     26  S   UNK     1      -0.175  10.152  18.807  0.00  0.00    +0.000 S 
BRANCH  24  27
ATOM     27  C   UNK     1       0.213   9.616  22.715  0.00  0.00    +0.000 C 
ATOM     28  O   UNK     1       1.179   9.486  23.458  0.00  0.00    +0.000 OA
BRANCH  27  29
ATOM     29  O   UNK     1      -1.064   9.698  23.166  0.00  0.00    +0.000 OA
ATOM     30  H   UNK     1      -1.096  10.405  23.848  0.00  0.00    +0.000 HD
ENDBRANCH  27  29
ENDBRANCH  24  27
ENDBRANCH  21  22
ENDBRANCH  20  21
ENDBRANCH  19  20
ENDBRANCH   6  19
TORSDOF 14
ENDMDL
MODEL 5
REMARK VINA RESULT:      -7.2      3.907      9.139
REMARK  Name = 
REMARK  16 active torsions:
REMARK  status: ('A' for Active; 'I' for Inactive)
REMARK    1  A    between atoms: C_1  and  C_2
REMARK    2  A    between atoms: C_2  and  C_3
REMARK    3  A    between atoms: C_3  and  C_4
REMARK    4  A    between atoms: C_4  and  C_5
REMARK    5  A    between atoms: C_5  and  C_6
REMARK    6  A    between atoms: C_6  and  C_7
REMARK    7  A    between atoms: C_6  and  O_8
REMARK    8  A    between atoms: C_6  and  C_9
REMARK    9  A    between atoms: C_9  and  C_10
REMARK   10  A    between atoms: C_11  and  C_12
REMARK   11  A    between atoms: C_17  and  C_18
REMARK   12  A    between atoms: C_18  and  C_19
REMARK   13  A    between atoms: C_19  and  S_20
REMARK   14  A    between atoms: S_20  and  C_21
REMARK   15  A    between atoms: C_23  and  C_24
REMARK   16  A    between atoms: C_24  and  O_26
REMARK                            x       y       z     vdW  Elec       q    Type
REMARK                         _______ _______ _______ _____ _____    ______ ____
ROOT
ATOM      1  C   UNK     1       2.340   5.617  19.223  0.00  0.00    +0.000 C 
ATOM      2  C   UNK     1       1.532   5.453  20.518  0.00  0.00    +0.000 C 
ATOM      3  C   UNK     1       1.307   3.971  20.747  0.00  0.00    +0.000 C 
ATOM      4  C   UNK     1       1.655   3.334  19.440  0.00  0.00    +0.000 C 
ATOM      5  O   UNK     1       1.391   2.163  19.183  0.00  0.00    +0.000 OA
ATOM      6  C   UNK     1       2.344   4.260  18.473  0.00  0.00    +0.000 C 
ENDROOT
BRANCH   1   8
ATOM      7  C   UNK     1       2.203   8.015  18.543  0.00  0.00    +0.000 C 
ATOM      8  C   UNK     1       1.771   6.754  18.414  0.00  0.00    +0.000 C 
BRANCH   7   9
ATOM      9  C   UNK     1       1.669   9.191  17.807  0.00  0.00    +0.000 C 
BRANCH   9  10
ATOM     10  C   UNK     1       0.887  10.142  18.746  0.00  0.00    +0.000 C 
ATOM     11  C   UNK     1      -0.585  10.275  18.320  0.00  0.00    +0.000 C 
BRANCH  10  12
ATOM     12  O   UNK     1       1.493  11.443  18.670  0.00  0.00    +0.000 OA
ATOM     13  H   UNK     1       0.830  12.075  18.345  0.00  0.00    +0.000 HD
ENDBRANCH  10  12
BRANCH  10  14
ATOM     14  C   UNK     1       0.990   9.637  20.198  0.00  0.00    +0.000 C 
BRANCH  14  15
ATOM     15  C   UNK     1      -0.383   9.453  20.857  0.00  0.00    +0.000 C 
BRANCH  15  16
ATOM     16  C   UNK     1      -0.287   8.757  22.207  0.00  0.00    +0.000 C 
BRANCH  16  18
ATOM     17  C   UNK     1      -1.009  11.080  22.838  0.00  0.00    +0.000 C 
ATOM     18  C   UNK     1      -0.380   9.791  23.328  0.00  0.00    +0.000 C 
ENDBRANCH  16  18
ENDBRANCH  15  16
ENDBRANCH  14  15
ENDBRANCH  10  14
ENDBRANCH   9  10
ENDBRANCH   7   9
ENDBRANCH   1   8
BRANCH   6  19
ATOM     19  C   UNK     1       3.752   3.846  18.041  0.00  0.00    +0.000 C 
BRANCH  19  20
ATOM     20  C   UNK     1       4.702   3.673  19.231  0.00  0.00    +0.000 C 
BRANCH  20  21
ATOM     21  S   UNK     1       6.008   4.933  19.171  0.00  0.00    +0.000 S 
BRANCH  21  22
ATOM     22  C   UNK     1       5.944   5.378  17.478  0.00  0.00    +0.000 A 
ATOM     23  N   UNK     1       6.541   4.670  16.545  0.00  0.00    +0.000 NA
ATOM     24  C   UNK     1       6.277   5.238  15.291  0.00  0.00    +0.000 A 
ATOM     25  C   UNK     1       5.480   6.368  15.323  0.00  0.00    +0.000 A 
ATOM     26  S   UNK     1       5.061   6.745  16.937  0.00  0.00    +0.000 S 
BRANCH  24  27
ATOM     27  C   UNK     1       6.804   4.626  14.077  0.00  0.00    +0.000 C 
ATOM     28  O   UNK     1       7.581   5.179  13.306  0.00  0.00    +0.000 OA
BRANCH  27  29
ATOM     29  O   UNK     1       6.332   3.369  13.880  0.00  0.00    +0.000 OA
ATOM     30  H   UNK     1       5.391   3.355  14.166  0.00  0.00    +0.000 HD
ENDBRANCH  27  29
ENDBRANCH  24  27
ENDBRANCH  21  22
ENDBRANCH  20  21
ENDBRANCH  19  20
ENDBRANCH   6  19
TORSDOF 14
ENDMDL
MODEL 6
REMARK VINA RESULT:      -7.2      1.536      2.003
REMARK  Name = 
REMARK  16 active torsions:
REMARK  status: ('A' for Active; 'I' for Inactive)
REMARK    1  A    between atoms: C_1  and  C_2
REMARK    2  A    between atoms: C_2  and  C_3
REMARK    3  A    between atoms: C_3  and  C_4
REMARK    4  A    between atoms: C_4  and  C_5
REMARK    5  A    between atoms: C_5  and  C_6
REMARK    6  A    between atoms: C_6  and  C_7
REMARK    7  A    between atoms: C_6  and  O_8
REMARK    8  A    between atoms: C_6  and  C_9
REMARK    9  A    between atoms: C_9  and  C_10
REMARK   10  A    between atoms: C_11  and  C_12
REMARK   11  A    between atoms: C_17  and  C_18
REMARK   12  A    between atoms: C_18  and  C_19
REMARK   13  A    between atoms: C_19  and  S_20
REMARK   14  A    between atoms: S_20  and  C_21
REMARK   15  A    between atoms: C_23  and  C_24
REMARK   16  A    between atoms: C_24  and  O_26
REMARK                            x       y       z     vdW  Elec       q    Type
REMARK                         _______ _______ _______ _____ _____    ______ ____
ROOT
ATOM      1  C   UNK     1       2.421   6.345  18.564  0.00  0.00    +0.000 C 
ATOM      2  C   UNK     1       1.941   5.083  17.831  0.00  0.00    +0.000 C 
ATOM      3  C   UNK     1       1.430   4.103  18.869  0.00  0.00    +0.000 C 
ATOM      4  C   UNK     1       1.940   4.636  20.170  0.00  0.00    +0.000 C 
ATOM      5  O   UNK     1       1.902   3.987  21.211  0.00  0.00    +0.000 OA
ATOM      6  C   UNK     1       2.509   6.027  20.079  0.00  0.00    +0.000 C 
ENDROOT
BRANCH   1   8
ATOM      7  C   UNK     1       4.307   6.182  16.937  0.00  0.00    +0.000 C 
ATOM      8  C   UNK     1       3.724   6.809  17.967  0.00  0.00    +0.000 C 
BRANCH   7   9
ATOM      9  C   UNK     1       5.604   6.560  16.317  0.00  0.00    +0.000 C 
BRANCH   9  10
ATOM     10  C   UNK     1       6.392   5.314  15.845  0.00  0.00    +0.000 C 
ATOM     11  C   UNK     1       6.800   4.420  17.027  0.00  0.00    +0.000 C 
BRANCH  10  12
ATOM     12  O   UNK     1       7.591   5.765  15.191  0.00  0.00    +0.000 OA
ATOM     13  H   UNK     1       7.522   6.723  15.045  0.00  0.00    +0.000 HD
ENDBRANCH  10  12
BRANCH  10  14
ATOM     14  C   UNK     1       5.548   4.522  14.828  0.00  0.00    +0.000 C 
BRANCH  14  15
ATOM     15  C   UNK     1       6.395   3.572  13.971  0.00  0.00    +0.000 C 
BRANCH  15  16
ATOM     16  C   UNK     1       6.328   3.915  12.490  0.00  0.00    +0.000 C 
BRANCH  16  18
ATOM     17  C   UNK     1       5.878   1.709  11.372  0.00  0.00    +0.000 C 
ATOM     18  C   UNK     1       5.284   3.035  11.805  0.00  0.00    +0.000 C 
ENDBRANCH  16  18
ENDBRANCH  15  16
ENDBRANCH  14  15
ENDBRANCH  10  14
ENDBRANCH   9  10
ENDBRANCH   7   9
ENDBRANCH   1   8
BRANCH   6  19
ATOM     19  C   UNK     1       1.811   7.089  20.931  0.00  0.00    +0.000 C 
BRANCH  19  20
ATOM     20  C   UNK     1       1.359   8.297  20.105  0.00  0.00    +0.000 C 
BRANCH  20  21
ATOM     21  S   UNK     1       0.286   9.368  21.103  0.00  0.00    +0.000 S 
BRANCH  21  22
ATOM     22  C   UNK     1      -0.258  10.501  19.883  0.00  0.00    +0.000 A 
ATOM     23  N   UNK     1      -1.318  10.274  19.139  0.00  0.00    +0.000 NA
ATOM     24  C   UNK     1      -1.534  11.369  18.293  0.00  0.00    +0.000 A 
ATOM     25  C   UNK     1      -0.618  12.395  18.428  0.00  0.00    +0.000 A 
ATOM     26  S   UNK     1       0.543  11.994  19.616  0.00  0.00    +0.000 S 
BRANCH  24  27
ATOM     27  C   UNK     1      -2.671  11.383  17.378  0.00  0.00    +0.000 C 
ATOM     28  O   UNK     1      -3.840  11.262  17.726  0.00  0.00    +0.000 OA
BRANCH  27  29
ATOM     29  O   UNK     1      -2.294  11.535  16.083  0.00  0.00    +0.000 OA
ATOM     30  H   UNK     1      -1.846  12.407  16.003  0.00  0.00    +0.000 HD
ENDBRANCH  27  29
ENDBRANCH  24  27
ENDBRANCH  21  22
ENDBRANCH  20  21
ENDBRANCH  19  20
ENDBRANCH   6  19
TORSDOF 14
ENDMDL
MODEL 7
REMARK VINA RESULT:      -7.2      2.719      4.699
REMARK  Name = 
REMARK  16 active torsions:
REMARK  status: ('A' for Active; 'I' for Inactive)
REMARK    1  A    between atoms: C_1  and  C_2
REMARK    2  A    between atoms: C_2  and  C_3
REMARK    3  A    between atoms: C_3  and  C_4
REMARK    4  A    between atoms: C_4  and  C_5
REMARK    5  A    between atoms: C_5  and  C_6
REMARK    6  A    between atoms: C_6  and  C_7
REMARK    7  A    between atoms: C_6  and  O_8
REMARK    8  A    between atoms: C_6  and  C_9
REMARK    9  A    between atoms: C_9  and  C_10
REMARK   10  A    between atoms: C_11  and  C_12
REMARK   11  A    between atoms: C_17  and  C_18
REMARK   12  A    between atoms: C_18  and  C_19
REMARK   13  A    between atoms: C_19  and  S_20
REMARK   14  A    between atoms: S_20  and  C_21
REMARK   15  A    between atoms: C_23  and  C_24
REMARK   16  A    between atoms: C_24  and  O_26
REMARK                            x       y       z     vdW  Elec       q    Type
REMARK                         _______ _______ _______ _____ _____    ______ ____
ROOT
ATOM      1  C   UNK     1       2.633   3.793  17.556  0.00  0.00    +0.000 C 
ATOM      2  C   UNK     1       2.146   2.377  17.901  0.00  0.00    +0.000 C 
ATOM      3  C   UNK     1       1.209   2.479  19.089  0.00  0.00    +0.000 C 
ATOM      4  C   UNK     1       1.442   3.853  19.632  0.00  0.00    +0.000 C 
ATOM      5  O   UNK     1       1.012   4.215  20.723  0.00  0.00    +0.000 OA
ATOM      6  C   UNK     1       2.256   4.738  18.726  0.00  0.00    +0.000 C 
ENDROOT
BRANCH   1   8
ATOM      7  C   UNK     1       4.975   4.618  17.811  0.00  0.00    +0.000 C 
ATOM      8  C   UNK     1       4.109   3.759  17.257  0.00  0.00    +0.000 C 
BRANCH   7   9
ATOM      9  C   UNK     1       6.435   4.668  17.541  0.00  0.00    +0.000 C 
BRANCH   9  10
ATOM     10  C   UNK     1       6.862   6.045  16.977  0.00  0.00    +0.000 C 
ATOM     11  C   UNK     1       5.646   6.889  16.560  0.00  0.00    +0.000 C 
BRANCH  10  12
ATOM     12  O   UNK     1       7.671   5.820  15.810  0.00  0.00    +0.000 OA
ATOM     13  H   UNK     1       7.997   4.904  15.831  0.00  0.00    +0.000 HD
ENDBRANCH  10  12
BRANCH  10  14
ATOM     14  C   UNK     1       7.710   6.793  18.024  0.00  0.00    +0.000 C 
BRANCH  14  15
ATOM     15  C   UNK     1       7.852   8.287  17.709  0.00  0.00    +0.000 C 
BRANCH  15  16
ATOM     16  C   UNK     1       8.808   8.990  18.661  0.00  0.00    +0.000 C 
BRANCH  16  18
ATOM     17  C   UNK     1       9.615  11.272  19.341  0.00  0.00    +0.000 C 
ATOM     18  C   UNK     1       8.974  10.450  18.240  0.00  0.00    +0.000 C 
ENDBRANCH  16  18
ENDBRANCH  15  16
ENDBRANCH  14  15
ENDBRANCH  10  14
ENDBRANCH   9  10
ENDBRANCH   7   9
ENDBRANCH   1   8
BRANCH   6  19
ATOM     19  C   UNK     1       1.560   6.009  18.236  0.00  0.00    +0.000 C 
BRANCH  19  20
ATOM     20  C   UNK     1       2.004   7.255  19.010  0.00  0.00    +0.000 C 
BRANCH  20  21
ATOM     21  S   UNK     1       2.208   8.655  17.872  0.00  0.00    +0.000 S 
BRANCH  21  22
ATOM     22  C   UNK     1       0.847   9.651  18.347  0.00  0.00    +0.000 A 
ATOM     23  N   UNK     1      -0.300   9.622  17.706  0.00  0.00    +0.000 NA
ATOM     24  C   UNK     1      -1.207  10.483  18.337  0.00  0.00    +0.000 A 
ATOM     25  C   UNK     1      -0.706  11.139  19.447  0.00  0.00    +0.000 A 
ATOM     26  S   UNK     1       0.924  10.695  19.706  0.00  0.00    +0.000 S 
BRANCH  24  27
ATOM     27  C   UNK     1      -2.571  10.616  17.837  0.00  0.00    +0.000 C 
ATOM     28  O   UNK     1      -3.088  11.681  17.519  0.00  0.00    +0.000 OA
BRANCH  27  29
ATOM     29  O   UNK     1      -3.219   9.426  17.769  0.00  0.00    +0.000 OA
ATOM     30  H   UNK     1      -2.559   8.716  17.935  0.00  0.00    +0.000 HD
ENDBRANCH  27  29
ENDBRANCH  24  27
ENDBRANCH  21  22
ENDBRANCH  20  21
ENDBRANCH  19  20
ENDBRANCH   6  19
TORSDOF 14
ENDMDL
MODEL 8
REMARK VINA RESULT:      -7.2      2.082      2.602
REMARK  Name = 
REMARK  16 active torsions:
REMARK  status: ('A' for Active; 'I' for Inactive)
REMARK    1  A    between atoms: C_1  and  C_2
REMARK    2  A    between atoms: C_2  and  C_3
REMARK    3  A    between atoms: C_3  and  C_4
REMARK    4  A    between atoms: C_4  and  C_5
REMARK    5  A    between atoms: C_5  and  C_6
REMARK    6  A    between atoms: C_6  and  C_7
REMARK    7  A    between atoms: C_6  and  O_8
REMARK    8  A    between atoms: C_6  and  C_9
REMARK    9  A    between atoms: C_9  and  C_10
REMARK   10  A    between atoms: C_11  and  C_12
REMARK   11  A    between atoms: C_17  and  C_18
REMARK   12  A    between atoms: C_18  and  C_19
REMARK   13  A    between atoms: C_19  and  S_20
REMARK   14  A    between atoms: S_20  and  C_21
REMARK   15  A    between atoms: C_23  and  C_24
REMARK   16  A    between atoms: C_24  and  O_26
REMARK                            x       y       z     vdW  Elec       q    Type
REMARK                         _______ _______ _______ _____ _____    ______ ____
ROOT
ATOM      1  C   UNK     1       2.077   5.918  18.520  0.00  0.00    +0.000 C 
ATOM      2  C   UNK     1       1.914   4.533  17.876  0.00  0.00    +0.000 C 
ATOM      3  C   UNK     1       1.667   3.526  18.982  0.00  0.00    +0.000 C 
ATOM      4  C   UNK     1       2.041   4.249  20.236  0.00  0.00    +0.000 C 
ATOM      5  O   UNK     1       2.172   3.679  21.315  0.00  0.00    +0.000 OA
ATOM      6  C   UNK     1       2.251   5.728  20.049  0.00  0.00    +0.000 C 
ENDROOT
BRANCH   1   8
ATOM      7  C   UNK     1       4.485   6.210  17.934  0.00  0.00    +0.000 C 
ATOM      8  C   UNK     1       3.221   6.647  17.866  0.00  0.00    +0.000 C 
BRANCH   7   9
ATOM      9  C   UNK     1       5.668   6.890  17.345  0.00  0.00    +0.000 C 
BRANCH   9  10
ATOM     10  C   UNK     1       6.549   5.904  16.539  0.00  0.00    +0.000 C 
ATOM     11  C   UNK     1       6.892   4.650  17.360  0.00  0.00    +0.000 C 
BRANCH  10  12
ATOM     12  O   UNK     1       7.778   6.571  16.208  0.00  0.00    +0.000 OA
ATOM     13  H   UNK     1       7.847   7.379  16.745  0.00  0.00    +0.000 HD
ENDBRANCH  10  12
BRANCH  10  14
ATOM     14  C   UNK     1       5.831   5.520  15.231  0.00  0.00    +0.000 C 
BRANCH  14  15
ATOM     15  C   UNK     1       6.649   4.545  14.375  0.00  0.00    +0.000 C 
BRANCH  15  16
ATOM     16  C   UNK     1       5.769   3.567  13.610  0.00  0.00    +0.000 C 
BRANCH  16  18
ATOM     17  C   UNK     1       5.724   2.192  11.507  0.00  0.00    +0.000 C 
ATOM     18  C   UNK     1       6.267   3.441  12.172  0.00  0.00    +0.000 C 
ENDBRANCH  16  18
ENDBRANCH  15  16
ENDBRANCH  14  15
ENDBRANCH  10  14
ENDBRANCH   9  10
ENDBRANCH   7   9
ENDBRANCH   1   8
BRANCH   6  19
ATOM     19  C   UNK     1       1.321   6.641  20.851  0.00  0.00    +0.000 C 
BRANCH  19  20
ATOM     20  C   UNK     1       1.540   8.123  20.535  0.00  0.00    +0.000 C 
BRANCH  20  21
ATOM     21  S   UNK     1       1.254   9.125  22.021  0.00  0.00    +0.000 S 
BRANCH  21  22
ATOM     22  C   UNK     1       0.102  10.291  21.402  0.00  0.00    +0.000 A 
ATOM     23  N   UNK     1      -0.086  10.473  20.113  0.00  0.00    +0.000 NA
ATOM     24  C   UNK     1      -1.095  11.426  19.922  0.00  0.00    +0.000 A 
ATOM     25  C   UNK     1      -1.638  11.937  21.086  0.00  0.00    +0.000 A 
ATOM     26  S   UNK     1      -0.877  11.235  22.446  0.00  0.00    +0.000 S 
BRANCH  24  27
ATOM     27  C   UNK     1      -1.518  11.794  18.575  0.00  0.00    +0.000 C 
ATOM     28  O   UNK     1      -2.680  11.769  18.186  0.00  0.00    +0.000 OA
BRANCH  27  29
ATOM     29  O   UNK     1      -0.478  12.162  17.785  0.00  0.00    +0.000 OA
ATOM     30  H   UNK     1       0.317  12.244  18.357  0.00  0.00    +0.000 HD
ENDBRANCH  27  29
ENDBRANCH  24  27
ENDBRANCH  21  22
ENDBRANCH  20  21
ENDBRANCH  19  20
ENDBRANCH   6  19
TORSDOF 14
ENDMDL
MODEL 9
REMARK VINA RESULT:      -7.1      3.150      4.723
REMARK  Name = 
REMARK  16 active torsions:
REMARK  status: ('A' for Active; 'I' for Inactive)
REMARK    1  A    between atoms: C_1  and  C_2
REMARK    2  A    between atoms: C_2  and  C_3
REMARK    3  A    between atoms: C_3  and  C_4
REMARK    4  A    between atoms: C_4  and  C_5
REMARK    5  A    between atoms: C_5  and  C_6
REMARK    6  A    between atoms: C_6  and  C_7
REMARK    7  A    between atoms: C_6  and  O_8
REMARK    8  A    between atoms: C_6  and  C_9
REMARK    9  A    between atoms: C_9  and  C_10
REMARK   10  A    between atoms: C_11  and  C_12
REMARK   11  A    between atoms: C_17  and  C_18
REMARK   12  A    between atoms: C_18  and  C_19
REMARK   13  A    between atoms: C_19  and  S_20
REMARK   14  A    between atoms: S_20  and  C_21
REMARK   15  A    between atoms: C_23  and  C_24
REMARK   16  A    between atoms: C_24  and  O_26
REMARK                            x       y       z     vdW  Elec       q    Type
REMARK                         _______ _______ _______ _____ _____    ______ ____
ROOT
ATOM      1  C   UNK     1       2.309   4.300  18.090  0.00  0.00    +0.000 C 
ATOM      2  C   UNK     1       1.096   3.398  18.364  0.00  0.00    +0.000 C 
ATOM      3  C   UNK     1       0.858   3.373  19.861  0.00  0.00    +0.000 C 
ATOM      4  C   UNK     1       2.110   3.942  20.448  0.00  0.00    +0.000 C 
ATOM      5  O   UNK     1       2.365   3.881  21.647  0.00  0.00    +0.000 OA
ATOM      6  C   UNK     1       3.024   4.580  19.437  0.00  0.00    +0.000 C 
ENDROOT
BRANCH   1   8
ATOM      7  C   UNK     1       4.507   3.908  16.975  0.00  0.00    +0.000 C 
ATOM      8  C   UNK     1       3.195   3.654  17.057  0.00  0.00    +0.000 C 
BRANCH   7   9
ATOM      9  C   UNK     1       5.437   3.337  15.966  0.00  0.00    +0.000 C 
BRANCH   9  10
ATOM     10  C   UNK     1       6.055   4.440  15.074  0.00  0.00    +0.000 C 
ATOM     11  C   UNK     1       5.712   4.228  13.590  0.00  0.00    +0.000 C 
BRANCH  10  12
ATOM     12  O   UNK     1       7.485   4.380  15.214  0.00  0.00    +0.000 OA
ATOM     13  H   UNK     1       7.752   4.983  15.928  0.00  0.00    +0.000 HD
ENDBRANCH  10  12
BRANCH  10  14
ATOM     14  C   UNK     1       5.573   5.823  15.552  0.00  0.00    +0.000 C 
BRANCH  14  15
ATOM     15  C   UNK     1       6.703   6.662  16.163  0.00  0.00    +0.000 C 
BRANCH  15  16
ATOM     16  C   UNK     1       6.672   6.651  17.685  0.00  0.00    +0.000 C 
BRANCH  16  18
ATOM     17  C   UNK     1       7.933   5.760  19.668  0.00  0.00    +0.000 C 
ATOM     18  C   UNK     1       7.580   5.541  18.210  0.00  0.00    +0.000 C 
ENDBRANCH  16  18
ENDBRANCH  15  16
ENDBRANCH  14  15
ENDBRANCH  10  14
ENDBRANCH   9  10
ENDBRANCH   7   9
ENDBRANCH   1   8
BRANCH   6  19
ATOM     19  C   UNK     1       3.305   6.070  19.640  0.00  0.00    +0.000 C 
BRANCH  19  20
ATOM     20  C   UNK     1       2.025   6.885  19.848  0.00  0.00    +0.000 C 
BRANCH  20  21
ATOM     21  S   UNK     1       2.054   8.368  18.802  0.00  0.00    +0.000 S 
BRANCH  21  22
ATOM     22  C   UNK     1       0.910   9.383  19.657  0.00  0.00    +0.000 A 
ATOM     23  N   UNK     1       0.764   9.327  20.963  0.00  0.00    +0.000 NA
ATOM     24  C   UNK     1      -0.180  10.281  21.365  0.00  0.00    +0.000 A 
ATOM     25  C   UNK     1      -0.720  11.031  20.337  0.00  0.00    +0.000 A 
ATOM     26  S   UNK     1      -0.058  10.539  18.840  0.00  0.00    +0.000 S 
BRANCH  24  27
ATOM     27  C   UNK     1      -0.509  10.445  22.777  0.00  0.00    +0.000 C 
ATOM     28  O   UNK     1      -0.776  11.519  23.303  0.00  0.00    +0.000 OA
BRANCH  27  29
ATOM     29  O   UNK     1      -0.479   9.272  23.458  0.00  0.00    +0.000 OA
ATOM     30  H   UNK     1      -0.056   8.600  22.877  0.00  0.00    +0.000 HD
ENDBRANCH  27  29
ENDBRANCH  24  27
ENDBRANCH  21  22
ENDBRANCH  20  21
ENDBRANCH  19  20
ENDBRANCH   6  19
TORSDOF 14
ENDMDL
