MODEL 1
REMARK VINA RESULT:      -7.9      0.000      0.000
REMARK  Name = 
REMARK  2 active torsions:
REMARK  status: ('A' for Active; 'I' for Inactive)
REMARK    1  A    between atoms: C_9  and  C_10
REMARK    2  A    between atoms: C_10  and  N_11
REMARK                            x       y       z     vdW  Elec       q    Type
REMARK                         _______ _______ _______ _____ _____    ______ ____
ROOT
ATOM      1  C   UNL     1       5.549   4.450  15.408  0.00  0.00    +0.000 A 
ATOM      2  C   UNL     1       4.850   3.428  16.054  0.00  0.00    +0.000 A 
ATOM      3  C   UNL     1       3.965   3.719  17.104  0.00  0.00    +0.000 A 
ATOM      4  C   UNL     1       3.261   2.706  17.765  0.00  0.00    +0.000 A 
ATOM      5  C   UNL     1       2.422   3.011  18.839  0.00  0.00    +0.000 A 
ATOM      6  C   UNL     1       2.266   4.334  19.284  0.00  0.00    +0.000 A 
ATOM      7  C   UNL     1       1.456   4.640  20.386  0.00  0.00    +0.000 A 
ATOM      8  C   UNL     1       1.315   5.960  20.826  0.00  0.00    +0.000 A 
ATOM      9  C   UNL     1       1.944   7.026  20.154  0.00  0.00    +0.000 A 
ATOM     10  C   UNL     1       2.745   6.734  19.011  0.00  0.00    +0.000 A 
ATOM     11  C   UNL     1       3.355   7.728  18.223  0.00  0.00    +0.000 A 
ATOM     12  C   UNL     1       4.203   7.421  17.162  0.00  0.00    +0.000 A 
ATOM     13  C   UNL     1       4.450   6.092  16.813  0.00  0.00    +0.000 A 
ATOM     14  C   UNL     1       5.342   5.775  15.780  0.00  0.00    +0.000 A 
ATOM     15  C   UNL     1       3.778   5.063  17.508  0.00  0.00    +0.000 A 
ATOM     16  C   UNL     1       2.931   5.378  18.602  0.00  0.00    +0.000 A 
ENDROOT
BRANCH   9  17
ATOM     17  C   UNL     1       1.647   8.447  20.612  0.00  0.00    +0.000 C 
BRANCH  17  18
ATOM     18  N   UNL     1       0.269   8.856  20.839  0.00  0.00    +0.000 NA
ATOM     19  C   UNL     1      -0.373   9.892  20.040  0.00  0.00    +0.000 C 
ATOM     20  C   UNL     1      -0.765  11.184  20.790  0.00  0.00    +0.000 C 
ATOM     21  O   UNL     1      -1.254  10.964  22.124  0.00  0.00    +0.000 OA
ATOM     22  C   UNL     1      -0.363  10.121  22.863  0.00  0.00    +0.000 C 
ATOM     23  C   UNL     1      -0.271   8.756  22.186  0.00  0.00    +0.000 C 
ENDBRANCH  17  18
ENDBRANCH   9  17
TORSDOF 2
ENDMDL
MODEL 2
REMARK VINA RESULT:      -7.9      3.627      6.624
REMARK  Name = 
REMARK  2 active torsions:
REMARK  status: ('A' for Active; 'I' for Inactive)
REMARK    1  A    between atoms: C_9  and  C_10
REMARK    2  A    between atoms: C_10  and  N_11
REMARK                            x       y       z     vdW  Elec       q    Type
REMARK                         _______ _______ _______ _____ _____    ______ ____
ROOT
ATOM      1  C   UNL     1       1.970   2.226  21.034  0.00  0.00    +0.000 A 
ATOM      2  C   UNL     1       1.468   3.471  21.419  0.00  0.00    +0.000 A 
ATOM      3  C   UNL     1       1.756   4.622  20.669  0.00  0.00    +0.000 A 
ATOM      4  C   UNL     1       1.265   5.878  21.047  0.00  0.00    +0.000 A 
ATOM      5  C   UNL     1       1.601   7.019  20.314  0.00  0.00    +0.000 A 
ATOM      6  C   UNL     1       2.439   6.937  19.189  0.00  0.00    +0.000 A 
ATOM      7  C   UNL     1       2.810   8.084  18.475  0.00  0.00    +0.000 A 
ATOM      8  C   UNL     1       3.651   7.993  17.361  0.00  0.00    +0.000 A 
ATOM      9  C   UNL     1       4.116   6.747  16.897  0.00  0.00    +0.000 A 
ATOM     10  C   UNL     1       3.720   5.568  17.594  0.00  0.00    +0.000 A 
ATOM     11  C   UNL     1       4.064   4.270  17.170  0.00  0.00    +0.000 A 
ATOM     12  C   UNL     1       3.741   3.135  17.910  0.00  0.00    +0.000 A 
ATOM     13  C   UNL     1       3.015   3.246  19.098  0.00  0.00    +0.000 A 
ATOM     14  C   UNL     1       2.731   2.115  19.874  0.00  0.00    +0.000 A 
ATOM     15  C   UNL     1       2.558   4.517  19.508  0.00  0.00    +0.000 A 
ATOM     16  C   UNL     1       2.907   5.674  18.763  0.00  0.00    +0.000 A 
ENDROOT
BRANCH   9  17
ATOM     17  C   UNL     1       4.926   6.711  15.608  0.00  0.00    +0.000 C 
BRANCH  17  18
ATOM     18  N   UNL     1       6.315   6.283  15.643  0.00  0.00    +0.000 NA
ATOM     19  C   UNL     1       6.768   5.068  14.977  0.00  0.00    +0.000 C 
ATOM     20  C   UNL     1       7.288   3.942  15.896  0.00  0.00    +0.000 C 
ATOM     21  O   UNL     1       8.041   4.408  17.029  0.00  0.00    +0.000 OA
ATOM     22  C   UNL     1       7.330   5.435  17.728  0.00  0.00    +0.000 C 
ATOM     23  C   UNL     1       7.119   6.632  16.804  0.00  0.00    +0.000 C 
ENDBRANCH  17  18
ENDBRANCH   9  17
TORSDOF 2
ENDMDL
MODEL 3
REMARK VINA RESULT:      -7.9      1.374      3.333
REMARK  Name = 
REMARK  2 active torsions:
REMARK  status: ('A' for Active; 'I' for Inactive)
REMARK    1  A    between atoms: C_9  and  C_10
REMARK    2  A    between atoms: C_10  and  N_11
REMARK                            x       y       z     vdW  Elec       q    Type
REMARK                         _______ _______ _______ _____ _____    ______ ____
ROOT
ATOM      1  C   UNL     1       2.864   1.390  18.884  0.00  0.00    +0.000 A 
ATOM      2  C   UNL     1       3.688   1.986  17.928  0.00  0.00    +0.000 A 
ATOM      3  C   UNL     1       3.742   3.382  17.799  0.00  0.00    +0.000 A 
ATOM      4  C   UNL     1       4.560   3.994  16.841  0.00  0.00    +0.000 A 
ATOM      5  C   UNL     1       4.564   5.384  16.697  0.00  0.00    +0.000 A 
ATOM      6  C   UNL     1       3.749   6.198  17.501  0.00  0.00    +0.000 A 
ATOM      7  C   UNL     1       3.720   7.589  17.333  0.00  0.00    +0.000 A 
ATOM      8  C   UNL     1       2.899   8.390  18.133  0.00  0.00    +0.000 A 
ATOM      9  C   UNL     1       2.110   7.833  19.158  0.00  0.00    +0.000 A 
ATOM     10  C   UNL     1       2.154   6.423  19.363  0.00  0.00    +0.000 A 
ATOM     11  C   UNL     1       1.465   5.773  20.406  0.00  0.00    +0.000 A 
ATOM     12  C   UNL     1       1.451   4.388  20.539  0.00  0.00    +0.000 A 
ATOM     13  C   UNL     1       2.166   3.582  19.649  0.00  0.00    +0.000 A 
ATOM     14  C   UNL     1       2.114   2.186  19.745  0.00  0.00    +0.000 A 
ATOM     15  C   UNL     1       2.955   4.194  18.651  0.00  0.00    +0.000 A 
ATOM     16  C   UNL     1       2.951   5.605  18.505  0.00  0.00    +0.000 A 
ENDROOT
BRANCH   9  17
ATOM     17  C   UNL     1       1.337   8.776  20.070  0.00  0.00    +0.000 C 
BRANCH  17  18
ATOM     18  N   UNL     1       0.936  10.084  19.577  0.00  0.00    +0.000 NA
ATOM     19  C   UNL     1       0.865  11.252  20.447  0.00  0.00    +0.000 C 
ATOM     20  C   UNL     1      -0.541  11.851  20.668  0.00  0.00    +0.000 C 
ATOM     21  O   UNL     1      -1.379  11.831  19.500  0.00  0.00    +0.000 OA
ATOM     22  C   UNL     1      -1.398  10.529  18.907  0.00  0.00    +0.000 C 
ATOM     23  C   UNL     1       0.011  10.150  18.456  0.00  0.00    +0.000 C 
ENDBRANCH  17  18
ENDBRANCH   9  17
TORSDOF 2
ENDMDL
MODEL 4
REMARK VINA RESULT:      -7.8      2.937      7.592
REMARK  Name = 
REMARK  2 active torsions:
REMARK  status: ('A' for Active; 'I' for Inactive)
REMARK    1  A    between atoms: C_9  and  C_10
REMARK    2  A    between atoms: C_10  and  N_11
REMARK                            x       y       z     vdW  Elec       q    Type
REMARK                         _______ _______ _______ _____ _____    ______ ____
ROOT
ATOM      1  C   UNL     1      -1.206  12.014  22.586  0.00  0.00    +0.000 A 
ATOM      2  C   UNL     1      -0.893  12.502  21.316  0.00  0.00    +0.000 A 
ATOM      3  C   UNL     1      -0.185  11.709  20.399  0.00  0.00    +0.000 A 
ATOM      4  C   UNL     1       0.141  12.186  19.124  0.00  0.00    +0.000 A 
ATOM      5  C   UNL     1       0.887  11.399  18.243  0.00  0.00    +0.000 A 
ATOM      6  C   UNL     1       1.329  10.118  18.612  0.00  0.00    +0.000 A 
ATOM      7  C   UNL     1       2.110   9.341  17.746  0.00  0.00    +0.000 A 
ATOM      8  C   UNL     1       2.553   8.071  18.127  0.00  0.00    +0.000 A 
ATOM      9  C   UNL     1       2.194   7.514  19.370  0.00  0.00    +0.000 A 
ATOM     10  C   UNL     1       1.372   8.279  20.248  0.00  0.00    +0.000 A 
ATOM     11  C   UNL     1       0.893   7.789  21.479  0.00  0.00    +0.000 A 
ATOM     12  C   UNL     1       0.163   8.580  22.362  0.00  0.00    +0.000 A 
ATOM     13  C   UNL     1      -0.160   9.898  22.033  0.00  0.00    +0.000 A 
ATOM     14  C   UNL     1      -0.849  10.716  22.937  0.00  0.00    +0.000 A 
ATOM     15  C   UNL     1       0.209  10.400  20.765  0.00  0.00    +0.000 A 
ATOM     16  C   UNL     1       0.971   9.599  19.876  0.00  0.00    +0.000 A 
ENDROOT
BRANCH   9  17
ATOM     17  C   UNL     1       2.607   6.079  19.667  0.00  0.00    +0.000 C 
BRANCH  17  18
ATOM     18  N   UNL     1       1.725   4.985  19.294  0.00  0.00    +0.000 NA
ATOM     19  C   UNL     1       1.149   4.081  20.282  0.00  0.00    +0.000 C 
ATOM     20  C   UNL     1       1.605   2.608  20.205  0.00  0.00    +0.000 C 
ATOM     21  O   UNL     1       1.778   2.116  18.865  0.00  0.00    +0.000 OA
ATOM     22  C   UNL     1       2.589   3.008  18.094  0.00  0.00    +0.000 C 
ATOM     23  C   UNL     1       1.900   4.366  17.988  0.00  0.00    +0.000 C 
ENDBRANCH  17  18
ENDBRANCH   9  17
TORSDOF 2
ENDMDL
MODEL 5
REMARK VINA RESULT:      -7.8      2.893      7.896
REMARK  Name = 
REMARK  2 active torsions:
REMARK  status: ('A' for Active; 'I' for Inactive)
REMARK    1  A    between atoms: C_9  and  C_10
REMARK    2  A    between atoms: C_10  and  N_11
REMARK                            x       y       z     vdW  Elec       q    Type
REMARK                         _______ _______ _______ _____ _____    ______ ____
ROOT
ATOM      1  C   UNL     1      -1.418  12.363  22.746  0.00  0.00    +0.000 A 
ATOM      2  C   UNL     1      -1.071  12.894  21.503  0.00  0.00    +0.000 A 
ATOM      3  C   UNL     1      -0.359  12.125  20.569  0.00  0.00    +0.000 A 
ATOM      4  C   UNL     1       0.002  12.646  19.321  0.00  0.00    +0.000 A 
ATOM      5  C   UNL     1       0.751  11.881  18.424  0.00  0.00    +0.000 A 
ATOM      6  C   UNL     1       1.164  10.578  18.751  0.00  0.00    +0.000 A 
ATOM      7  C   UNL     1       1.949   9.822  17.871  0.00  0.00    +0.000 A 
ATOM      8  C   UNL     1       2.362   8.530  18.209  0.00  0.00    +0.000 A 
ATOM      9  C   UNL     1       1.968   7.932  19.422  0.00  0.00    +0.000 A 
ATOM     10  C   UNL     1       1.142   8.676  20.314  0.00  0.00    +0.000 A 
ATOM     11  C   UNL     1       0.630   8.147  21.514  0.00  0.00    +0.000 A 
ATOM     12  C   UNL     1      -0.104   8.916  22.413  0.00  0.00    +0.000 A 
ATOM     13  C   UNL     1      -0.397  10.251  22.130  0.00  0.00    +0.000 A 
ATOM     14  C   UNL     1      -1.091  11.045  23.053  0.00  0.00    +0.000 A 
ATOM     15  C   UNL     1       0.005  10.796  20.891  0.00  0.00    +0.000 A 
ATOM     16  C   UNL     1       0.772  10.016  19.986  0.00  0.00    +0.000 A 
ENDROOT
BRANCH   9  17
ATOM     17  C   UNL     1       2.351   6.478  19.670  0.00  0.00    +0.000 C 
BRANCH  17  18
ATOM     18  N   UNL     1       2.911   5.688  18.586  0.00  0.00    +0.000 NA
ATOM     19  C   UNL     1       2.129   4.684  17.874  0.00  0.00    +0.000 C 
ATOM     20  C   UNL     1       2.591   3.220  18.039  0.00  0.00    +0.000 C 
ATOM     21  O   UNL     1       4.018   3.055  18.080  0.00  0.00    +0.000 OA
ATOM     22  C   UNL     1       4.610   3.951  19.026  0.00  0.00    +0.000 C 
ATOM     23  C   UNL     1       4.336   5.393  18.606  0.00  0.00    +0.000 C 
ENDBRANCH  17  18
ENDBRANCH   9  17
TORSDOF 2
ENDMDL
MODEL 6
REMARK VINA RESULT:      -7.7      3.258      7.083
REMARK  Name = 
REMARK  2 active torsions:
REMARK  status: ('A' for Active; 'I' for Inactive)
REMARK    1  A    between atoms: C_9  and  C_10
REMARK    2  A    between atoms: C_10  and  N_11
REMARK                            x       y       z     vdW  Elec       q    Type
REMARK                         _______ _______ _______ _____ _____    ______ ____
ROOT
ATOM      1  C   UNL     1      -0.259  12.024  19.719  0.00  0.00    +0.000 A 
ATOM      2  C   UNL     1      -0.494  11.142  20.775  0.00  0.00    +0.000 A 
ATOM      3  C   UNL     1       0.109   9.875  20.797  0.00  0.00    +0.000 A 
ATOM      4  C   UNL     1      -0.121   8.977  21.846  0.00  0.00    +0.000 A 
ATOM      5  C   UNL     1       0.451   7.702  21.826  0.00  0.00    +0.000 A 
ATOM      6  C   UNL     1       1.263   7.289  20.757  0.00  0.00    +0.000 A 
ATOM      7  C   UNL     1       1.806   5.998  20.714  0.00  0.00    +0.000 A 
ATOM      8  C   UNL     1       2.607   5.594  19.641  0.00  0.00    +0.000 A 
ATOM      9  C   UNL     1       2.928   6.480  18.595  0.00  0.00    +0.000 A 
ATOM     10  C   UNL     1       2.409   7.808  18.641  0.00  0.00    +0.000 A 
ATOM     11  C   UNL     1       2.729   8.794  17.689  0.00  0.00    +0.000 A 
ATOM     12  C   UNL     1       2.147  10.059  17.702  0.00  0.00    +0.000 A 
ATOM     13  C   UNL     1       1.239  10.411  18.703  0.00  0.00    +0.000 A 
ATOM     14  C   UNL     1       0.610  11.663  18.694  0.00  0.00    +0.000 A 
ATOM     15  C   UNL     1       0.968   9.491  19.739  0.00  0.00    +0.000 A 
ATOM     16  C   UNL     1       1.546   8.195  19.711  0.00  0.00    +0.000 A 
ENDROOT
BRANCH   9  17
ATOM     17  C   UNL     1       3.904   6.012  17.524  0.00  0.00    +0.000 C 
BRANCH  17  18
ATOM     18  N   UNL     1       4.976   5.096  17.879  0.00  0.00    +0.000 NA
ATOM     19  C   UNL     1       6.043   5.471  18.799  0.00  0.00    +0.000 C 
ATOM     20  C   UNL     1       7.463   5.549  18.199  0.00  0.00    +0.000 C 
ATOM     21  O   UNL     1       7.745   4.533  17.222  0.00  0.00    +0.000 OA
ATOM     22  C   UNL     1       6.709   4.470  16.236  0.00  0.00    +0.000 C 
ATOM     23  C   UNL     1       5.388   4.098  16.904  0.00  0.00    +0.000 C 
ENDBRANCH  17  18
ENDBRANCH   9  17
TORSDOF 2
ENDMDL
MODEL 7
REMARK VINA RESULT:      -7.7      4.513      8.107
REMARK  Name = 
REMARK  2 active torsions:
REMARK  status: ('A' for Active; 'I' for Inactive)
REMARK    1  A    between atoms: C_9  and  C_10
REMARK    2  A    between atoms: C_10  and  N_11
REMARK                            x       y       z     vdW  Elec       q    Type
REMARK                         _______ _______ _______ _____ _____    ______ ____
ROOT
ATOM      1  C   UNL     1       1.072   3.118  20.688  0.00  0.00    +0.000 A 
ATOM      2  C   UNL     1       1.172   4.507  20.596  0.00  0.00    +0.000 A 
ATOM      3  C   UNL     1       2.003   5.103  19.636  0.00  0.00    +0.000 A 
ATOM      4  C   UNL     1       2.118   6.495  19.535  0.00  0.00    +0.000 A 
ATOM      5  C   UNL     1       2.987   7.069  18.604  0.00  0.00    +0.000 A 
ATOM      6  C   UNL     1       3.767   6.269  17.752  0.00  0.00    +0.000 A 
ATOM      7  C   UNL     1       4.669   6.840  16.844  0.00  0.00    +0.000 A 
ATOM      8  C   UNL     1       5.447   6.034  16.006  0.00  0.00    +0.000 A 
ATOM      9  C   UNL     1       5.319   4.632  16.017  0.00  0.00    +0.000 A 
ATOM     10  C   UNL     1       4.382   4.038  16.912  0.00  0.00    +0.000 A 
ATOM     11  C   UNL     1       4.121   2.655  16.950  0.00  0.00    +0.000 A 
ATOM     12  C   UNL     1       3.266   2.084  17.888  0.00  0.00    +0.000 A 
ATOM     13  C   UNL     1       2.595   2.884  18.815  0.00  0.00    +0.000 A 
ATOM     14  C   UNL     1       1.773   2.312  19.795  0.00  0.00    +0.000 A 
ATOM     15  C   UNL     1       2.744   4.286  18.748  0.00  0.00    +0.000 A 
ATOM     16  C   UNL     1       3.632   4.864  17.804  0.00  0.00    +0.000 A 
ENDROOT
BRANCH   9  17
ATOM     17  C   UNL     1       6.107   3.826  14.992  0.00  0.00    +0.000 C 
BRANCH  17  18
ATOM     18  N   UNL     1       5.919   4.087  13.574  0.00  0.00    +0.000 NA
ATOM     19  C   UNL     1       4.791   3.541  12.828  0.00  0.00    +0.000 C 
ATOM     20  C   UNL     1       5.137   2.521  11.722  0.00  0.00    +0.000 C 
ATOM     21  O   UNL     1       6.338   2.828  10.994  0.00  0.00    +0.000 OA
ATOM     22  C   UNL     1       7.424   3.092  11.888  0.00  0.00    +0.000 C 
ATOM     23  C   UNL     1       7.095   4.311  12.747  0.00  0.00    +0.000 C 
ENDBRANCH  17  18
ENDBRANCH   9  17
TORSDOF 2
ENDMDL
MODEL 8
REMARK VINA RESULT:      -7.6      0.959      1.375
REMARK  Name = 
REMARK  2 active torsions:
REMARK  status: ('A' for Active; 'I' for Inactive)
REMARK    1  A    between atoms: C_9  and  C_10
REMARK    2  A    between atoms: C_10  and  N_11
REMARK                            x       y       z     vdW  Elec       q    Type
REMARK                         _______ _______ _______ _____ _____    ______ ____
ROOT
ATOM      1  C   UNL     1       5.974   4.825  15.827  0.00  0.00    +0.000 A 
ATOM      2  C   UNL     1       5.559   3.869  16.756  0.00  0.00    +0.000 A 
ATOM      3  C   UNL     1       4.609   4.191  17.738  0.00  0.00    +0.000 A 
ATOM      4  C   UNL     1       4.187   3.245  18.680  0.00  0.00    +0.000 A 
ATOM      5  C   UNL     1       3.276   3.598  19.678  0.00  0.00    +0.000 A 
ATOM      6  C   UNL     1       2.766   4.904  19.766  0.00  0.00    +0.000 A 
ATOM      7  C   UNL     1       1.884   5.273  20.790  0.00  0.00    +0.000 A 
ATOM      8  C   UNL     1       1.389   6.578  20.873  0.00  0.00    +0.000 A 
ATOM      9  C   UNL     1       1.725   7.550  19.911  0.00  0.00    +0.000 A 
ATOM     10  C   UNL     1       2.597   7.181  18.844  0.00  0.00    +0.000 A 
ATOM     11  C   UNL     1       2.936   8.051  17.790  0.00  0.00    +0.000 A 
ATOM     12  C   UNL     1       3.855   7.702  16.804  0.00  0.00    +0.000 A 
ATOM     13  C   UNL     1       4.452   6.439  16.805  0.00  0.00    +0.000 A 
ATOM     14  C   UNL     1       5.416   6.100  15.847  0.00  0.00    +0.000 A 
ATOM     15  C   UNL     1       4.064   5.497  17.782  0.00  0.00    +0.000 A 
ATOM     16  C   UNL     1       3.143   5.862  18.798  0.00  0.00    +0.000 A 
ENDROOT
BRANCH   9  17
ATOM     17  C   UNL     1       1.053   8.914  19.993  0.00  0.00    +0.000 C 
BRANCH  17  18
ATOM     18  N   UNL     1       1.181   9.706  21.206  0.00  0.00    +0.000 NA
ATOM     19  C   UNL     1       0.919   9.149  22.527  0.00  0.00    +0.000 C 
ATOM     20  C   UNL     1      -0.287   9.742  23.288  0.00  0.00    +0.000 C 
ATOM     21  O   UNL     1      -0.455  11.159  23.110  0.00  0.00    +0.000 OA
ATOM     22  C   UNL     1      -0.426  11.508  21.722  0.00  0.00    +0.000 C 
ATOM     23  C   UNL     1       0.931  11.137  21.129  0.00  0.00    +0.000 C 
ENDBRANCH  17  18
ENDBRANCH   9  17
TORSDOF 2
ENDMDL
MODEL 9
REMARK VINA RESULT:      -7.6      1.332      3.334
REMARK  Name = 
REMARK  2 active torsions:
REMARK  status: ('A' for Active; 'I' for Inactive)
REMARK    1  A    between atoms: C_9  and  C_10
REMARK    2  A    between atoms: C_10  and  N_11
REMARK                            x       y       z     vdW  Elec       q    Type
REMARK                         _______ _______ _______ _____ _____    ______ ____
ROOT
ATOM      1  C   UNL     1       3.931   2.236  20.085  0.00  0.00    +0.000 A 
ATOM      2  C   UNL     1       4.684   2.817  19.063  0.00  0.00    +0.000 A 
ATOM      3  C   UNL     1       4.433   4.135  18.649  0.00  0.00    +0.000 A 
ATOM      4  C   UNL     1       5.175   4.729  17.622  0.00  0.00    +0.000 A 
ATOM      5  C   UNL     1       4.879   6.026  17.193  0.00  0.00    +0.000 A 
ATOM      6  C   UNL     1       3.832   6.760  17.775  0.00  0.00    +0.000 A 
ATOM      7  C   UNL     1       3.507   8.045  17.321  0.00  0.00    +0.000 A 
ATOM      8  C   UNL     1       2.458   8.765  17.901  0.00  0.00    +0.000 A 
ATOM      9  C   UNL     1       1.725   8.242  18.985  0.00  0.00    +0.000 A 
ATOM     10  C   UNL     1       2.066   6.950  19.479  0.00  0.00    +0.000 A 
ATOM     11  C   UNL     1       1.450   6.366  20.603  0.00  0.00    +0.000 A 
ATOM     12  C   UNL     1       1.736   5.069  21.020  0.00  0.00    +0.000 A 
ATOM     13  C   UNL     1       2.691   4.303  20.348  0.00  0.00    +0.000 A 
ATOM     14  C   UNL     1       2.947   2.980  20.730  0.00  0.00    +0.000 A 
ATOM     15  C   UNL     1       3.410   4.883  19.280  0.00  0.00    +0.000 A 
ATOM     16  C   UNL     1       3.101   6.197  18.844  0.00  0.00    +0.000 A 
ENDROOT
BRANCH   9  17
ATOM     17  C   UNL     1       0.680   9.130  19.647  0.00  0.00    +0.000 C 
BRANCH  17  18
ATOM     18  N   UNL     1       0.993   9.797  20.901  0.00  0.00    +0.000 NA
ATOM     19  C   UNL     1       0.916   9.109  22.184  0.00  0.00    +0.000 C 
ATOM     20  C   UNL     1      -0.159   9.622  23.167  0.00  0.00    +0.000 C 
ATOM     21  O   UNL     1      -0.331  11.049  23.158  0.00  0.00    +0.000 OA
ATOM     22  C   UNL     1      -0.498  11.536  21.822  0.00  0.00    +0.000 C 
ATOM     23  C   UNL     1       0.754  11.228  21.005  0.00  0.00    +0.000 C 
ENDBRANCH  17  18
ENDBRANCH   9  17
TORSDOF 2
ENDMDL
