MODEL 1
REMARK VINA RESULT:      -8.6      0.000      0.000
REMARK  Name = 
REMARK  2 active torsions:
REMARK  status: ('A' for Active; 'I' for Inactive)
REMARK    1  A    between atoms: C_2  and  C_4
REMARK    2  A    between atoms: C_8  and  C_9
REMARK                            x       y       z     vdW  Elec       q    Type
REMARK                         _______ _______ _______ _____ _____    ______ ____
ROOT
ATOM      1  C   UNL     1       6.685   5.087  16.007  0.00  0.00    +0.000 A 
ATOM      2  C   UNL     1       7.375   6.133  16.619  0.00  0.00    +0.000 A 
ATOM      3  C   UNL     1       7.134   6.392  17.958  0.00  0.00    +0.000 A 
ATOM      4  C   UNL     1       6.216   5.606  18.658  0.00  0.00    +0.000 A 
ATOM      5  C   UNL     1       5.497   4.508  18.090  0.00  0.00    +0.000 A 
ATOM      6  C   UNL     1       5.751   4.270  16.734  0.00  0.00    +0.000 A 
ENDROOT
BRANCH   5   7
ATOM      7  C   UNL     1       4.640   3.695  19.029  0.00  0.00    +0.000 A 
ATOM      8  N   UNL     1       5.367   2.779  19.706  0.00  0.00    +0.000 NA
ATOM      9  N   UNL     1       4.537   2.182  20.538  0.00  0.00    +0.000 N 
ATOM     10  C   UNL     1       3.300   2.722  20.578  0.00  0.00    +0.000 A 
ATOM     11  C   UNL     1       2.256   2.426  21.469  0.00  0.00    +0.000 A 
ATOM     12  C   UNL     1       1.006   2.963  21.210  0.00  0.00    +0.000 A 
ATOM     13  C   UNL     1       0.822   3.736  20.072  0.00  0.00    +0.000 A 
ATOM     14  C   UNL     1       1.919   4.062  19.223  0.00  0.00    +0.000 A 
ATOM     15 CL   UNL     1       1.612   4.907  17.776  0.00  0.00    +0.000 Cl
ATOM     16  C   UNL     1       3.237   3.601  19.480  0.00  0.00    +0.000 A 
ATOM     17  H   UNL     1       4.878   1.384  21.060  0.00  0.00    +0.000 HD
ENDBRANCH   5   7
BRANCH   1  19
ATOM     18  N   UNL     1       6.331   3.670  14.043  0.00  0.00    +0.000 N 
ATOM     19  C   UNL     1       6.958   4.758  14.588  0.00  0.00    +0.000 C 
ATOM     20  O   UNL     1       7.739   5.430  13.907  0.00  0.00    +0.000 OA
ATOM     21  H   UNL     1       6.605   3.423  13.100  0.00  0.00    +0.000 HD
ATOM     22  H   UNL     1       5.848   2.975  14.590  0.00  0.00    +0.000 HD
ENDBRANCH   1  19
TORSDOF 2
ENDMDL
MODEL 2
REMARK VINA RESULT:      -8.5      1.150      1.165
REMARK  Name = 
REMARK  2 active torsions:
REMARK  status: ('A' for Active; 'I' for Inactive)
REMARK    1  A    between atoms: C_2  and  C_4
REMARK    2  A    between atoms: C_8  and  C_9
REMARK                            x       y       z     vdW  Elec       q    Type
REMARK                         _______ _______ _______ _____ _____    ______ ____
ROOT
ATOM      1  C   UNL     1       5.902   5.172  15.303  0.00  0.00    +0.000 A 
ATOM      2  C   UNL     1       5.545   6.518  15.370  0.00  0.00    +0.000 A 
ATOM      3  C   UNL     1       4.751   6.940  16.424  0.00  0.00    +0.000 A 
ATOM      4  C   UNL     1       4.333   6.018  17.385  0.00  0.00    +0.000 A 
ATOM      5  C   UNL     1       4.685   4.632  17.379  0.00  0.00    +0.000 A 
ATOM      6  C   UNL     1       5.481   4.226  16.302  0.00  0.00    +0.000 A 
ENDROOT
BRANCH   5   7
ATOM      7  C   UNL     1       4.244   3.811  18.567  0.00  0.00    +0.000 A 
ATOM      8  N   UNL     1       5.290   3.218  19.184  0.00  0.00    +0.000 NA
ATOM      9  N   UNL     1       4.799   2.592  20.235  0.00  0.00    +0.000 N 
ATOM     10  C   UNL     1       3.489   2.826  20.465  0.00  0.00    +0.000 A 
ATOM     11  C   UNL     1       2.727   2.450  21.581  0.00  0.00    +0.000 A 
ATOM     12  C   UNL     1       1.354   2.628  21.524  0.00  0.00    +0.000 A 
ATOM     13  C   UNL     1       0.784   3.133  20.365  0.00  0.00    +0.000 A 
ATOM     14  C   UNL     1       1.596   3.559  19.274  0.00  0.00    +0.000 A 
ATOM     15 CL   UNL     1       0.837   4.053  17.831  0.00  0.00    +0.000 Cl
ATOM     16  C   UNL     1       3.012   3.469  19.306  0.00  0.00    +0.000 A 
ATOM     17  H   UNL     1       5.421   1.996  20.767  0.00  0.00    +0.000 HD
ENDBRANCH   5   7
BRANCH   1  19
ATOM     18  N   UNL     1       6.469   3.531  13.576  0.00  0.00    +0.000 N 
ATOM     19  C   UNL     1       6.788   4.702  14.212  0.00  0.00    +0.000 C 
ATOM     20  O   UNL     1       7.799   5.330  13.883  0.00  0.00    +0.000 OA
ATOM     21  H   UNL     1       7.139   3.195  12.897  0.00  0.00    +0.000 HD
ATOM     22  H   UNL     1       5.783   2.879  13.924  0.00  0.00    +0.000 HD
ENDBRANCH   1  19
TORSDOF 2
ENDMDL
MODEL 3
REMARK VINA RESULT:      -8.2      2.069      2.658
REMARK  Name = 
REMARK  2 active torsions:
REMARK  status: ('A' for Active; 'I' for Inactive)
REMARK    1  A    between atoms: C_2  and  C_4
REMARK    2  A    between atoms: C_8  and  C_9
REMARK                            x       y       z     vdW  Elec       q    Type
REMARK                         _______ _______ _______ _____ _____    ______ ____
ROOT
ATOM      1  C   UNL     1       6.947   5.947  17.068  0.00  0.00    +0.000 A 
ATOM      2  C   UNL     1       7.246   5.560  15.762  0.00  0.00    +0.000 A 
ATOM      3  C   UNL     1       6.523   4.521  15.197  0.00  0.00    +0.000 A 
ATOM      4  C   UNL     1       5.521   3.895  15.940  0.00  0.00    +0.000 A 
ATOM      5  C   UNL     1       5.156   4.263  17.273  0.00  0.00    +0.000 A 
ATOM      6  C   UNL     1       5.904   5.309  17.826  0.00  0.00    +0.000 A 
ENDROOT
BRANCH   5   7
ATOM      7  C   UNL     1       3.966   3.556  17.874  0.00  0.00    +0.000 A 
ATOM      8  N   UNL     1       3.823   2.306  17.382  0.00  0.00    +0.000 NA
ATOM      9  N   UNL     1       2.805   1.765  18.022  0.00  0.00    +0.000 N 
ATOM     10  C   UNL     1       2.313   2.518  19.030  0.00  0.00    +0.000 A 
ATOM     11  C   UNL     1       1.358   2.157  19.992  0.00  0.00    +0.000 A 
ATOM     12  C   UNL     1       0.858   3.149  20.820  0.00  0.00    +0.000 A 
ATOM     13  C   UNL     1       1.288   4.457  20.646  0.00  0.00    +0.000 A 
ATOM     14  C   UNL     1       2.302   4.775  19.698  0.00  0.00    +0.000 A 
ATOM     15 CL   UNL     1       2.699   6.412  19.440  0.00  0.00    +0.000 Cl
ATOM     16  C   UNL     1       2.903   3.788  18.874  0.00  0.00    +0.000 A 
ATOM     17  H   UNL     1       2.475   0.860  17.712  0.00  0.00    +0.000 HD
ENDBRANCH   5   7
BRANCH   1  19
ATOM     18  N   UNL     1       8.250   6.899  18.908  0.00  0.00    +0.000 N 
ATOM     19  C   UNL     1       7.673   7.085  17.680  0.00  0.00    +0.000 C 
ATOM     20  O   UNL     1       7.752   8.181  17.117  0.00  0.00    +0.000 OA
ATOM     21  H   UNL     1       8.663   7.719  19.335  0.00  0.00    +0.000 HD
ATOM     22  H   UNL     1       8.055   6.107  19.500  0.00  0.00    +0.000 HD
ENDBRANCH   1  19
TORSDOF 2
ENDMDL
MODEL 4
REMARK VINA RESULT:      -8.2      1.750      2.354
REMARK  Name = 
REMARK  2 active torsions:
REMARK  status: ('A' for Active; 'I' for Inactive)
REMARK    1  A    between atoms: C_2  and  C_4
REMARK    2  A    between atoms: C_8  and  C_9
REMARK                            x       y       z     vdW  Elec       q    Type
REMARK                         _______ _______ _______ _____ _____    ______ ____
ROOT
ATOM      1  C   UNL     1       7.005   6.265  17.440  0.00  0.00    +0.000 A 
ATOM      2  C   UNL     1       6.918   5.891  16.099  0.00  0.00    +0.000 A 
ATOM      3  C   UNL     1       6.148   4.787  15.769  0.00  0.00    +0.000 A 
ATOM      4  C   UNL     1       5.481   4.085  16.776  0.00  0.00    +0.000 A 
ATOM      5  C   UNL     1       5.517   4.436  18.161  0.00  0.00    +0.000 A 
ATOM      6  C   UNL     1       6.306   5.548  18.473  0.00  0.00    +0.000 A 
ENDROOT
BRANCH   5   7
ATOM      7  C   UNL     1       4.635   3.635  19.089  0.00  0.00    +0.000 A 
ATOM      8  N   UNL     1       5.339   2.706  19.773  0.00  0.00    +0.000 NA
ATOM      9  N   UNL     1       4.489   2.121  20.594  0.00  0.00    +0.000 N 
ATOM     10  C   UNL     1       3.261   2.681  20.620  0.00  0.00    +0.000 A 
ATOM     11  C   UNL     1       2.202   2.402  21.498  0.00  0.00    +0.000 A 
ATOM     12  C   UNL     1       0.963   2.961  21.226  0.00  0.00    +0.000 A 
ATOM     13  C   UNL     1       0.807   3.739  20.088  0.00  0.00    +0.000 A 
ATOM     14  C   UNL     1       1.918   4.048  19.252  0.00  0.00    +0.000 A 
ATOM     15 CL   UNL     1       1.643   4.901  17.803  0.00  0.00    +0.000 Cl
ATOM     16  C   UNL     1       3.225   3.565  19.523  0.00  0.00    +0.000 A 
ATOM     17  H   UNL     1       4.810   1.316  21.117  0.00  0.00    +0.000 HD
ENDBRANCH   5   7
BRANCH   1  19
ATOM     18  N   UNL     1       8.545   7.418  18.955  0.00  0.00    +0.000 N 
ATOM     19  C   UNL     1       7.785   7.468  17.817  0.00  0.00    +0.000 C 
ATOM     20  O   UNL     1       7.749   8.500  17.139  0.00  0.00    +0.000 OA
ATOM     21  H   UNL     1       8.995   8.282  19.229  0.00  0.00    +0.000 HD
ATOM     22  H   UNL     1       8.461   6.689  19.647  0.00  0.00    +0.000 HD
ENDBRANCH   1  19
TORSDOF 2
ENDMDL
MODEL 5
REMARK VINA RESULT:      -8.2      1.428      1.448
REMARK  Name = 
REMARK  2 active torsions:
REMARK  status: ('A' for Active; 'I' for Inactive)
REMARK    1  A    between atoms: C_2  and  C_4
REMARK    2  A    between atoms: C_8  and  C_9
REMARK                            x       y       z     vdW  Elec       q    Type
REMARK                         _______ _______ _______ _____ _____    ______ ____
ROOT
ATOM      1  C   UNL     1       6.507   4.840  15.272  0.00  0.00    +0.000 A 
ATOM      2  C   UNL     1       7.288   5.673  16.073  0.00  0.00    +0.000 A 
ATOM      3  C   UNL     1       6.928   5.841  17.401  0.00  0.00    +0.000 A 
ATOM      4  C   UNL     1       5.806   5.178  17.901  0.00  0.00    +0.000 A 
ATOM      5  C   UNL     1       4.982   4.297  17.133  0.00  0.00    +0.000 A 
ATOM      6  C   UNL     1       5.359   4.148  15.794  0.00  0.00    +0.000 A 
ENDROOT
BRANCH   5   7
ATOM      7  C   UNL     1       3.884   3.573  17.873  0.00  0.00    +0.000 A 
ATOM      8  N   UNL     1       3.728   2.307  17.428  0.00  0.00    +0.000 NA
ATOM      9  N   UNL     1       2.801   1.754  18.185  0.00  0.00    +0.000 N 
ATOM     10  C   UNL     1       2.395   2.519  19.222  0.00  0.00    +0.000 A 
ATOM     11  C   UNL     1       1.558   2.157  20.288  0.00  0.00    +0.000 A 
ATOM     12  C   UNL     1       1.119   3.156  21.141  0.00  0.00    +0.000 A 
ATOM     13  C   UNL     1       1.488   4.470  20.893  0.00  0.00    +0.000 A 
ATOM     14  C   UNL     1       2.385   4.791  19.835  0.00  0.00    +0.000 A 
ATOM     15 CL   UNL     1       2.703   6.432  19.500  0.00  0.00    +0.000 Cl
ATOM     16  C   UNL     1       2.927   3.800  18.975  0.00  0.00    +0.000 A 
ATOM     17  H   UNL     1       2.468   0.832  17.933  0.00  0.00    +0.000 HD
ENDBRANCH   5   7
BRANCH   1  19
ATOM     18  N   UNL     1       6.358   3.526  13.212  0.00  0.00    +0.000 N 
ATOM     19  C   UNL     1       6.895   4.606  13.861  0.00  0.00    +0.000 C 
ATOM     20  O   UNL     1       7.690   5.348  13.276  0.00  0.00    +0.000 OA
ATOM     21  H   UNL     1       6.708   3.345  12.280  0.00  0.00    +0.000 HD
ATOM     22  H   UNL     1       5.868   2.781  13.684  0.00  0.00    +0.000 HD
ENDBRANCH   1  19
TORSDOF 2
ENDMDL
MODEL 6
REMARK VINA RESULT:      -7.7      2.129      2.374
REMARK  Name = 
REMARK  2 active torsions:
REMARK  status: ('A' for Active; 'I' for Inactive)
REMARK    1  A    between atoms: C_2  and  C_4
REMARK    2  A    between atoms: C_8  and  C_9
REMARK                            x       y       z     vdW  Elec       q    Type
REMARK                         _______ _______ _______ _____ _____    ______ ____
ROOT
ATOM      1  C   UNL     1       6.475   4.699  15.666  0.00  0.00    +0.000 A 
ATOM      2  C   UNL     1       7.683   4.621  16.359  0.00  0.00    +0.000 A 
ATOM      3  C   UNL     1       7.658   4.698  17.742  0.00  0.00    +0.000 A 
ATOM      4  C   UNL     1       6.438   4.848  18.403  0.00  0.00    +0.000 A 
ATOM      5  C   UNL     1       5.169   4.913  17.747  0.00  0.00    +0.000 A 
ATOM      6  C   UNL     1       5.218   4.841  16.350  0.00  0.00    +0.000 A 
ENDROOT
BRANCH   5   7
ATOM      7  C   UNL     1       3.946   4.952  18.631  0.00  0.00    +0.000 A 
ATOM      8  N   UNL     1       3.285   6.126  18.522  0.00  0.00    +0.000 NA
ATOM      9  N   UNL     1       2.209   6.022  19.277  0.00  0.00    +0.000 N 
ATOM     10  C   UNL     1       2.009   4.793  19.800  0.00  0.00    +0.000 A 
ATOM     11  C   UNL     1       0.885   4.322  20.496  0.00  0.00    +0.000 A 
ATOM     12  C   UNL     1       0.969   3.084  21.110  0.00  0.00    +0.000 A 
ATOM     13  C   UNL     1       2.161   2.376  21.048  0.00  0.00    +0.000 A 
ATOM     14  C   UNL     1       3.261   2.860  20.284  0.00  0.00    +0.000 A 
ATOM     15 CL   UNL     1       4.738   2.012  20.346  0.00  0.00    +0.000 Cl
ATOM     16  C   UNL     1       3.206   4.087  19.572  0.00  0.00    +0.000 A 
ATOM     17  H   UNL     1       1.639   6.848  19.409  0.00  0.00    +0.000 HD
ENDBRANCH   5   7
BRANCH   1  19
ATOM     18  N   UNL     1       7.420   5.252  13.476  0.00  0.00    +0.000 N 
ATOM     19  C   UNL     1       6.467   4.573  14.189  0.00  0.00    +0.000 C 
ATOM     20  O   UNL     1       5.622   3.890  13.602  0.00  0.00    +0.000 OA
ATOM     21  H   UNL     1       7.334   5.214  12.468  0.00  0.00    +0.000 HD
ATOM     22  H   UNL     1       8.002   5.972  13.873  0.00  0.00    +0.000 HD
ENDBRANCH   1  19
TORSDOF 2
ENDMDL
MODEL 7
REMARK VINA RESULT:      -7.6      1.822      1.927
REMARK  Name = 
REMARK  2 active torsions:
REMARK  status: ('A' for Active; 'I' for Inactive)
REMARK    1  A    between atoms: C_2  and  C_4
REMARK    2  A    between atoms: C_8  and  C_9
REMARK                            x       y       z     vdW  Elec       q    Type
REMARK                         _______ _______ _______ _____ _____    ______ ____
ROOT
ATOM      1  C   UNL     1       6.545   5.293  15.792  0.00  0.00    +0.000 A 
ATOM      2  C   UNL     1       7.532   6.092  16.370  0.00  0.00    +0.000 A 
ATOM      3  C   UNL     1       7.324   6.578  17.651  0.00  0.00    +0.000 A 
ATOM      4  C   UNL     1       6.146   6.258  18.327  0.00  0.00    +0.000 A 
ATOM      5  C   UNL     1       5.111   5.427  17.794  0.00  0.00    +0.000 A 
ATOM      6  C   UNL     1       5.338   4.953  16.497  0.00  0.00    +0.000 A 
ENDROOT
BRANCH   5   7
ATOM      7  C   UNL     1       3.965   5.089  18.717  0.00  0.00    +0.000 A 
ATOM      8  N   UNL     1       3.726   6.079  19.604  0.00  0.00    +0.000 NA
ATOM      9  N   UNL     1       2.672   5.709  20.305  0.00  0.00    +0.000 N 
ATOM     10  C   UNL     1       2.079   4.578  19.867  0.00  0.00    +0.000 A 
ATOM     11  C   UNL     1       0.860   4.023  20.287  0.00  0.00    +0.000 A 
ATOM     12  C   UNL     1       0.531   2.754  19.838  0.00  0.00    +0.000 A 
ATOM     13  C   UNL     1       1.426   2.069  19.028  0.00  0.00    +0.000 A 
ATOM     14  C   UNL     1       2.627   2.687  18.576  0.00  0.00    +0.000 A 
ATOM     15 CL   UNL     1       3.744   1.756  17.689  0.00  0.00    +0.000 Cl
ATOM     16  C   UNL     1       2.979   4.012  18.943  0.00  0.00    +0.000 A 
ATOM     17  H   UNL     1       2.404   6.278  21.098  0.00  0.00    +0.000 HD
ENDBRANCH   5   7
BRANCH   1  19
ATOM     18  N   UNL     1       6.175   3.520  14.145  0.00  0.00    +0.000 N 
ATOM     19  C   UNL     1       6.761   4.722  14.442  0.00  0.00    +0.000 C 
ATOM     20  O   UNL     1       7.460   5.295  13.601  0.00  0.00    +0.000 OA
ATOM     21  H   UNL     1       6.412   3.118  13.247  0.00  0.00    +0.000 HD
ATOM     22  H   UNL     1       5.765   2.915  14.840  0.00  0.00    +0.000 HD
ENDBRANCH   1  19
TORSDOF 2
ENDMDL
MODEL 8
REMARK VINA RESULT:      -7.6      2.074      2.321
REMARK  Name = 
REMARK  2 active torsions:
REMARK  status: ('A' for Active; 'I' for Inactive)
REMARK    1  A    between atoms: C_2  and  C_4
REMARK    2  A    between atoms: C_8  and  C_9
REMARK                            x       y       z     vdW  Elec       q    Type
REMARK                         _______ _______ _______ _____ _____    ______ ____
ROOT
ATOM      1  C   UNL     1       5.901   4.388  14.758  0.00  0.00    +0.000 A 
ATOM      2  C   UNL     1       7.142   4.965  15.028  0.00  0.00    +0.000 A 
ATOM      3  C   UNL     1       7.348   5.541  16.271  0.00  0.00    +0.000 A 
ATOM      4  C   UNL     1       6.319   5.530  17.215  0.00  0.00    +0.000 A 
ATOM      5  C   UNL     1       5.036   4.935  17.002  0.00  0.00    +0.000 A 
ATOM      6  C   UNL     1       4.848   4.366  15.738  0.00  0.00    +0.000 A 
ENDROOT
BRANCH   5   7
ATOM      7  C   UNL     1       4.093   4.910  18.180  0.00  0.00    +0.000 A 
ATOM      8  N   UNL     1       4.076   6.091  18.836  0.00  0.00    +0.000 NA
ATOM      9  N   UNL     1       3.176   5.976  19.792  0.00  0.00    +0.000 N 
ATOM     10  C   UNL     1       2.465   4.829  19.757  0.00  0.00    +0.000 A 
ATOM     11  C   UNL     1       1.339   4.485  20.521  0.00  0.00    +0.000 A 
ATOM     12  C   UNL     1       0.881   3.180  20.458  0.00  0.00    +0.000 A 
ATOM     13  C   UNL     1       1.565   2.258  19.678  0.00  0.00    +0.000 A 
ATOM     14  C   UNL     1       2.669   2.658  18.872  0.00  0.00    +0.000 A 
ATOM     15 CL   UNL     1       3.547   1.461  18.034  0.00  0.00    +0.000 Cl
ATOM     16  C   UNL     1       3.136   3.997  18.839  0.00  0.00    +0.000 A 
ATOM     17  H   UNL     1       3.097   6.730  20.464  0.00  0.00    +0.000 HD
ENDBRANCH   5   7
BRANCH   1  19
ATOM     18  N   UNL     1       6.717   3.065  12.867  0.00  0.00    +0.000 N 
ATOM     19  C   UNL     1       5.669   3.724  13.454  0.00  0.00    +0.000 C 
ATOM     20  O   UNL     1       4.570   3.766  12.892  0.00  0.00    +0.000 OA
ATOM     21  H   UNL     1       6.549   2.697  11.939  0.00  0.00    +0.000 HD
ATOM     22  H   UNL     1       7.674   3.162  13.170  0.00  0.00    +0.000 HD
ENDBRANCH   1  19
TORSDOF 2
ENDMDL
MODEL 9
REMARK VINA RESULT:      -7.6      2.674      4.086
REMARK  Name = 
REMARK  2 active torsions:
REMARK  status: ('A' for Active; 'I' for Inactive)
REMARK    1  A    between atoms: C_2  and  C_4
REMARK    2  A    between atoms: C_8  and  C_9
REMARK                            x       y       z     vdW  Elec       q    Type
REMARK                         _______ _______ _______ _____ _____    ______ ____
ROOT
ATOM      1  C   UNL     1       6.120   3.422  12.401  0.00  0.00    +0.000 A 
ATOM      2  C   UNL     1       7.100   4.231  11.827  0.00  0.00    +0.000 A 
ATOM      3  C   UNL     1       7.793   5.111  12.643  0.00  0.00    +0.000 A 
ATOM      4  C   UNL     1       7.498   5.165  14.006  0.00  0.00    +0.000 A 
ATOM      5  C   UNL     1       6.520   4.346  14.652  0.00  0.00    +0.000 A 
ATOM      6  C   UNL     1       5.827   3.470  13.808  0.00  0.00    +0.000 A 
ENDROOT
BRANCH   5   7
ATOM      7  C   UNL     1       6.424   4.455  16.154  0.00  0.00    +0.000 A 
ATOM      8  N   UNL     1       7.640   4.609  16.725  0.00  0.00    +0.000 NA
ATOM      9  N   UNL     1       7.430   4.762  18.018  0.00  0.00    +0.000 N 
ATOM     10  C   UNL     1       6.129   4.861  18.366  0.00  0.00    +0.000 A 
ATOM     11  C   UNL     1       5.592   5.192  19.620  0.00  0.00    +0.000 A 
ATOM     12  C   UNL     1       4.227   5.049  19.804  0.00  0.00    +0.000 A 
ATOM     13  C   UNL     1       3.451   4.554  18.765  0.00  0.00    +0.000 A 
ATOM     14  C   UNL     1       4.023   4.284  17.489  0.00  0.00    +0.000 A 
ATOM     15 CL   UNL     1       3.049   3.561  16.292  0.00  0.00    +0.000 Cl
ATOM     16  C   UNL     1       5.402   4.482  17.220  0.00  0.00    +0.000 A 
ATOM     17  H   UNL     1       8.235   4.784  18.631  0.00  0.00    +0.000 HD
ENDBRANCH   5   7
BRANCH   1  19
ATOM     18  N   UNL     1       5.999   1.236  11.304  0.00  0.00    +0.000 N 
ATOM     19  C   UNL     1       5.395   2.439  11.560  0.00  0.00    +0.000 C 
ATOM     20  O   UNL     1       4.283   2.688  11.086  0.00  0.00    +0.000 OA
ATOM     21  H   UNL     1       5.517   0.624  10.658  0.00  0.00    +0.000 HD
ATOM     22  H   UNL     1       6.973   1.053  11.491  0.00  0.00    +0.000 HD
ENDBRANCH   1  19
TORSDOF 2
ENDMDL
