MODEL 1
REMARK VINA RESULT:      -7.0      0.000      0.000
REMARK  Name = 
REMARK  10 active torsions:
REMARK  status: ('A' for Active; 'I' for Inactive)
REMARK    1  A    between atoms: O_1  and  C_2
REMARK    2  A    between atoms: C_2  and  C_3
REMARK    3  A    between atoms: C_5  and  O_6
REMARK    4  A    between atoms: C_11  and  O_12
REMARK    5  A    between atoms: O_12  and  C_13
REMARK    6  A    between atoms: C_15  and  C_16
REMARK    7  A    between atoms: C_16  and  O_17
REMARK    8  A    between atoms: C_18  and  O_19
REMARK    9  A    between atoms: C_20  and  O_21
REMARK   10  A    between atoms: C_22  and  O_23
REMARK                            x       y       z     vdW  Elec       q    Type
REMARK                         _______ _______ _______ _____ _____    ______ ____
ROOT
ATOM      1  O   UNL     1       2.205   6.956  18.723  0.00  0.00    +0.000 OA
ENDROOT
BRANCH   1   9
ATOM      2  C   UNL     1       2.498   3.435  20.170  0.00  0.00    +0.000 C 
ATOM      3  C   UNL     1       2.849   2.330  19.496  0.00  0.00    +0.000 C 
ATOM      4  C   UNL     1       2.871   2.558  18.021  0.00  0.00    +0.000 C 
ATOM      5  C   UNL     1       2.818   4.099  17.889  0.00  0.00    +0.000 C 
ATOM      6  C   UNL     1       4.205   4.652  17.659  0.00  0.00    +0.000 C 
ATOM      7  C   UNL     1       4.785   5.488  18.523  0.00  0.00    +0.000 C 
ATOM      8  O   UNL     1       4.192   6.002  19.641  0.00  0.00    +0.000 OA
ATOM      9  C   UNL     1       2.751   5.971  19.623  0.00  0.00    +0.000 C 
ATOM     10  C   UNL     1       2.201   4.585  19.228  0.00  0.00    +0.000 C 
BRANCH   4  11
ATOM     11  O   UNL     1       1.735   1.943  17.438  0.00  0.00    +0.000 OA
ATOM     12  H   UNL     1       2.029   1.101  17.047  0.00  0.00    +0.000 HD
ENDBRANCH   4  11
BRANCH   2  13
ATOM     13  C   UNL     1       2.336   3.549  21.643  0.00  0.00    +0.000 C 
BRANCH  13  14
ATOM     14  O   UNL     1       1.415   2.554  22.053  0.00  0.00    +0.000 OA
ATOM     15  H   UNL     1       1.766   2.172  22.876  0.00  0.00    +0.000 HD
ENDBRANCH  13  14
ENDBRANCH   2  13
ENDBRANCH   1   9
BRANCH   1  16
ATOM     16  C   UNL     1       1.963   8.203  19.372  0.00  0.00    +0.000 C 
ATOM     17  O   UNL     1       1.106   8.035  20.500  0.00  0.00    +0.000 OA
ATOM     18  C   UNL     1       0.951   9.251  21.242  0.00  0.00    +0.000 C 
ATOM     19  C   UNL     1       0.298  10.339  20.373  0.00  0.00    +0.000 C 
ATOM     20  C   UNL     1       1.089  10.528  19.069  0.00  0.00    +0.000 C 
ATOM     21  C   UNL     1       1.317   9.181  18.361  0.00  0.00    +0.000 C 
BRANCH  19  22
ATOM     22  O   UNL     1       0.209  11.563  21.116  0.00  0.00    +0.000 OA
ATOM     23  H   UNL     1      -0.311  11.393  21.923  0.00  0.00    +0.000 HD
ENDBRANCH  19  22
BRANCH  20  24
ATOM     24  O   UNL     1       0.408  11.477  18.238  0.00  0.00    +0.000 OA
ATOM     25  H   UNL     1       0.532  11.217  17.308  0.00  0.00    +0.000 HD
ENDBRANCH  20  24
BRANCH  21  26
ATOM     26  O   UNL     1       2.121   9.397  17.192  0.00  0.00    +0.000 OA
ATOM     27  H   UNL     1       2.345   8.533  16.804  0.00  0.00    +0.000 HD
ENDBRANCH  21  26
BRANCH  18  28
ATOM     28  C   UNL     1       0.119   8.957  22.500  0.00  0.00    +0.000 C 
BRANCH  28  29
ATOM     29  O   UNL     1       0.381   9.871  23.559  0.00  0.00    +0.000 OA
ATOM     30  H   UNL     1      -0.004  10.733  23.298  0.00  0.00    +0.000 HD
ENDBRANCH  28  29
ENDBRANCH  18  28
ENDBRANCH   1  16
TORSDOF 10
ENDMDL
MODEL 2
REMARK VINA RESULT:      -7.0      2.987      6.609
REMARK  Name = 
REMARK  10 active torsions:
REMARK  status: ('A' for Active; 'I' for Inactive)
REMARK    1  A    between atoms: O_1  and  C_2
REMARK    2  A    between atoms: C_2  and  C_3
REMARK    3  A    between atoms: C_5  and  O_6
REMARK    4  A    between atoms: C_11  and  O_12
REMARK    5  A    between atoms: O_12  and  C_13
REMARK    6  A    between atoms: C_15  and  C_16
REMARK    7  A    between atoms: C_16  and  O_17
REMARK    8  A    between atoms: C_18  and  O_19
REMARK    9  A    between atoms: C_20  and  O_21
REMARK   10  A    between atoms: C_22  and  O_23
REMARK                            x       y       z     vdW  Elec       q    Type
REMARK                         _______ _______ _______ _____ _____    ______ ____
ROOT
ATOM      1  O   UNL     1       4.354   5.981  19.144  0.00  0.00    +0.000 OA
ENDROOT
BRANCH   1   9
ATOM      2  C   UNL     1       1.838   3.111  19.250  0.00  0.00    +0.000 C 
ATOM      3  C   UNL     1       1.142   2.709  20.323  0.00  0.00    +0.000 C 
ATOM      4  C   UNL     1       1.639   3.341  21.581  0.00  0.00    +0.000 C 
ATOM      5  C   UNL     1       2.547   4.489  21.079  0.00  0.00    +0.000 C 
ATOM      6  C   UNL     1       1.797   5.800  21.112  0.00  0.00    +0.000 C 
ATOM      7  C   UNL     1       1.555   6.504  20.004  0.00  0.00    +0.000 C 
ATOM      8  O   UNL     1       2.008   6.188  18.754  0.00  0.00    +0.000 OA
ATOM      9  C   UNL     1       3.148   5.305  18.737  0.00  0.00    +0.000 C 
ATOM     10  C   UNL     1       2.946   4.071  19.639  0.00  0.00    +0.000 C 
BRANCH   4  11
ATOM     11  O   UNL     1       2.371   2.382  22.326  0.00  0.00    +0.000 OA
ATOM     12  H   UNL     1       3.034   1.993  21.727  0.00  0.00    +0.000 HD
ENDBRANCH   4  11
BRANCH   2  13
ATOM     13  C   UNL     1       1.638   2.650  17.852  0.00  0.00    +0.000 C 
BRANCH  13  14
ATOM     14  O   UNL     1       2.623   1.670  17.577  0.00  0.00    +0.000 OA
ATOM     15  H   UNL     1       3.270   2.085  16.981  0.00  0.00    +0.000 HD
ENDBRANCH  13  14
ENDBRANCH   2  13
ENDBRANCH   1   9
BRANCH   1  16
ATOM     16  C   UNL     1       5.373   5.913  18.149  0.00  0.00    +0.000 C 
ATOM     17  O   UNL     1       4.839   5.485  16.897  0.00  0.00    +0.000 OA
ATOM     18  C   UNL     1       5.817   5.531  15.852  0.00  0.00    +0.000 C 
ATOM     19  C   UNL     1       6.988   4.581  16.160  0.00  0.00    +0.000 C 
ATOM     20  C   UNL     1       7.574   4.887  17.547  0.00  0.00    +0.000 C 
ATOM     21  C   UNL     1       6.471   4.927  18.618  0.00  0.00    +0.000 C 
BRANCH  19  22
ATOM     22  O   UNL     1       7.982   4.688  15.132  0.00  0.00    +0.000 OA
ATOM     23  H   UNL     1       8.703   5.257  15.463  0.00  0.00    +0.000 HD
ENDBRANCH  19  22
BRANCH  20  24
ATOM     24  O   UNL     1       8.598   3.929  17.847  0.00  0.00    +0.000 OA
ATOM     25  H   UNL     1       8.747   3.381  17.057  0.00  0.00    +0.000 HD
ENDBRANCH  20  24
BRANCH  21  26
ATOM     26  O   UNL     1       7.054   5.289  19.878  0.00  0.00    +0.000 OA
ATOM     27  H   UNL     1       6.861   6.227  20.053  0.00  0.00    +0.000 HD
ENDBRANCH  21  26
BRANCH  18  28
ATOM     28  C   UNL     1       5.135   5.175  14.523  0.00  0.00    +0.000 C 
BRANCH  28  29
ATOM     29  O   UNL     1       5.658   3.989  13.936  0.00  0.00    +0.000 OA
ATOM     30  H   UNL     1       5.822   3.354  14.665  0.00  0.00    +0.000 HD
ENDBRANCH  28  29
ENDBRANCH  18  28
ENDBRANCH   1  16
TORSDOF 10
ENDMDL
MODEL 3
REMARK VINA RESULT:      -6.8      4.327      5.835
REMARK  Name = 
REMARK  10 active torsions:
REMARK  status: ('A' for Active; 'I' for Inactive)
REMARK    1  A    between atoms: O_1  and  C_2
REMARK    2  A    between atoms: C_2  and  C_3
REMARK    3  A    between atoms: C_5  and  O_6
REMARK    4  A    between atoms: C_11  and  O_12
REMARK    5  A    between atoms: O_12  and  C_13
REMARK    6  A    between atoms: C_15  and  C_16
REMARK    7  A    between atoms: C_16  and  O_17
REMARK    8  A    between atoms: C_18  and  O_19
REMARK    9  A    between atoms: C_20  and  O_21
REMARK   10  A    between atoms: C_22  and  O_23
REMARK                            x       y       z     vdW  Elec       q    Type
REMARK                         _______ _______ _______ _____ _____    ______ ____
ROOT
ATOM      1  O   UNL     1       5.826   3.510  19.038  0.00  0.00    +0.000 OA
ENDROOT
BRANCH   1   9
ATOM      2  C   UNL     1       2.184   3.890  20.121  0.00  0.00    +0.000 C 
ATOM      3  C   UNL     1       1.105   3.561  19.395  0.00  0.00    +0.000 C 
ATOM      4  C   UNL     1       1.457   3.256  17.977  0.00  0.00    +0.000 C 
ATOM      5  C   UNL     1       2.996   3.104  18.007  0.00  0.00    +0.000 C 
ATOM      6  C   UNL     1       3.375   1.642  18.063  0.00  0.00    +0.000 C 
ATOM      7  C   UNL     1       4.047   1.126  19.095  0.00  0.00    +0.000 C 
ATOM      8  O   UNL     1       4.536   1.838  20.153  0.00  0.00    +0.000 OA
ATOM      9  C   UNL     1       4.701   3.248  19.901  0.00  0.00    +0.000 C 
ATOM     10  C   UNL     1       3.442   3.881  19.274  0.00  0.00    +0.000 C 
BRANCH   4  11
ATOM     11  O   UNL     1       1.053   4.340  17.155  0.00  0.00    +0.000 OA
ATOM     12  H   UNL     1       1.203   5.158  17.660  0.00  0.00    +0.000 HD
ENDBRANCH   4  11
BRANCH   2  13
ATOM     13  C   UNL     1       2.189   4.289  21.552  0.00  0.00    +0.000 C 
BRANCH  13  14
ATOM     14  O   UNL     1       2.392   3.119  22.324  0.00  0.00    +0.000 OA
ATOM     15  H   UNL     1       3.171   2.671  21.951  0.00  0.00    +0.000 HD
ENDBRANCH  13  14
ENDBRANCH   2  13
ENDBRANCH   1   9
BRANCH   1  16
ATOM     16  C   UNL     1       5.936   4.891  18.700  0.00  0.00    +0.000 C 
ATOM     17  O   UNL     1       5.714   5.096  17.306  0.00  0.00    +0.000 OA
ATOM     18  C   UNL     1       5.693   6.487  16.964  0.00  0.00    +0.000 C 
ATOM     19  C   UNL     1       7.048   7.144  17.278  0.00  0.00    +0.000 C 
ATOM     20  C   UNL     1       7.439   6.890  18.742  0.00  0.00    +0.000 C 
ATOM     21  C   UNL     1       7.347   5.394  19.088  0.00  0.00    +0.000 C 
BRANCH  19  22
ATOM     22  O   UNL     1       6.984   8.547  16.986  0.00  0.00    +0.000 OA
ATOM     23  H   UNL     1       6.205   8.919  17.439  0.00  0.00    +0.000 HD
ENDBRANCH  19  22
BRANCH  20  24
ATOM     24  O   UNL     1       8.745   7.431  18.981  0.00  0.00    +0.000 OA
ATOM     25  H   UNL     1       9.366   6.691  19.105  0.00  0.00    +0.000 HD
ENDBRANCH  20  24
BRANCH  21  26
ATOM     26  O   UNL     1       7.648   5.215  20.479  0.00  0.00    +0.000 OA
ATOM     27  H   UNL     1       8.427   5.755  20.701  0.00  0.00    +0.000 HD
ENDBRANCH  21  26
BRANCH  18  28
ATOM     28  C   UNL     1       5.328   6.624  15.478  0.00  0.00    +0.000 C 
BRANCH  28  29
ATOM     29  O   UNL     1       6.163   5.841  14.632  0.00  0.00    +0.000 OA
ATOM     30  H   UNL     1       5.695   5.740  13.777  0.00  0.00    +0.000 HD
ENDBRANCH  28  29
ENDBRANCH  18  28
ENDBRANCH   1  16
TORSDOF 10
ENDMDL
MODEL 4
REMARK VINA RESULT:      -6.5      4.278      7.873
REMARK  Name = 
REMARK  10 active torsions:
REMARK  status: ('A' for Active; 'I' for Inactive)
REMARK    1  A    between atoms: O_1  and  C_2
REMARK    2  A    between atoms: C_2  and  C_3
REMARK    3  A    between atoms: C_5  and  O_6
REMARK    4  A    between atoms: C_11  and  O_12
REMARK    5  A    between atoms: O_12  and  C_13
REMARK    6  A    between atoms: C_15  and  C_16
REMARK    7  A    between atoms: C_16  and  O_17
REMARK    8  A    between atoms: C_18  and  O_19
REMARK    9  A    between atoms: C_20  and  O_21
REMARK   10  A    between atoms: C_22  and  O_23
REMARK                            x       y       z     vdW  Elec       q    Type
REMARK                         _______ _______ _______ _____ _____    ______ ____
ROOT
ATOM      1  O   UNL     1       5.456   3.688  16.403  0.00  0.00    +0.000 OA
ENDROOT
BRANCH   1   9
ATOM      2  C   UNL     1       2.250   4.872  18.105  0.00  0.00    +0.000 C 
ATOM      3  C   UNL     1       1.570   4.214  19.054  0.00  0.00    +0.000 C 
ATOM      4  C   UNL     1       2.051   2.811  19.216  0.00  0.00    +0.000 C 
ATOM      5  C   UNL     1       3.395   2.795  18.450  0.00  0.00    +0.000 C 
ATOM      6  C   UNL     1       4.548   2.948  19.415  0.00  0.00    +0.000 C 
ATOM      7  C   UNL     1       5.381   3.990  19.361  0.00  0.00    +0.000 C 
ATOM      8  O   UNL     1       5.354   4.972  18.413  0.00  0.00    +0.000 OA
ATOM      9  C   UNL     1       4.678   4.609  17.193  0.00  0.00    +0.000 C 
ATOM     10  C   UNL     1       3.293   3.983  17.456  0.00  0.00    +0.000 C 
BRANCH   4  11
ATOM     11  O   UNL     1       1.107   1.925  18.636  0.00  0.00    +0.000 OA
ATOM     12  H   UNL     1       1.468   1.637  17.779  0.00  0.00    +0.000 HD
ENDBRANCH   4  11
BRANCH   2  13
ATOM     13  C   UNL     1       2.005   6.268  17.658  0.00  0.00    +0.000 C 
BRANCH  13  14
ATOM     14  O   UNL     1       2.658   7.132  18.571  0.00  0.00    +0.000 OA
ATOM     15  H   UNL     1       2.055   7.247  19.326  0.00  0.00    +0.000 HD
ENDBRANCH  13  14
ENDBRANCH   2  13
ENDBRANCH   1   9
BRANCH   1  16
ATOM     16  C   UNL     1       5.744   4.202  15.104  0.00  0.00    +0.000 C 
ATOM     17  O   UNL     1       5.667   3.174  14.117  0.00  0.00    +0.000 OA
ATOM     18  C   UNL     1       5.827   3.690  12.791  0.00  0.00    +0.000 C 
ATOM     19  C   UNL     1       7.213   4.336  12.621  0.00  0.00    +0.000 C 
ATOM     20  C   UNL     1       7.446   5.394  13.710  0.00  0.00    +0.000 C 
ATOM     21  C   UNL     1       7.163   4.820  15.110  0.00  0.00    +0.000 C 
BRANCH  19  22
ATOM     22  O   UNL     1       7.328   4.898  11.307  0.00  0.00    +0.000 OA
ATOM     23  H   UNL     1       6.901   4.289  10.676  0.00  0.00    +0.000 HD
ENDBRANCH  19  22
BRANCH  20  24
ATOM     24  O   UNL     1       8.778   5.911  13.587  0.00  0.00    +0.000 OA
ATOM     25  H   UNL     1       9.151   5.600  12.744  0.00  0.00    +0.000 HD
ENDBRANCH  20  24
BRANCH  21  26
ATOM     26  O   UNL     1       7.321   5.862  16.083  0.00  0.00    +0.000 OA
ATOM     27  H   UNL     1       7.288   5.466  16.972  0.00  0.00    +0.000 HD
ENDBRANCH  21  26
BRANCH  18  28
ATOM     28  C   UNL     1       5.609   2.546  11.788  0.00  0.00    +0.000 C 
BRANCH  28  29
ATOM     29  O   UNL     1       6.813   1.855  11.472  0.00  0.00    +0.000 OA
ATOM     30  H   UNL     1       6.708   1.491  10.569  0.00  0.00    +0.000 HD
ENDBRANCH  28  29
ENDBRANCH  18  28
ENDBRANCH   1  16
TORSDOF 10
ENDMDL
MODEL 5
REMARK VINA RESULT:      -6.4      4.468      7.941
REMARK  Name = 
REMARK  10 active torsions:
REMARK  status: ('A' for Active; 'I' for Inactive)
REMARK    1  A    between atoms: O_1  and  C_2
REMARK    2  A    between atoms: C_2  and  C_3
REMARK    3  A    between atoms: C_5  and  O_6
REMARK    4  A    between atoms: C_11  and  O_12
REMARK    5  A    between atoms: O_12  and  C_13
REMARK    6  A    between atoms: C_15  and  C_16
REMARK    7  A    between atoms: C_16  and  O_17
REMARK    8  A    between atoms: C_18  and  O_19
REMARK    9  A    between atoms: C_20  and  O_21
REMARK   10  A    between atoms: C_22  and  O_23
REMARK                            x       y       z     vdW  Elec       q    Type
REMARK                         _______ _______ _______ _____ _____    ______ ____
ROOT
ATOM      1  O   UNL     1       5.639   3.703  16.395  0.00  0.00    +0.000 OA
ENDROOT
BRANCH   1   9
ATOM      2  C   UNL     1       2.594   3.167  18.636  0.00  0.00    +0.000 C 
ATOM      3  C   UNL     1       2.573   3.248  19.974  0.00  0.00    +0.000 C 
ATOM      4  C   UNL     1       3.948   3.320  20.551  0.00  0.00    +0.000 C 
ATOM      5  C   UNL     1       4.842   3.629  19.327  0.00  0.00    +0.000 C 
ATOM      6  C   UNL     1       5.152   5.106  19.265  0.00  0.00    +0.000 C 
ATOM      7  C   UNL     1       4.765   5.867  18.239  0.00  0.00    +0.000 C 
ATOM      8  O   UNL     1       4.136   5.414  17.114  0.00  0.00    +0.000 OA
ATOM      9  C   UNL     1       4.308   4.005  16.860  0.00  0.00    +0.000 C 
ATOM     10  C   UNL     1       4.015   3.146  18.106  0.00  0.00    +0.000 C 
BRANCH   4  11
ATOM     11  O   UNL     1       4.273   2.070  21.136  0.00  0.00    +0.000 OA
ATOM     12  H   UNL     1       5.030   1.707  20.643  0.00  0.00    +0.000 HD
ENDBRANCH   4  11
BRANCH   2  13
ATOM     13  C   UNL     1       1.410   3.040  17.747  0.00  0.00    +0.000 C 
BRANCH  13  14
ATOM     14  O   UNL     1       1.081   4.336  17.281  0.00  0.00    +0.000 OA
ATOM     15  H   UNL     1       1.910   4.844  17.262  0.00  0.00    +0.000 HD
ENDBRANCH  13  14
ENDBRANCH   2  13
ENDBRANCH   1   9
BRANCH   1  16
ATOM     16  C   UNL     1       5.875   4.197  15.078  0.00  0.00    +0.000 C 
ATOM     17  O   UNL     1       5.793   3.148  14.115  0.00  0.00    +0.000 OA
ATOM     18  C   UNL     1       5.900   3.640  12.774  0.00  0.00    +0.000 C 
ATOM     19  C   UNL     1       7.264   4.316  12.550  0.00  0.00    +0.000 C 
ATOM     20  C   UNL     1       7.504   5.402  13.610  0.00  0.00    +0.000 C 
ATOM     21  C   UNL     1       7.277   4.850  15.028  0.00  0.00    +0.000 C 
BRANCH  19  22
ATOM     22  O   UNL     1       7.325   4.854  11.221  0.00  0.00    +0.000 OA
ATOM     23  H   UNL     1       7.584   4.137  10.613  0.00  0.00    +0.000 HD
ENDBRANCH  19  22
BRANCH  20  24
ATOM     24  O   UNL     1       8.818   5.948  13.436  0.00  0.00    +0.000 OA
ATOM     25  H   UNL     1       9.460   5.335  13.835  0.00  0.00    +0.000 HD
ENDBRANCH  20  24
BRANCH  21  26
ATOM     26  O   UNL     1       7.439   5.914  15.976  0.00  0.00    +0.000 OA
ATOM     27  H   UNL     1       7.471   6.759  15.494  0.00  0.00    +0.000 HD
ENDBRANCH  21  26
BRANCH  18  28
ATOM     28  C   UNL     1       5.680   2.472  11.801  0.00  0.00    +0.000 C 
BRANCH  28  29
ATOM     29  O   UNL     1       6.892   1.813  11.450  0.00  0.00    +0.000 OA
ATOM     30  H   UNL     1       7.582   2.128  12.071  0.00  0.00    +0.000 HD
ENDBRANCH  28  29
ENDBRANCH  18  28
ENDBRANCH   1  16
TORSDOF 10
ENDMDL
MODEL 6
REMARK VINA RESULT:      -6.4      3.118      6.290
REMARK  Name = 
REMARK  10 active torsions:
REMARK  status: ('A' for Active; 'I' for Inactive)
REMARK    1  A    between atoms: O_1  and  C_2
REMARK    2  A    between atoms: C_2  and  C_3
REMARK    3  A    between atoms: C_5  and  O_6
REMARK    4  A    between atoms: C_11  and  O_12
REMARK    5  A    between atoms: O_12  and  C_13
REMARK    6  A    between atoms: C_15  and  C_16
REMARK    7  A    between atoms: C_16  and  O_17
REMARK    8  A    between atoms: C_18  and  O_19
REMARK    9  A    between atoms: C_20  and  O_21
REMARK   10  A    between atoms: C_22  and  O_23
REMARK                            x       y       z     vdW  Elec       q    Type
REMARK                         _______ _______ _______ _____ _____    ______ ____
ROOT
ATOM      1  O   UNL     1       4.318   5.633  16.710  0.00  0.00    +0.000 OA
ENDROOT
BRANCH   1   9
ATOM      2  C   UNL     1       7.385   7.489  18.024  0.00  0.00    +0.000 C 
ATOM      3  C   UNL     1       8.419   6.942  18.679  0.00  0.00    +0.000 C 
ATOM      4  C   UNL     1       8.141   5.534  19.087  0.00  0.00    +0.000 C 
ATOM      5  C   UNL     1       6.883   5.158  18.269  0.00  0.00    +0.000 C 
ATOM      6  C   UNL     1       7.275   4.371  17.040  0.00  0.00    +0.000 C 
ATOM      7  C   UNL     1       7.033   4.820  15.807  0.00  0.00    +0.000 C 
ATOM      8  O   UNL     1       6.351   5.965  15.504  0.00  0.00    +0.000 OA
ATOM      9  C   UNL     1       5.496   6.449  16.559  0.00  0.00    +0.000 C 
ATOM     10  C   UNL     1       6.225   6.519  17.916  0.00  0.00    +0.000 C 
BRANCH   4  11
ATOM     11  O   UNL     1       7.890   5.496  20.482  0.00  0.00    +0.000 OA
ATOM     12  H   UNL     1       7.519   4.619  20.687  0.00  0.00    +0.000 HD
ENDBRANCH   4  11
BRANCH   2  13
ATOM     13  C   UNL     1       7.308   8.883  17.514  0.00  0.00    +0.000 C 
BRANCH  13  14
ATOM     14  O   UNL     1       8.385   9.608  18.079  0.00  0.00    +0.000 OA
ATOM     15  H   UNL     1       8.007  10.168  18.779  0.00  0.00    +0.000 HD
ENDBRANCH  13  14
ENDBRANCH   2  13
ENDBRANCH   1   9
BRANCH   1  16
ATOM     16  C   UNL     1       4.073   5.287  18.072  0.00  0.00    +0.000 C 
ATOM     17  O   UNL     1       4.006   3.872  18.237  0.00  0.00    +0.000 OA
ATOM     18  C   UNL     1       3.889   3.497  19.614  0.00  0.00    +0.000 C 
ATOM     19  C   UNL     1       2.589   4.055  20.221  0.00  0.00    +0.000 C 
ATOM     20  C   UNL     1       2.506   5.573  20.001  0.00  0.00    +0.000 C 
ATOM     21  C   UNL     1       2.741   5.933  18.524  0.00  0.00    +0.000 C 
BRANCH  19  22
ATOM     22  O   UNL     1       2.522   3.720  21.614  0.00  0.00    +0.000 OA
ATOM     23  H   UNL     1       3.100   2.950  21.770  0.00  0.00    +0.000 HD
ENDBRANCH  19  22
BRANCH  20  24
ATOM     24  O   UNL     1       1.246   6.052  20.491  0.00  0.00    +0.000 OA
ATOM     25  H   UNL     1       1.284   7.023  20.538  0.00  0.00    +0.000 HD
ENDBRANCH  20  24
BRANCH  21  26
ATOM     26  O   UNL     1       2.729   7.360  18.382  0.00  0.00    +0.000 OA
ATOM     27  H   UNL     1       1.815   7.677  18.492  0.00  0.00    +0.000 HD
ENDBRANCH  21  26
BRANCH  18  28
ATOM     28  C   UNL     1       3.946   1.965  19.714  0.00  0.00    +0.000 C 
BRANCH  28  29
ATOM     29  O   UNL     1       5.180   1.494  20.245  0.00  0.00    +0.000 OA
ATOM     30  H   UNL     1       5.363   0.627  19.825  0.00  0.00    +0.000 HD
ENDBRANCH  28  29
ENDBRANCH  18  28
ENDBRANCH   1  16
TORSDOF 10
ENDMDL
MODEL 7
REMARK VINA RESULT:      -6.3      4.429      8.077
REMARK  Name = 
REMARK  10 active torsions:
REMARK  status: ('A' for Active; 'I' for Inactive)
REMARK    1  A    between atoms: O_1  and  C_2
REMARK    2  A    between atoms: C_2  and  C_3
REMARK    3  A    between atoms: C_5  and  O_6
REMARK    4  A    between atoms: C_11  and  O_12
REMARK    5  A    between atoms: O_12  and  C_13
REMARK    6  A    between atoms: C_15  and  C_16
REMARK    7  A    between atoms: C_16  and  O_17
REMARK    8  A    between atoms: C_18  and  O_19
REMARK    9  A    between atoms: C_20  and  O_21
REMARK   10  A    between atoms: C_22  and  O_23
REMARK                            x       y       z     vdW  Elec       q    Type
REMARK                         _______ _______ _______ _____ _____    ______ ____
ROOT
ATOM      1  O   UNL     1       5.830   3.788  16.423  0.00  0.00    +0.000 OA
ENDROOT
BRANCH   1   9
ATOM      2  C   UNL     1       3.132   6.082  17.852  0.00  0.00    +0.000 C 
ATOM      3  C   UNL     1       1.996   5.691  18.446  0.00  0.00    +0.000 C 
ATOM      4  C   UNL     1       1.747   4.230  18.271  0.00  0.00    +0.000 C 
ATOM      5  C   UNL     1       3.103   3.687  17.762  0.00  0.00    +0.000 C 
ATOM      6  C   UNL     1       3.883   3.076  18.903  0.00  0.00    +0.000 C 
ATOM      7  C   UNL     1       5.065   3.561  19.289  0.00  0.00    +0.000 C 
ATOM      8  O   UNL     1       5.740   4.577  18.675  0.00  0.00    +0.000 OA
ATOM      9  C   UNL     1       5.346   4.818  17.309  0.00  0.00    +0.000 C 
ATOM     10  C   UNL     1       3.816   4.923  17.152  0.00  0.00    +0.000 C 
BRANCH   4  11
ATOM     11  O   UNL     1       0.716   4.045  17.315  0.00  0.00    +0.000 OA
ATOM     12  H   UNL     1       0.304   3.181  17.494  0.00  0.00    +0.000 HD
ENDBRANCH   4  11
BRANCH   2  13
ATOM     13  C   UNL     1       3.660   7.470  17.795  0.00  0.00    +0.000 C 
BRANCH  13  14
ATOM     14  O   UNL     1       2.562   8.338  17.577  0.00  0.00    +0.000 OA
ATOM     15  H   UNL     1       2.487   8.456  16.615  0.00  0.00    +0.000 HD
ENDBRANCH  13  14
ENDBRANCH   2  13
ENDBRANCH   1   9
BRANCH   1  16
ATOM     16  C   UNL     1       6.017   4.265  15.093  0.00  0.00    +0.000 C 
ATOM     17  O   UNL     1       5.895   3.205  14.146  0.00  0.00    +0.000 OA
ATOM     18  C   UNL     1       5.952   3.682  12.796  0.00  0.00    +0.000 C 
ATOM     19  C   UNL     1       7.309   4.348  12.512  0.00  0.00    +0.000 C 
ATOM     20  C   UNL     1       7.594   5.445  13.549  0.00  0.00    +0.000 C 
ATOM     21  C   UNL     1       7.419   4.911  14.982  0.00  0.00    +0.000 C 
BRANCH  19  22
ATOM     22  O   UNL     1       7.322   4.871  11.176  0.00  0.00    +0.000 OA
ATOM     23  H   UNL     1       6.710   5.630  11.140  0.00  0.00    +0.000 HD
ENDBRANCH  19  22
BRANCH  20  24
ATOM     24  O   UNL     1       8.902   5.984  13.319  0.00  0.00    +0.000 OA
ATOM     25  H   UNL     1       8.898   6.446  12.462  0.00  0.00    +0.000 HD
ENDBRANCH  20  24
BRANCH  21  26
ATOM     26  O   UNL     1       7.621   5.986  15.910  0.00  0.00    +0.000 OA
ATOM     27  H   UNL     1       8.394   6.504  15.624  0.00  0.00    +0.000 HD
ENDBRANCH  21  26
BRANCH  18  28
ATOM     28  C   UNL     1       5.692   2.502  11.846  0.00  0.00    +0.000 C 
BRANCH  28  29
ATOM     29  O   UNL     1       6.886   1.830  11.464  0.00  0.00    +0.000 OA
ATOM     30  H   UNL     1       7.384   1.637  12.285  0.00  0.00    +0.000 HD
ENDBRANCH  28  29
ENDBRANCH  18  28
ENDBRANCH   1  16
TORSDOF 10
ENDMDL
MODEL 8
REMARK VINA RESULT:      -6.3      3.740      6.550
REMARK  Name = 
REMARK  10 active torsions:
REMARK  status: ('A' for Active; 'I' for Inactive)
REMARK    1  A    between atoms: O_1  and  C_2
REMARK    2  A    between atoms: C_2  and  C_3
REMARK    3  A    between atoms: C_5  and  O_6
REMARK    4  A    between atoms: C_11  and  O_12
REMARK    5  A    between atoms: O_12  and  C_13
REMARK    6  A    between atoms: C_15  and  C_16
REMARK    7  A    between atoms: C_16  and  O_17
REMARK    8  A    between atoms: C_18  and  O_19
REMARK    9  A    between atoms: C_20  and  O_21
REMARK   10  A    between atoms: C_22  and  O_23
REMARK                            x       y       z     vdW  Elec       q    Type
REMARK                         _______ _______ _______ _____ _____    ______ ____
ROOT
ATOM      1  O   UNL     1       3.993   3.449  16.869  0.00  0.00    +0.000 OA
ENDROOT
BRANCH   1   9
ATOM      2  C   UNL     1       5.706   6.819  17.407  0.00  0.00    +0.000 C 
ATOM      3  C   UNL     1       6.991   7.008  17.738  0.00  0.00    +0.000 C 
ATOM      4  C   UNL     1       7.659   5.735  18.140  0.00  0.00    +0.000 C 
ATOM      5  C   UNL     1       6.672   4.641  17.668  0.00  0.00    +0.000 C 
ATOM      6  C   UNL     1       7.122   4.068  16.344  0.00  0.00    +0.000 C 
ATOM      7  C   UNL     1       6.377   4.169  15.241  0.00  0.00    +0.000 C 
ATOM      8  O   UNL     1       5.122   4.707  15.183  0.00  0.00    +0.000 OA
ATOM      9  C   UNL     1       4.433   4.756  16.449  0.00  0.00    +0.000 C 
ATOM     10  C   UNL     1       5.304   5.365  17.566  0.00  0.00    +0.000 C 
BRANCH   4  11
ATOM     11  O   UNL     1       7.823   5.721  19.548  0.00  0.00    +0.000 OA
ATOM     12  H   UNL     1       7.308   4.970  19.893  0.00  0.00    +0.000 HD
ENDBRANCH   4  11
BRANCH   2  13
ATOM     13  C   UNL     1       4.740   7.873  17.001  0.00  0.00    +0.000 C 
BRANCH  13  14
ATOM     14  O   UNL     1       3.553   7.679  17.749  0.00  0.00    +0.000 OA
ATOM     15  H   UNL     1       3.663   8.174  18.578  0.00  0.00    +0.000 HD
ENDBRANCH  13  14
ENDBRANCH   2  13
ENDBRANCH   1   9
BRANCH   1  16
ATOM     16  C   UNL     1       3.454   3.460  18.189  0.00  0.00    +0.000 C 
ATOM     17  O   UNL     1       4.124   2.518  19.025  0.00  0.00    +0.000 OA
ATOM     18  C   UNL     1       3.687   2.601  20.386  0.00  0.00    +0.000 C 
ATOM     19  C   UNL     1       2.188   2.273  20.497  0.00  0.00    +0.000 C 
ATOM     20  C   UNL     1       1.374   3.166  19.548  0.00  0.00    +0.000 C 
ATOM     21  C   UNL     1       1.945   3.122  18.120  0.00  0.00    +0.000 C 
BRANCH  19  22
ATOM     22  O   UNL     1       1.759   2.422  21.857  0.00  0.00    +0.000 OA
ATOM     23  H   UNL     1       1.588   3.368  22.022  0.00  0.00    +0.000 HD
ENDBRANCH  19  22
BRANCH  20  24
ATOM     24  O   UNL     1      -0.005   2.776  19.601  0.00  0.00    +0.000 OA
ATOM     25  H   UNL     1      -0.520   3.394  19.053  0.00  0.00    +0.000 HD
ENDBRANCH  20  24
BRANCH  21  26
ATOM     26  O   UNL     1       1.201   4.026  17.290  0.00  0.00    +0.000 OA
ATOM     27  H   UNL     1       1.559   4.923  17.408  0.00  0.00    +0.000 HD
ENDBRANCH  21  26
BRANCH  18  28
ATOM     28  C   UNL     1       4.539   1.646  21.236  0.00  0.00    +0.000 C 
BRANCH  28  29
ATOM     29  O   UNL     1       5.531   0.967  20.474  0.00  0.00    +0.000 OA
ATOM     30  H   UNL     1       6.032   1.649  19.980  0.00  0.00    +0.000 HD
ENDBRANCH  28  29
ENDBRANCH  18  28
ENDBRANCH   1  16
TORSDOF 10
ENDMDL
MODEL 9
REMARK VINA RESULT:      -6.2      3.083      6.315
REMARK  Name = 
REMARK  10 active torsions:
REMARK  status: ('A' for Active; 'I' for Inactive)
REMARK    1  A    between atoms: O_1  and  C_2
REMARK    2  A    between atoms: C_2  and  C_3
REMARK    3  A    between atoms: C_5  and  O_6
REMARK    4  A    between atoms: C_11  and  O_12
REMARK    5  A    between atoms: O_12  and  C_13
REMARK    6  A    between atoms: C_15  and  C_16
REMARK    7  A    between atoms: C_16  and  O_17
REMARK    8  A    between atoms: C_18  and  O_19
REMARK    9  A    between atoms: C_20  and  O_21
REMARK   10  A    between atoms: C_22  and  O_23
REMARK                            x       y       z     vdW  Elec       q    Type
REMARK                         _______ _______ _______ _____ _____    ______ ____
ROOT
ATOM      1  O   UNL     1       4.297   2.919  17.283  0.00  0.00    +0.000 OA
ENDROOT
BRANCH   1   9
ATOM      2  C   UNL     1       5.231   6.620  17.396  0.00  0.00    +0.000 C 
ATOM      3  C   UNL     1       6.475   7.121  17.402  0.00  0.00    +0.000 C 
ATOM      4  C   UNL     1       7.504   6.063  17.624  0.00  0.00    +0.000 C 
ATOM      5  C   UNL     1       6.724   4.744  17.405  0.00  0.00    +0.000 C 
ATOM      6  C   UNL     1       6.968   4.219  16.009  0.00  0.00    +0.000 C 
ATOM      7  C   UNL     1       5.979   4.083  15.123  0.00  0.00    +0.000 C 
ATOM      8  O   UNL     1       4.656   4.310  15.376  0.00  0.00    +0.000 OA
ATOM      9  C   UNL     1       4.298   4.267  16.772  0.00  0.00    +0.000 C 
ATOM     10  C   UNL     1       5.239   5.123  17.644  0.00  0.00    +0.000 C 
BRANCH   4  11
ATOM     11  O   UNL     1       7.999   6.165  18.949  0.00  0.00    +0.000 OA
ATOM     12  H   UNL     1       7.272   6.497  19.505  0.00  0.00    +0.000 HD
ENDBRANCH   4  11
BRANCH   2  13
ATOM     13  C   UNL     1       3.974   7.396  17.243  0.00  0.00    +0.000 C 
BRANCH  13  14
ATOM     14  O   UNL     1       3.180   7.159  18.392  0.00  0.00    +0.000 OA
ATOM     15  H   UNL     1       3.719   7.414  19.160  0.00  0.00    +0.000 HD
ENDBRANCH  13  14
ENDBRANCH   2  13
ENDBRANCH   1   9
BRANCH   1  16
ATOM     16  C   UNL     1       3.456   2.776  18.426  0.00  0.00    +0.000 C 
ATOM     17  O   UNL     1       2.928   4.036  18.834  0.00  0.00    +0.000 OA
ATOM     18  C   UNL     1       1.980   3.901  19.900  0.00  0.00    +0.000 C 
ATOM     19  C   UNL     1       2.647   3.298  21.148  0.00  0.00    +0.000 C 
ATOM     20  C   UNL     1       3.347   1.976  20.794  0.00  0.00    +0.000 C 
ATOM     21  C   UNL     1       4.276   2.149  19.580  0.00  0.00    +0.000 C 
BRANCH  19  22
ATOM     22  O   UNL     1       1.668   3.115  22.180  0.00  0.00    +0.000 OA
ATOM     23  H   UNL     1       1.973   2.398  22.767  0.00  0.00    +0.000 HD
ENDBRANCH  19  22
BRANCH  20  24
ATOM     24  O   UNL     1       4.038   1.484  21.950  0.00  0.00    +0.000 OA
ATOM     25  H   UNL     1       4.533   2.222  22.348  0.00  0.00    +0.000 HD
ENDBRANCH  20  24
BRANCH  21  26
ATOM     26  O   UNL     1       4.846   0.877  19.241  0.00  0.00    +0.000 OA
ATOM     27  H   UNL     1       4.789   0.293  20.018  0.00  0.00    +0.000 HD
ENDBRANCH  21  26
BRANCH  18  28
ATOM     28  C   UNL     1       1.372   5.281  20.195  0.00  0.00    +0.000 C 
BRANCH  28  29
ATOM     29  O   UNL     1       2.178   6.062  21.069  0.00  0.00    +0.000 OA
ATOM     30  H   UNL     1       1.847   5.911  21.979  0.00  0.00    +0.000 HD
ENDBRANCH  28  29
ENDBRANCH  18  28
ENDBRANCH   1  16
TORSDOF 10
ENDMDL
