MODEL 1
REMARK VINA RESULT:      -7.1      0.000      0.000
REMARK  Name = 
REMARK  6 active torsions:
REMARK  status: ('A' for Active; 'I' for Inactive)
REMARK    1  A    between atoms: C_1  and  C_2
REMARK    2  A    between atoms: C_2  and  N_3
REMARK    3  A    between atoms: C_5  and  C_6
REMARK    4  A    between atoms: N_8  and  C_9
REMARK    5  A    between atoms: C_14  and  C_15
REMARK    6  A    between atoms: C_15  and  C_16
REMARK                            x       y       z     vdW  Elec       q    Type
REMARK                         _______ _______ _______ _____ _____    ______ ____
ROOT
ATOM      1  C   UNL     1       3.380   5.632  17.585  0.00  0.00    +0.000 C 
ATOM      2  O   UNL     1       3.637   6.831  17.491  0.00  0.00    +0.000 OA
ATOM      3  N   UNL     1       4.130   4.617  17.011  0.00  0.00    +0.000 N 
ATOM      4  H   UNL     1       3.685   3.701  16.885  0.00  0.00    +0.000 HD
ENDROOT
BRANCH   1   7
ATOM      5  N   UNL     1       1.541   3.683  20.036  0.00  0.00    +0.000 N 
ATOM      6  C   UNL     1       2.527   4.682  19.728  0.00  0.00    +0.000 C 
ATOM      7  C   UNL     1       2.147   5.159  18.328  0.00  0.00    +0.000 C 
ATOM      8  C   UNL     1       1.488   3.928  17.707  0.00  0.00    +0.000 C 
ATOM      9  C   UNL     1       0.928   3.188  18.900  0.00  0.00    +0.000 C 
ATOM     10  O   UNL     1       0.099   2.293  18.850  0.00  0.00    +0.000 OA
BRANCH   5  12
ATOM     11  C   UNL     1       2.510   2.328  21.830  0.00  0.00    +0.000 C 
ATOM     12  C   UNL     1       1.340   3.185  21.383  0.00  0.00    +0.000 C 
ENDBRANCH   5  12
ENDBRANCH   1   7
BRANCH   3  13
ATOM     13  C   UNL     1       5.338   4.802  16.274  0.00  0.00    +0.000 A 
ATOM     14  C   UNL     1       5.326   4.898  14.879  0.00  0.00    +0.000 A 
ATOM     15  C   UNL     1       6.521   5.019  14.194  0.00  0.00    +0.000 A 
ATOM     16  N   UNL     1       7.726   5.049  14.797  0.00  0.00    +0.000 NA
ATOM     17  C   UNL     1       7.727   4.992  16.148  0.00  0.00    +0.000 A 
ATOM     18  C   UNL     1       6.582   4.899  16.933  0.00  0.00    +0.000 A 
BRANCH  18  19
ATOM     19  C   UNL     1       6.689   4.886  18.417  0.00  0.00    +0.000 C 
ATOM     20  C   UNL     1       7.610   5.858  19.119  0.00  0.00    +0.000 C 
ATOM     21  O   UNL     1       5.996   4.098  19.063  0.00  0.00    +0.000 OA
ENDBRANCH  18  19
ENDBRANCH   3  13
TORSDOF 4
ENDMDL
MODEL 2
REMARK VINA RESULT:      -7.0      2.156      6.563
REMARK  Name = 
REMARK  6 active torsions:
REMARK  status: ('A' for Active; 'I' for Inactive)
REMARK    1  A    between atoms: C_1  and  C_2
REMARK    2  A    between atoms: C_2  and  N_3
REMARK    3  A    between atoms: C_5  and  C_6
REMARK    4  A    between atoms: N_8  and  C_9
REMARK    5  A    between atoms: C_14  and  C_15
REMARK    6  A    between atoms: C_15  and  C_16
REMARK                            x       y       z     vdW  Elec       q    Type
REMARK                         _______ _______ _______ _____ _____    ______ ____
ROOT
ATOM      1  C   UNL     1       4.862   5.040  17.272  0.00  0.00    +0.000 C 
ATOM      2  O   UNL     1       5.684   4.842  18.165  0.00  0.00    +0.000 OA
ATOM      3  N   UNL     1       3.488   4.963  17.433  0.00  0.00    +0.000 N 
ATOM      4  H   UNL     1       2.910   4.843  16.594  0.00  0.00    +0.000 HD
ENDROOT
BRANCH   1   7
ATOM      5  N   UNL     1       6.215   4.276  13.990  0.00  0.00    +0.000 N 
ATOM      6  C   UNL     1       5.191   4.105  14.983  0.00  0.00    +0.000 C 
ATOM      7  C   UNL     1       5.312   5.350  15.858  0.00  0.00    +0.000 C 
ATOM      8  C   UNL     1       6.793   5.712  15.748  0.00  0.00    +0.000 C 
ATOM      9  C   UNL     1       7.188   5.173  14.392  0.00  0.00    +0.000 C 
ATOM     10  O   UNL     1       8.204   5.468  13.784  0.00  0.00    +0.000 OA
BRANCH   5  12
ATOM     11  C   UNL     1       4.909   3.466  12.084  0.00  0.00    +0.000 C 
ATOM     12  C   UNL     1       6.258   3.479  12.778  0.00  0.00    +0.000 C 
ENDBRANCH   5  12
ENDBRANCH   1   7
BRANCH   3  13
ATOM     13  C   UNL     1       2.817   4.699  18.664  0.00  0.00    +0.000 A 
ATOM     14  C   UNL     1       2.427   5.740  19.513  0.00  0.00    +0.000 A 
ATOM     15  C   UNL     1       1.831   5.445  20.725  0.00  0.00    +0.000 A 
ATOM     16  N   UNL     1       1.597   4.188  21.153  0.00  0.00    +0.000 NA
ATOM     17  C   UNL     1       1.944   3.189  20.312  0.00  0.00    +0.000 A 
ATOM     18  C   UNL     1       2.521   3.377  19.061  0.00  0.00    +0.000 A 
BRANCH  18  19
ATOM     19  C   UNL     1       2.827   2.210  18.191  0.00  0.00    +0.000 C 
ATOM     20  C   UNL     1       3.825   1.168  18.644  0.00  0.00    +0.000 C 
ATOM     21  O   UNL     1       2.235   2.087  17.117  0.00  0.00    +0.000 OA
ENDBRANCH  18  19
ENDBRANCH   3  13
TORSDOF 4
ENDMDL
MODEL 3
REMARK VINA RESULT:      -6.8      1.983      6.601
REMARK  Name = 
REMARK  6 active torsions:
REMARK  status: ('A' for Active; 'I' for Inactive)
REMARK    1  A    between atoms: C_1  and  C_2
REMARK    2  A    between atoms: C_2  and  N_3
REMARK    3  A    between atoms: C_5  and  C_6
REMARK    4  A    between atoms: N_8  and  C_9
REMARK    5  A    between atoms: C_14  and  C_15
REMARK    6  A    between atoms: C_15  and  C_16
REMARK                            x       y       z     vdW  Elec       q    Type
REMARK                         _______ _______ _______ _____ _____    ______ ____
ROOT
ATOM      1  C   UNL     1       4.763   4.545  17.186  0.00  0.00    +0.000 C 
ATOM      2  O   UNL     1       5.543   4.317  18.110  0.00  0.00    +0.000 OA
ATOM      3  N   UNL     1       3.395   4.332  17.237  0.00  0.00    +0.000 N 
ATOM      4  H   UNL     1       2.884   4.260  16.350  0.00  0.00    +0.000 HD
ENDROOT
BRANCH   1   7
ATOM      5  N   UNL     1       6.306   4.266  13.911  0.00  0.00    +0.000 N 
ATOM      6  C   UNL     1       5.241   3.932  14.816  0.00  0.00    +0.000 C 
ATOM      7  C   UNL     1       5.270   5.054  15.851  0.00  0.00    +0.000 C 
ATOM      8  C   UNL     1       6.738   5.475  15.869  0.00  0.00    +0.000 C 
ATOM      9  C   UNL     1       7.221   5.134  14.478  0.00  0.00    +0.000 C 
ATOM     10  O   UNL     1       8.254   5.540  13.970  0.00  0.00    +0.000 OA
BRANCH   5  12
ATOM     11  C   UNL     1       5.087   3.234  12.055  0.00  0.00    +0.000 C 
ATOM     12  C   UNL     1       6.440   3.638  12.610  0.00  0.00    +0.000 C 
ENDBRANCH   5  12
ENDBRANCH   1   7
BRANCH   3  13
ATOM     13  C   UNL     1       2.676   3.871  18.380  0.00  0.00    +0.000 A 
ATOM     14  C   UNL     1       2.581   2.506  18.672  0.00  0.00    +0.000 A 
ATOM     15  C   UNL     1       1.828   2.092  19.755  0.00  0.00    +0.000 A 
ATOM     16  N   UNL     1       1.162   2.937  20.567  0.00  0.00    +0.000 NA
ATOM     17  C   UNL     1       1.287   4.256  20.299  0.00  0.00    +0.000 A 
ATOM     18  C   UNL     1       2.042   4.780  19.255  0.00  0.00    +0.000 A 
BRANCH  18  19
ATOM     19  C   UNL     1       2.151   6.252  19.072  0.00  0.00    +0.000 C 
ATOM     20  C   UNL     1       2.117   7.169  20.273  0.00  0.00    +0.000 C 
ATOM     21  O   UNL     1       2.300   6.708  17.937  0.00  0.00    +0.000 OA
ENDBRANCH  18  19
ENDBRANCH   3  13
TORSDOF 4
ENDMDL
MODEL 4
REMARK VINA RESULT:      -6.6      2.065      6.516
REMARK  Name = 
REMARK  6 active torsions:
REMARK  status: ('A' for Active; 'I' for Inactive)
REMARK    1  A    between atoms: C_1  and  C_2
REMARK    2  A    between atoms: C_2  and  N_3
REMARK    3  A    between atoms: C_5  and  C_6
REMARK    4  A    between atoms: N_8  and  C_9
REMARK    5  A    between atoms: C_14  and  C_15
REMARK    6  A    between atoms: C_15  and  C_16
REMARK                            x       y       z     vdW  Elec       q    Type
REMARK                         _______ _______ _______ _____ _____    ______ ____
ROOT
ATOM      1  C   UNL     1       5.259   4.815  17.731  0.00  0.00    +0.000 C 
ATOM      2  O   UNL     1       6.111   5.072  18.581  0.00  0.00    +0.000 OA
ATOM      3  N   UNL     1       4.059   4.171  17.987  0.00  0.00    +0.000 N 
ATOM      4  H   UNL     1       3.567   3.738  17.198  0.00  0.00    +0.000 HD
ENDROOT
BRANCH   1   7
ATOM      5  N   UNL     1       6.245   4.160  14.299  0.00  0.00    +0.000 N 
ATOM      6  C   UNL     1       5.379   3.898  15.415  0.00  0.00    +0.000 C 
ATOM      7  C   UNL     1       5.491   5.156  16.273  0.00  0.00    +0.000 C 
ATOM      8  C   UNL     1       6.902   5.658  15.974  0.00  0.00    +0.000 C 
ATOM      9  C   UNL     1       7.170   5.150  14.576  0.00  0.00    +0.000 C 
ATOM     10  O   UNL     1       8.065   5.538  13.844  0.00  0.00    +0.000 OA
BRANCH   5  12
ATOM     11  C   UNL     1       4.932   3.611  12.306  0.00  0.00    +0.000 C 
ATOM     12  C   UNL     1       6.209   3.362  13.088  0.00  0.00    +0.000 C 
ENDBRANCH   5  12
ENDBRANCH   1   7
BRANCH   3  13
ATOM     13  C   UNL     1       3.603   3.760  19.275  0.00  0.00    +0.000 A 
ATOM     14  C   UNL     1       4.085   2.590  19.872  0.00  0.00    +0.000 A 
ATOM     15  C   UNL     1       3.579   2.192  21.096  0.00  0.00    +0.000 A 
ATOM     16  N   UNL     1       2.627   2.871  21.766  0.00  0.00    +0.000 NA
ATOM     17  C   UNL     1       2.192   4.019  21.199  0.00  0.00    +0.000 A 
ATOM     18  C   UNL     1       2.656   4.525  19.988  0.00  0.00    +0.000 A 
BRANCH  18  19
ATOM     19  C   UNL     1       2.143   5.822  19.471  0.00  0.00    +0.000 C 
ATOM     20  C   UNL     1       1.946   6.988  20.412  0.00  0.00    +0.000 C 
ATOM     21  O   UNL     1       1.912   5.940  18.267  0.00  0.00    +0.000 OA
ENDBRANCH  18  19
ENDBRANCH   3  13
TORSDOF 4
ENDMDL
MODEL 5
REMARK VINA RESULT:      -6.5      2.728      3.754
REMARK  Name = 
REMARK  6 active torsions:
REMARK  status: ('A' for Active; 'I' for Inactive)
REMARK    1  A    between atoms: C_1  and  C_2
REMARK    2  A    between atoms: C_2  and  N_3
REMARK    3  A    between atoms: C_5  and  C_6
REMARK    4  A    between atoms: N_8  and  C_9
REMARK    5  A    between atoms: C_14  and  C_15
REMARK    6  A    between atoms: C_15  and  C_16
REMARK                            x       y       z     vdW  Elec       q    Type
REMARK                         _______ _______ _______ _____ _____    ______ ____
ROOT
ATOM      1  C   UNL     1       3.076   5.665  17.797  0.00  0.00    +0.000 C 
ATOM      2  O   UNL     1       2.892   4.460  17.636  0.00  0.00    +0.000 OA
ATOM      3  N   UNL     1       4.226   6.345  17.428  0.00  0.00    +0.000 N 
ATOM      4  H   UNL     1       4.410   7.254  17.866  0.00  0.00    +0.000 HD
ENDROOT
BRANCH   1   7
ATOM      5  N   UNL     1       1.651   8.753  19.072  0.00  0.00    +0.000 N 
ATOM      6  C   UNL     1       2.107   7.958  17.965  0.00  0.00    +0.000 C 
ATOM      7  C   UNL     1       2.032   6.523  18.483  0.00  0.00    +0.000 C 
ATOM      8  C   UNL     1       2.256   6.683  19.986  0.00  0.00    +0.000 C 
ATOM      9  C   UNL     1       1.743   8.075  20.274  0.00  0.00    +0.000 C 
ATOM     10  O   UNL     1       1.486   8.518  21.382  0.00  0.00    +0.000 OA
BRANCH   5  12
ATOM     11  C   UNL     1      -0.181  10.276  18.510  0.00  0.00    +0.000 C 
ATOM     12  C   UNL     1       1.274  10.145  18.920  0.00  0.00    +0.000 C 
ENDBRANCH   5  12
ENDBRANCH   1   7
BRANCH   3  13
ATOM     13  C   UNL     1       5.345   5.766  16.758  0.00  0.00    +0.000 A 
ATOM     14  C   UNL     1       5.372   5.651  15.364  0.00  0.00    +0.000 A 
ATOM     15  C   UNL     1       6.447   5.033  14.752  0.00  0.00    +0.000 A 
ATOM     16  N   UNL     1       7.494   4.520  15.427  0.00  0.00    +0.000 NA
ATOM     17  C   UNL     1       7.477   4.667  16.771  0.00  0.00    +0.000 A 
ATOM     18  C   UNL     1       6.461   5.297  17.482  0.00  0.00    +0.000 A 
BRANCH  18  19
ATOM     19  C   UNL     1       6.559   5.446  18.959  0.00  0.00    +0.000 C 
ATOM     20  C   UNL     1       7.870   5.850  19.595  0.00  0.00    +0.000 C 
ATOM     21  O   UNL     1       5.555   5.267  19.650  0.00  0.00    +0.000 OA
ENDBRANCH  18  19
ENDBRANCH   3  13
TORSDOF 4
ENDMDL
MODEL 6
REMARK VINA RESULT:      -6.4      2.129      6.321
REMARK  Name = 
REMARK  6 active torsions:
REMARK  status: ('A' for Active; 'I' for Inactive)
REMARK    1  A    between atoms: C_1  and  C_2
REMARK    2  A    between atoms: C_2  and  N_3
REMARK    3  A    between atoms: C_5  and  C_6
REMARK    4  A    between atoms: N_8  and  C_9
REMARK    5  A    between atoms: C_14  and  C_15
REMARK    6  A    between atoms: C_15  and  C_16
REMARK                            x       y       z     vdW  Elec       q    Type
REMARK                         _______ _______ _______ _____ _____    ______ ____
ROOT
ATOM      1  C   UNL     1       4.394   5.248  17.759  0.00  0.00    +0.000 C 
ATOM      2  O   UNL     1       4.917   5.786  18.733  0.00  0.00    +0.000 OA
ATOM      3  N   UNL     1       3.318   4.376  17.822  0.00  0.00    +0.000 N 
ATOM      4  H   UNL     1       3.152   3.756  17.022  0.00  0.00    +0.000 HD
ENDROOT
BRANCH   1   7
ATOM      5  N   UNL     1       5.994   4.293  14.642  0.00  0.00    +0.000 N 
ATOM      6  C   UNL     1       4.903   4.167  15.569  0.00  0.00    +0.000 C 
ATOM      7  C   UNL     1       4.940   5.472  16.363  0.00  0.00    +0.000 C 
ATOM      8  C   UNL     1       6.418   5.857  16.333  0.00  0.00    +0.000 C 
ATOM      9  C   UNL     1       6.919   5.237  15.049  0.00  0.00    +0.000 C 
ATOM     10  O   UNL     1       7.971   5.513  14.497  0.00  0.00    +0.000 OA
BRANCH   5  12
ATOM     11  C   UNL     1       5.027   3.647  12.488  0.00  0.00    +0.000 C 
ATOM     12  C   UNL     1       6.138   3.418  13.495  0.00  0.00    +0.000 C 
ENDBRANCH   5  12
ENDBRANCH   1   7
BRANCH   3  13
ATOM     13  C   UNL     1       2.621   4.014  19.014  0.00  0.00    +0.000 A 
ATOM     14  C   UNL     1       1.498   4.730  19.440  0.00  0.00    +0.000 A 
ATOM     15  C   UNL     1       0.882   4.387  20.629  0.00  0.00    +0.000 A 
ATOM     16  N   UNL     1       1.304   3.385  21.425  0.00  0.00    +0.000 NA
ATOM     17  C   UNL     1       2.368   2.675  20.989  0.00  0.00    +0.000 A 
ATOM     18  C   UNL     1       3.042   2.917  19.795  0.00  0.00    +0.000 A 
BRANCH  18  19
ATOM     19  C   UNL     1       4.177   2.048  19.384  0.00  0.00    +0.000 C 
ATOM     20  C   UNL     1       4.047   1.155  18.171  0.00  0.00    +0.000 C 
ATOM     21  O   UNL     1       5.229   2.089  20.024  0.00  0.00    +0.000 OA
ENDBRANCH  18  19
ENDBRANCH   3  13
TORSDOF 4
ENDMDL
MODEL 7
REMARK VINA RESULT:      -6.4      1.709      2.295
REMARK  Name = 
REMARK  6 active torsions:
REMARK  status: ('A' for Active; 'I' for Inactive)
REMARK    1  A    between atoms: C_1  and  C_2
REMARK    2  A    between atoms: C_2  and  N_3
REMARK    3  A    between atoms: C_5  and  C_6
REMARK    4  A    between atoms: N_8  and  C_9
REMARK    5  A    between atoms: C_14  and  C_15
REMARK    6  A    between atoms: C_15  and  C_16
REMARK                            x       y       z     vdW  Elec       q    Type
REMARK                         _______ _______ _______ _____ _____    ______ ____
ROOT
ATOM      1  C   UNL     1       3.782   3.319  17.686  0.00  0.00    +0.000 C 
ATOM      2  O   UNL     1       4.160   2.198  17.351  0.00  0.00    +0.000 OA
ATOM      3  N   UNL     1       4.333   4.507  17.231  0.00  0.00    +0.000 N 
ATOM      4  H   UNL     1       4.167   5.357  17.779  0.00  0.00    +0.000 HD
ENDROOT
BRANCH   1   7
ATOM      5  N   UNL     1       2.024   4.933  20.423  0.00  0.00    +0.000 N 
ATOM      6  C   UNL     1       2.525   4.964  19.077  0.00  0.00    +0.000 C 
ATOM      7  C   UNL     1       2.669   3.492  18.700  0.00  0.00    +0.000 C 
ATOM      8  C   UNL     1       2.947   2.814  20.041  0.00  0.00    +0.000 C 
ATOM      9  C   UNL     1       2.267   3.720  21.042  0.00  0.00    +0.000 C 
ATOM     10  O   UNL     1       2.011   3.427  22.199  0.00  0.00    +0.000 OA
BRANCH   5  12
ATOM     11  C   UNL     1       1.832   7.371  20.322  0.00  0.00    +0.000 C 
ATOM     12  C   UNL     1       1.456   6.103  21.065  0.00  0.00    +0.000 C 
ENDBRANCH   5  12
ENDBRANCH   1   7
BRANCH   3  13
ATOM     13  C   UNL     1       5.380   4.612  16.267  0.00  0.00    +0.000 A 
ATOM     14  C   UNL     1       5.140   4.370  14.910  0.00  0.00    +0.000 A 
ATOM     15  C   UNL     1       6.190   4.425  14.012  0.00  0.00    +0.000 A 
ATOM     16  N   UNL     1       7.461   4.701  14.368  0.00  0.00    +0.000 NA
ATOM     17  C   UNL     1       7.678   4.968  15.675  0.00  0.00    +0.000 A 
ATOM     18  C   UNL     1       6.689   4.969  16.654  0.00  0.00    +0.000 A 
BRANCH  18  19
ATOM     19  C   UNL     1       7.025   5.320  18.059  0.00  0.00    +0.000 C 
ATOM     20  C   UNL     1       7.714   6.630  18.370  0.00  0.00    +0.000 C 
ATOM     21  O   UNL     1       6.707   4.548  18.965  0.00  0.00    +0.000 OA
ENDBRANCH  18  19
ENDBRANCH   3  13
TORSDOF 4
ENDMDL
MODEL 8
REMARK VINA RESULT:      -6.3      1.961      6.349
REMARK  Name = 
REMARK  6 active torsions:
REMARK  status: ('A' for Active; 'I' for Inactive)
REMARK    1  A    between atoms: C_1  and  C_2
REMARK    2  A    between atoms: C_2  and  N_3
REMARK    3  A    between atoms: C_5  and  C_6
REMARK    4  A    between atoms: N_8  and  C_9
REMARK    5  A    between atoms: C_14  and  C_15
REMARK    6  A    between atoms: C_15  and  C_16
REMARK                            x       y       z     vdW  Elec       q    Type
REMARK                         _______ _______ _______ _____ _____    ______ ____
ROOT
ATOM      1  C   UNL     1       3.350   5.699  17.895  0.00  0.00    +0.000 C 
ATOM      2  O   UNL     1       2.203   6.143  17.890  0.00  0.00    +0.000 OA
ATOM      3  N   UNL     1       3.818   4.729  18.767  0.00  0.00    +0.000 N 
ATOM      4  H   UNL     1       4.831   4.646  18.898  0.00  0.00    +0.000 HD
ENDROOT
BRANCH   1   7
ATOM      5  N   UNL     1       6.273   5.518  15.747  0.00  0.00    +0.000 N 
ATOM      6  C   UNL     1       4.931   5.109  16.058  0.00  0.00    +0.000 C 
ATOM      7  C   UNL     1       4.393   6.236  16.936  0.00  0.00    +0.000 C 
ATOM      8  C   UNL     1       5.648   6.770  17.626  0.00  0.00    +0.000 C 
ATOM      9  C   UNL     1       6.752   6.457  16.642  0.00  0.00    +0.000 C 
ATOM     10  O   UNL     1       7.873   6.939  16.663  0.00  0.00    +0.000 OA
BRANCH   5  12
ATOM     11  C   UNL     1       6.199   3.921  13.893  0.00  0.00    +0.000 C 
ATOM     12  C   UNL     1       7.047   4.894  14.691  0.00  0.00    +0.000 C 
ENDBRANCH   5  12
ENDBRANCH   1   7
BRANCH   3  13
ATOM     13  C   UNL     1       3.031   4.059  19.752  0.00  0.00    +0.000 A 
ATOM     14  C   UNL     1       2.683   4.691  20.951  0.00  0.00    +0.000 A 
ATOM     15  C   UNL     1       1.969   3.993  21.907  0.00  0.00    +0.000 A 
ATOM     16  N   UNL     1       1.579   2.711  21.757  0.00  0.00    +0.000 NA
ATOM     17  C   UNL     1       1.888   2.119  20.582  0.00  0.00    +0.000 A 
ATOM     18  C   UNL     1       2.576   2.740  19.543  0.00  0.00    +0.000 A 
BRANCH  18  19
ATOM     19  C   UNL     1       2.829   2.014  18.270  0.00  0.00    +0.000 C 
ATOM     20  C   UNL     1       3.947   1.000  18.186  0.00  0.00    +0.000 C 
ATOM     21  O   UNL     1       2.099   2.226  17.301  0.00  0.00    +0.000 OA
ENDBRANCH  18  19
ENDBRANCH   3  13
TORSDOF 4
ENDMDL
MODEL 9
REMARK VINA RESULT:      -6.3      2.054      6.478
REMARK  Name = 
REMARK  6 active torsions:
REMARK  status: ('A' for Active; 'I' for Inactive)
REMARK    1  A    between atoms: C_1  and  C_2
REMARK    2  A    between atoms: C_2  and  N_3
REMARK    3  A    between atoms: C_5  and  C_6
REMARK    4  A    between atoms: N_8  and  C_9
REMARK    5  A    between atoms: C_14  and  C_15
REMARK    6  A    between atoms: C_15  and  C_16
REMARK                            x       y       z     vdW  Elec       q    Type
REMARK                         _______ _______ _______ _____ _____    ______ ____
ROOT
ATOM      1  C   UNL     1       4.856   3.727  18.080  0.00  0.00    +0.000 C 
ATOM      2  O   UNL     1       4.193   2.946  17.398  0.00  0.00    +0.000 OA
ATOM      3  N   UNL     1       4.469   4.219  19.316  0.00  0.00    +0.000 N 
ATOM      4  H   UNL     1       4.923   5.073  19.658  0.00  0.00    +0.000 HD
ENDROOT
BRANCH   1   7
ATOM      5  N   UNL     1       7.137   6.272  16.853  0.00  0.00    +0.000 N 
ATOM      6  C   UNL     1       6.298   5.753  17.898  0.00  0.00    +0.000 C 
ATOM      7  C   UNL     1       6.179   4.266  17.574  0.00  0.00    +0.000 C 
ATOM      8  C   UNL     1       6.320   4.227  16.054  0.00  0.00    +0.000 C 
ATOM      9  C   UNL     1       7.164   5.443  15.746  0.00  0.00    +0.000 C 
ATOM     10  O   UNL     1       7.739   5.654  14.691  0.00  0.00    +0.000 OA
BRANCH   5  12
ATOM     11  C   UNL     1       8.201   7.885  18.356  0.00  0.00    +0.000 C 
ATOM     12  C   UNL     1       7.758   7.580  16.937  0.00  0.00    +0.000 C 
ENDBRANCH   5  12
ENDBRANCH   1   7
BRANCH   3  13
ATOM     13  C   UNL     1       3.276   3.856  20.010  0.00  0.00    +0.000 A 
ATOM     14  C   UNL     1       3.188   2.651  20.714  0.00  0.00    +0.000 A 
ATOM     15  C   UNL     1       1.998   2.306  21.327  0.00  0.00    +0.000 A 
ATOM     16  N   UNL     1       0.889   3.072  21.288  0.00  0.00    +0.000 NA
ATOM     17  C   UNL     1       0.993   4.251  20.635  0.00  0.00    +0.000 A 
ATOM     18  C   UNL     1       2.150   4.707  20.011  0.00  0.00    +0.000 A 
BRANCH  18  19
ATOM     19  C   UNL     1       2.174   6.043  19.357  0.00  0.00    +0.000 C 
ATOM     20  C   UNL     1       1.928   7.291  20.173  0.00  0.00    +0.000 C 
ATOM     21  O   UNL     1       2.426   6.119  18.153  0.00  0.00    +0.000 OA
ENDBRANCH  18  19
ENDBRANCH   3  13
TORSDOF 4
ENDMDL
