MODEL 1
REMARK VINA RESULT:      -7.9      0.000      0.000
REMARK  Name = 
REMARK  9 active torsions:
REMARK  status: ('A' for Active; 'I' for Inactive)
REMARK    1  A    between atoms: C_1  and  C_2
REMARK    2  A    between atoms: N_4  and  C_5
REMARK    3  A    between atoms: C_5  and  C_6
REMARK    4  A    between atoms: C_5  and  C_26
REMARK    5  A    between atoms: C_6  and  C_7
REMARK    6  A    between atoms: C_7  and  N_8
REMARK    7  A    between atoms: C_13  and  C_15
REMARK    8  A    between atoms: C_16  and  C_17
REMARK    9  A    between atoms: C_21  and  C_22
REMARK                            x       y       z     vdW  Elec       q    Type
REMARK                         _______ _______ _______ _____ _____    ______ ____
ROOT
ATOM      1  N   UNL     1       0.717   9.017  19.162  0.00  0.00    +0.000 NA
ATOM      2  C   UNL     1       0.455   9.448  20.560  0.00  0.00    +0.000 C 
ATOM      3  C   UNL     1      -0.383  10.738  20.506  0.00  0.00    +0.000 C 
ATOM      4  C   UNL     1       0.075  11.898  21.409  0.00  0.00    +0.000 C 
ATOM      5  N   UNL     1       0.893  12.755  20.547  0.00  0.00    +0.000 N 
ATOM      6  C   UNL     1       1.434  13.948  21.000  0.00  0.00    +0.000 C 
ATOM      7  O   UNL     1       1.248  14.321  22.157  0.00  0.00    +0.000 OA
ATOM      8  C   UNL     1       1.195  12.036  19.336  0.00  0.00    +0.000 C 
ATOM      9  C   UNL     1      -0.090  11.245  19.103  0.00  0.00    +0.000 C 
ATOM     10  C   UNL     1       0.035   9.985  18.285  0.00  0.00    +0.000 C 
ENDROOT
BRANCH   6  11
ATOM     11  C   UNL     1       2.286  14.787  20.078  0.00  0.00    +0.000 A 
ATOM     12  C   UNL     1       1.734  15.584  19.040  0.00  0.00    +0.000 A 
ATOM     13  C   UNL     1       0.265  15.867  18.839  0.00  0.00    +0.000 C 
ATOM     14  C   UNL     1       2.594  16.237  18.134  0.00  0.00    +0.000 A 
ATOM     15  C   UNL     1       3.971  16.213  18.308  0.00  0.00    +0.000 A 
ATOM     16  C   UNL     1       4.512  15.540  19.395  0.00  0.00    +0.000 A 
ATOM     17  C   UNL     1       3.693  14.819  20.284  0.00  0.00    +0.000 A 
ATOM     18  C   UNL     1       4.378  14.139  21.444  0.00  0.00    +0.000 C 
ENDBRANCH   6  11
BRANCH   1  19
ATOM     19  C   UNL     1       2.130   8.918  18.761  0.00  0.00    +0.000 C 
BRANCH  19  20
ATOM     20  C   UNL     1       2.533   7.772  17.830  0.00  0.00    +0.000 C 
BRANCH  20  21
ATOM     21  C   UNL     1       3.313   6.662  18.582  0.00  0.00    +0.000 C 
BRANCH  21  22
ATOM     22  C   UNL     1       2.419   5.490  18.973  0.00  0.00    +0.000 A 
ATOM     23  C   UNL     1       2.046   4.559  17.986  0.00  0.00    +0.000 A 
ATOM     24  C   UNL     1       1.268   3.448  18.309  0.00  0.00    +0.000 A 
ATOM     25  C   UNL     1       0.848   3.245  19.620  0.00  0.00    +0.000 A 
ATOM     26  C   UNL     1       1.210   4.151  20.614  0.00  0.00    +0.000 A 
ATOM     27  C   UNL     1       1.992   5.261  20.293  0.00  0.00    +0.000 A 
ENDBRANCH  21  22
BRANCH  21  31
ATOM     28  C   UNL     1       6.590   5.152  17.374  0.00  0.00    +0.000 C 
ATOM     29  C   UNL     1       5.584   5.634  18.382  0.00  0.00    +0.000 C 
ATOM     30  O   UNL     1       5.738   5.486  19.589  0.00  0.00    +0.000 OA
ATOM     31  N   UNL     1       4.479   6.224  17.814  0.00  0.00    +0.000 N 
ATOM     32  H   UNL     1       4.422   6.224  16.807  0.00  0.00    +0.000 HD
ENDBRANCH  21  31
ENDBRANCH  20  21
ENDBRANCH  19  20
ENDBRANCH   1  19
TORSDOF 6
ENDMDL
MODEL 2
REMARK VINA RESULT:      -7.7      0.436      1.625
REMARK  Name = 
REMARK  9 active torsions:
REMARK  status: ('A' for Active; 'I' for Inactive)
REMARK    1  A    between atoms: C_1  and  C_2
REMARK    2  A    between atoms: N_4  and  C_5
REMARK    3  A    between atoms: C_5  and  C_6
REMARK    4  A    between atoms: C_5  and  C_26
REMARK    5  A    between atoms: C_6  and  C_7
REMARK    6  A    between atoms: C_7  and  N_8
REMARK    7  A    between atoms: C_13  and  C_15
REMARK    8  A    between atoms: C_16  and  C_17
REMARK    9  A    between atoms: C_21  and  C_22
REMARK                            x       y       z     vdW  Elec       q    Type
REMARK                         _______ _______ _______ _____ _____    ______ ____
ROOT
ATOM      1  N   UNL     1       0.710   9.090  19.107  0.00  0.00    +0.000 NA
ATOM      2  C   UNL     1       0.467   9.453  20.527  0.00  0.00    +0.000 C 
ATOM      3  C   UNL     1      -0.458  10.684  20.548  0.00  0.00    +0.000 C 
ATOM      4  C   UNL     1      -0.049  11.839  21.479  0.00  0.00    +0.000 C 
ATOM      5  N   UNL     1       0.680  12.780  20.625  0.00  0.00    +0.000 N 
ATOM      6  C   UNL     1       1.155  13.991  21.104  0.00  0.00    +0.000 C 
ATOM      7  O   UNL     1       0.982  14.309  22.280  0.00  0.00    +0.000 OA
ATOM      8  C   UNL     1       0.988  12.127  19.378  0.00  0.00    +0.000 C 
ATOM      9  C   UNL     1      -0.247  11.258  19.157  0.00  0.00    +0.000 C 
ATOM     10  C   UNL     1      -0.065  10.039  18.288  0.00  0.00    +0.000 C 
ENDROOT
BRANCH   6  11
ATOM     11  C   UNL     1       1.915  14.918  20.188  0.00  0.00    +0.000 A 
ATOM     12  C   UNL     1       3.329  15.051  20.233  0.00  0.00    +0.000 A 
ATOM     13  C   UNL     1       4.267  14.172  21.025  0.00  0.00    +0.000 C 
ATOM     14  C   UNL     1       3.960  16.031  19.441  0.00  0.00    +0.000 A 
ATOM     15  C   UNL     1       3.240  16.789  18.529  0.00  0.00    +0.000 A 
ATOM     16  C   UNL     1       1.876  16.576  18.387  0.00  0.00    +0.000 A 
ATOM     17  C   UNL     1       1.195  15.655  19.206  0.00  0.00    +0.000 A 
ATOM     18  C   UNL     1      -0.284  15.484  18.959  0.00  0.00    +0.000 C 
ENDBRANCH   6  11
BRANCH   1  19
ATOM     19  C   UNL     1       2.112   9.103  18.658  0.00  0.00    +0.000 C 
BRANCH  19  20
ATOM     20  C   UNL     1       2.552   8.038  17.650  0.00  0.00    +0.000 C 
BRANCH  20  21
ATOM     21  C   UNL     1       3.373   6.907  18.324  0.00  0.00    +0.000 C 
BRANCH  21  22
ATOM     22  C   UNL     1       2.489   5.764  18.813  0.00  0.00    +0.000 A 
ATOM     23  C   UNL     1       2.072   4.785  17.894  0.00  0.00    +0.000 A 
ATOM     24  C   UNL     1       1.301   3.698  18.307  0.00  0.00    +0.000 A 
ATOM     25  C   UNL     1       0.934   3.569  19.643  0.00  0.00    +0.000 A 
ATOM     26  C   UNL     1       1.340   4.525  20.572  0.00  0.00    +0.000 A 
ATOM     27  C   UNL     1       2.114   5.610  20.160  0.00  0.00    +0.000 A 
ENDBRANCH  21  22
BRANCH  21  31
ATOM     28  C   UNL     1       6.448   5.276  16.788  0.00  0.00    +0.000 C 
ATOM     29  C   UNL     1       5.566   5.785  17.893  0.00  0.00    +0.000 C 
ATOM     30  O   UNL     1       5.829   5.613  19.079  0.00  0.00    +0.000 OA
ATOM     31  N   UNL     1       4.438   6.431  17.442  0.00  0.00    +0.000 N 
ATOM     32  H   UNL     1       4.285   6.449  16.445  0.00  0.00    +0.000 HD
ENDBRANCH  21  31
ENDBRANCH  20  21
ENDBRANCH  19  20
ENDBRANCH   1  19
TORSDOF 6
ENDMDL
MODEL 3
REMARK VINA RESULT:      -7.5      1.151      2.848
REMARK  Name = 
REMARK  9 active torsions:
REMARK  status: ('A' for Active; 'I' for Inactive)
REMARK    1  A    between atoms: C_1  and  C_2
REMARK    2  A    between atoms: N_4  and  C_5
REMARK    3  A    between atoms: C_5  and  C_6
REMARK    4  A    between atoms: C_5  and  C_26
REMARK    5  A    between atoms: C_6  and  C_7
REMARK    6  A    between atoms: C_7  and  N_8
REMARK    7  A    between atoms: C_13  and  C_15
REMARK    8  A    between atoms: C_16  and  C_17
REMARK    9  A    between atoms: C_21  and  C_22
REMARK                            x       y       z     vdW  Elec       q    Type
REMARK                         _______ _______ _______ _____ _____    ______ ____
ROOT
ATOM      1  N   UNL     1       0.952   8.802  19.169  0.00  0.00    +0.000 NA
ATOM      2  C   UNL     1       0.606   9.238  20.547  0.00  0.00    +0.000 C 
ATOM      3  C   UNL     1      -0.271  10.498  20.438  0.00  0.00    +0.000 C 
ATOM      4  C   UNL     1       0.103  11.681  21.349  0.00  0.00    +0.000 C 
ATOM      5  N   UNL     1       0.934  12.557  20.520  0.00  0.00    +0.000 N 
ATOM      6  C   UNL     1       1.412  13.772  20.985  0.00  0.00    +0.000 C 
ATOM      7  O   UNL     1       1.155  14.149  22.128  0.00  0.00    +0.000 OA
ATOM      8  C   UNL     1       1.319  11.838  19.332  0.00  0.00    +0.000 C 
ATOM      9  C   UNL     1       0.075  11.001  19.045  0.00  0.00    +0.000 C 
ATOM     10  C   UNL     1       0.283   9.739  18.248  0.00  0.00    +0.000 C 
ENDROOT
BRANCH   6  11
ATOM     11  C   UNL     1       2.279  14.631  20.097  0.00  0.00    +0.000 A 
ATOM     12  C   UNL     1       1.751  15.412  19.034  0.00  0.00    +0.000 A 
ATOM     13  C   UNL     1       0.285  15.657  18.771  0.00  0.00    +0.000 C 
ATOM     14  C   UNL     1       2.631  16.084  18.164  0.00  0.00    +0.000 A 
ATOM     15  C   UNL     1       3.999  16.097  18.394  0.00  0.00    +0.000 A 
ATOM     16  C   UNL     1       4.512  15.440  19.505  0.00  0.00    +0.000 A 
ATOM     17  C   UNL     1       3.675  14.700  20.361  0.00  0.00    +0.000 A 
ATOM     18  C   UNL     1       4.328  14.040  21.551  0.00  0.00    +0.000 C 
ENDBRANCH   6  11
BRANCH   1  19
ATOM     19  C   UNL     1       2.386   8.748  18.839  0.00  0.00    +0.000 C 
BRANCH  19  20
ATOM     20  C   UNL     1       2.806   7.961  17.595  0.00  0.00    +0.000 C 
BRANCH  20  21
ATOM     21  C   UNL     1       3.180   6.495  17.937  0.00  0.00    +0.000 C 
BRANCH  21  22
ATOM     22  C   UNL     1       4.688   6.297  18.062  0.00  0.00    +0.000 A 
ATOM     23  C   UNL     1       5.540   6.975  17.172  0.00  0.00    +0.000 A 
ATOM     24  C   UNL     1       6.926   6.859  17.280  0.00  0.00    +0.000 A 
ATOM     25  C   UNL     1       7.485   6.066  18.278  0.00  0.00    +0.000 A 
ATOM     26  C   UNL     1       6.660   5.389  19.173  0.00  0.00    +0.000 A 
ATOM     27  C   UNL     1       5.274   5.508  19.068  0.00  0.00    +0.000 A 
ENDBRANCH  21  22
BRANCH  21  31
ATOM     28  C   UNL     1       1.281   4.518  20.575  0.00  0.00    +0.000 C 
ATOM     29  C   UNL     1       1.821   4.824  19.206  0.00  0.00    +0.000 C 
ATOM     30  O   UNL     1       1.705   4.047  18.264  0.00  0.00    +0.000 OA
ATOM     31  N   UNL     1       2.470   6.034  19.130  0.00  0.00    +0.000 N 
ATOM     32  H   UNL     1       2.572   6.557  19.986  0.00  0.00    +0.000 HD
ENDBRANCH  21  31
ENDBRANCH  20  21
ENDBRANCH  19  20
ENDBRANCH   1  19
TORSDOF 6
ENDMDL
MODEL 4
REMARK VINA RESULT:      -7.4      3.064      5.336
REMARK  Name = 
REMARK  9 active torsions:
REMARK  status: ('A' for Active; 'I' for Inactive)
REMARK    1  A    between atoms: C_1  and  C_2
REMARK    2  A    between atoms: N_4  and  C_5
REMARK    3  A    between atoms: C_5  and  C_6
REMARK    4  A    between atoms: C_5  and  C_26
REMARK    5  A    between atoms: C_6  and  C_7
REMARK    6  A    between atoms: C_7  and  N_8
REMARK    7  A    between atoms: C_13  and  C_15
REMARK    8  A    between atoms: C_16  and  C_17
REMARK    9  A    between atoms: C_21  and  C_22
REMARK                            x       y       z     vdW  Elec       q    Type
REMARK                         _______ _______ _______ _____ _____    ______ ____
ROOT
ATOM      1  N   UNL     1       1.332   8.644  21.855  0.00  0.00    +0.000 NA
ATOM      2  C   UNL     1       1.876   9.943  21.380  0.00  0.00    +0.000 C 
ATOM      3  C   UNL     1       0.897  11.050  21.811  0.00  0.00    +0.000 C 
ATOM      4  C   UNL     1       0.509  12.085  20.740  0.00  0.00    +0.000 C 
ATOM      5  N   UNL     1      -0.758  11.604  20.183  0.00  0.00    +0.000 N 
ATOM      6  C   UNL     1      -1.457  12.319  19.223  0.00  0.00    +0.000 C 
ATOM      7  O   UNL     1      -1.022  13.389  18.799  0.00  0.00    +0.000 OA
ATOM      8  C   UNL     1      -0.965  10.245  20.616  0.00  0.00    +0.000 C 
ATOM      9  C   UNL     1      -0.388  10.267  22.029  0.00  0.00    +0.000 C 
ATOM     10  C   UNL     1       0.086   8.947  22.582  0.00  0.00    +0.000 C 
ENDROOT
BRANCH   6  11
ATOM     11  C   UNL     1      -2.750  11.771  18.668  0.00  0.00    +0.000 A 
ATOM     12  C   UNL     1      -2.788  10.818  17.615  0.00  0.00    +0.000 A 
ATOM     13  C   UNL     1      -1.596  10.083  17.053  0.00  0.00    +0.000 C 
ATOM     14  C   UNL     1      -4.029  10.451  17.057  0.00  0.00    +0.000 A 
ATOM     15  C   UNL     1      -5.223  10.911  17.596  0.00  0.00    +0.000 A 
ATOM     16  C   UNL     1      -5.197  11.743  18.707  0.00  0.00    +0.000 A 
ATOM     17  C   UNL     1      -3.978  12.188  19.253  0.00  0.00    +0.000 A 
ATOM     18  C   UNL     1      -4.059  13.073  20.472  0.00  0.00    +0.000 C 
ENDBRANCH   6  11
BRANCH   1  19
ATOM     19  C   UNL     1       1.051   7.634  20.821  0.00  0.00    +0.000 C 
BRANCH  19  20
ATOM     20  C   UNL     1       2.096   7.423  19.722  0.00  0.00    +0.000 C 
BRANCH  20  21
ATOM     21  C   UNL     1       2.158   5.945  19.258  0.00  0.00    +0.000 C 
BRANCH  21  22
ATOM     22  C   UNL     1       3.181   5.729  18.147  0.00  0.00    +0.000 A 
ATOM     23  C   UNL     1       3.881   6.840  17.643  0.00  0.00    +0.000 A 
ATOM     24  C   UNL     1       4.858   6.682  16.659  0.00  0.00    +0.000 A 
ATOM     25  C   UNL     1       5.154   5.416  16.163  0.00  0.00    +0.000 A 
ATOM     26  C   UNL     1       4.476   4.302  16.653  0.00  0.00    +0.000 A 
ATOM     27  C   UNL     1       3.501   4.458  17.639  0.00  0.00    +0.000 A 
ENDBRANCH  21  22
BRANCH  21  31
ATOM     28  C   UNL     1       2.120   3.105  21.791  0.00  0.00    +0.000 C 
ATOM     29  C   UNL     1       1.606   3.945  20.655  0.00  0.00    +0.000 C 
ATOM     30  O   UNL     1       0.599   3.650  20.021  0.00  0.00    +0.000 OA
ATOM     31  N   UNL     1       2.387   5.046  20.390  0.00  0.00    +0.000 N 
ATOM     32  H   UNL     1       3.235   5.150  20.925  0.00  0.00    +0.000 HD
ENDBRANCH  21  31
ENDBRANCH  20  21
ENDBRANCH  19  20
ENDBRANCH   1  19
TORSDOF 6
ENDMDL
MODEL 5
REMARK VINA RESULT:      -7.3      1.207      2.775
REMARK  Name = 
REMARK  9 active torsions:
REMARK  status: ('A' for Active; 'I' for Inactive)
REMARK    1  A    between atoms: C_1  and  C_2
REMARK    2  A    between atoms: N_4  and  C_5
REMARK    3  A    between atoms: C_5  and  C_6
REMARK    4  A    between atoms: C_5  and  C_26
REMARK    5  A    between atoms: C_6  and  C_7
REMARK    6  A    between atoms: C_7  and  N_8
REMARK    7  A    between atoms: C_13  and  C_15
REMARK    8  A    between atoms: C_16  and  C_17
REMARK    9  A    between atoms: C_21  and  C_22
REMARK                            x       y       z     vdW  Elec       q    Type
REMARK                         _______ _______ _______ _____ _____    ______ ____
ROOT
ATOM      1  N   UNL     1       1.056   8.810  19.144  0.00  0.00    +0.000 NA
ATOM      2  C   UNL     1       0.700   9.225  20.526  0.00  0.00    +0.000 C 
ATOM      3  C   UNL     1      -0.214  10.459  20.428  0.00  0.00    +0.000 C 
ATOM      4  C   UNL     1       0.125  11.645  21.348  0.00  0.00    +0.000 C 
ATOM      5  N   UNL     1       0.928  12.552  20.524  0.00  0.00    +0.000 N 
ATOM      6  C   UNL     1       1.370  13.777  20.997  0.00  0.00    +0.000 C 
ATOM      7  O   UNL     1       1.105  14.138  22.143  0.00  0.00    +0.000 OA
ATOM      8  C   UNL     1       1.332  11.854  19.330  0.00  0.00    +0.000 C 
ATOM      9  C   UNL     1       0.113  10.983  19.039  0.00  0.00    +0.000 C 
ATOM     10  C   UNL     1       0.357   9.733  18.231  0.00  0.00    +0.000 C 
ENDROOT
BRANCH   6  11
ATOM     11  C   UNL     1       2.210  14.668  20.114  0.00  0.00    +0.000 A 
ATOM     12  C   UNL     1       1.654  15.454  19.069  0.00  0.00    +0.000 A 
ATOM     13  C   UNL     1       0.180  15.671  18.824  0.00  0.00    +0.000 C 
ATOM     14  C   UNL     1       2.511  16.159  18.201  0.00  0.00    +0.000 A 
ATOM     15  C   UNL     1       3.881  16.198  18.418  0.00  0.00    +0.000 A 
ATOM     16  C   UNL     1       4.418  15.535  19.513  0.00  0.00    +0.000 A 
ATOM     17  C   UNL     1       3.607  14.764  20.366  0.00  0.00    +0.000 A 
ATOM     18  C   UNL     1       4.286  14.100  21.539  0.00  0.00    +0.000 C 
ENDBRANCH   6  11
BRANCH   1  19
ATOM     19  C   UNL     1       2.490   8.802  18.811  0.00  0.00    +0.000 C 
BRANCH  19  20
ATOM     20  C   UNL     1       2.927   8.065  17.542  0.00  0.00    +0.000 C 
BRANCH  20  21
ATOM     21  C   UNL     1       3.093   6.542  17.785  0.00  0.00    +0.000 C 
BRANCH  21  22
ATOM     22  C   UNL     1       4.458   6.030  17.335  0.00  0.00    +0.000 A 
ATOM     23  C   UNL     1       4.557   4.732  16.804  0.00  0.00    +0.000 A 
ATOM     24  C   UNL     1       5.777   4.241  16.338  0.00  0.00    +0.000 A 
ATOM     25  C   UNL     1       6.918   5.036  16.393  0.00  0.00    +0.000 A 
ATOM     26  C   UNL     1       6.841   6.327  16.911  0.00  0.00    +0.000 A 
ATOM     27  C   UNL     1       5.621   6.821  17.373  0.00  0.00    +0.000 A 
ENDBRANCH  21  22
BRANCH  21  31
ATOM     28  C   UNL     1       2.065   4.873  21.046  0.00  0.00    +0.000 C 
ATOM     29  C   UNL     1       2.103   5.083  19.558  0.00  0.00    +0.000 C 
ATOM     30  O   UNL     1       1.564   4.313  18.770  0.00  0.00    +0.000 OA
ATOM     31  N   UNL     1       2.816   6.197  19.179  0.00  0.00    +0.000 N 
ATOM     32  H   UNL     1       3.281   6.716  19.908  0.00  0.00    +0.000 HD
ENDBRANCH  21  31
ENDBRANCH  20  21
ENDBRANCH  19  20
ENDBRANCH   1  19
TORSDOF 6
ENDMDL
MODEL 6
REMARK VINA RESULT:      -7.3      2.741      4.780
REMARK  Name = 
REMARK  9 active torsions:
REMARK  status: ('A' for Active; 'I' for Inactive)
REMARK    1  A    between atoms: C_1  and  C_2
REMARK    2  A    between atoms: N_4  and  C_5
REMARK    3  A    between atoms: C_5  and  C_6
REMARK    4  A    between atoms: C_5  and  C_26
REMARK    5  A    between atoms: C_6  and  C_7
REMARK    6  A    between atoms: C_7  and  N_8
REMARK    7  A    between atoms: C_13  and  C_15
REMARK    8  A    between atoms: C_16  and  C_17
REMARK    9  A    between atoms: C_21  and  C_22
REMARK                            x       y       z     vdW  Elec       q    Type
REMARK                         _______ _______ _______ _____ _____    ______ ____
ROOT
ATOM      1  N   UNL     1       1.376   8.799  21.872  0.00  0.00    +0.000 NA
ATOM      2  C   UNL     1       1.942  10.002  21.209  0.00  0.00    +0.000 C 
ATOM      3  C   UNL     1       1.055  11.205  21.577  0.00  0.00    +0.000 C 
ATOM      4  C   UNL     1       0.634  12.132  20.423  0.00  0.00    +0.000 C 
ATOM      5  N   UNL     1      -0.694  11.663  20.019  0.00  0.00    +0.000 N 
ATOM      6  C   UNL     1      -1.431  12.303  19.035  0.00  0.00    +0.000 C 
ATOM      7  O   UNL     1      -0.979  13.292  18.458  0.00  0.00    +0.000 OA
ATOM      8  C   UNL     1      -0.932  10.377  20.623  0.00  0.00    +0.000 C 
ATOM      9  C   UNL     1      -0.245  10.526  21.978  0.00  0.00    +0.000 C 
ATOM     10  C   UNL     1       0.206   9.252  22.646  0.00  0.00    +0.000 C 
ENDROOT
BRANCH   6  11
ATOM     11  C   UNL     1      -2.788  11.771  18.643  0.00  0.00    +0.000 A 
ATOM     12  C   UNL     1      -2.961  10.779  17.641  0.00  0.00    +0.000 A 
ATOM     13  C   UNL     1      -1.853   9.989  16.988  0.00  0.00    +0.000 C 
ATOM     14  C   UNL     1      -4.263  10.425  17.233  0.00  0.00    +0.000 A 
ATOM     15  C   UNL     1      -5.381  10.939  17.875  0.00  0.00    +0.000 A 
ATOM     16  C   UNL     1      -5.217  11.813  18.941  0.00  0.00    +0.000 A 
ATOM     17  C   UNL     1      -3.936  12.245  19.336  0.00  0.00    +0.000 A 
ATOM     18  C   UNL     1      -3.866  13.179  20.519  0.00  0.00    +0.000 C 
ENDBRANCH   6  11
BRANCH   1  19
ATOM     19  C   UNL     1       0.966   7.695  20.987  0.00  0.00    +0.000 C 
BRANCH  19  20
ATOM     20  C   UNL     1       1.585   7.631  19.589  0.00  0.00    +0.000 C 
BRANCH  20  21
ATOM     21  C   UNL     1       2.700   6.556  19.498  0.00  0.00    +0.000 C 
BRANCH  21  22
ATOM     22  C   UNL     1       2.183   5.158  19.822  0.00  0.00    +0.000 A 
ATOM     23  C   UNL     1       2.369   4.647  21.119  0.00  0.00    +0.000 A 
ATOM     24  C   UNL     1       1.872   3.392  21.472  0.00  0.00    +0.000 A 
ATOM     25  C   UNL     1       1.180   2.626  20.538  0.00  0.00    +0.000 A 
ATOM     26  C   UNL     1       0.980   3.115  19.249  0.00  0.00    +0.000 A 
ATOM     27  C   UNL     1       1.473   4.371  18.896  0.00  0.00    +0.000 A 
ENDBRANCH  21  22
BRANCH  21  31
ATOM     28  C   UNL     1       5.055   6.149  16.537  0.00  0.00    +0.000 C 
ATOM     29  C   UNL     1       4.637   6.111  17.980  0.00  0.00    +0.000 C 
ATOM     30  O   UNL     1       5.360   5.662  18.863  0.00  0.00    +0.000 OA
ATOM     31  N   UNL     1       3.370   6.599  18.198  0.00  0.00    +0.000 N 
ATOM     32  H   UNL     1       2.836   6.873  17.387  0.00  0.00    +0.000 HD
ENDBRANCH  21  31
ENDBRANCH  20  21
ENDBRANCH  19  20
ENDBRANCH   1  19
TORSDOF 6
ENDMDL
MODEL 7
REMARK VINA RESULT:      -7.2      3.911      6.394
REMARK  Name = 
REMARK  9 active torsions:
REMARK  status: ('A' for Active; 'I' for Inactive)
REMARK    1  A    between atoms: C_1  and  C_2
REMARK    2  A    between atoms: N_4  and  C_5
REMARK    3  A    between atoms: C_5  and  C_6
REMARK    4  A    between atoms: C_5  and  C_26
REMARK    5  A    between atoms: C_6  and  C_7
REMARK    6  A    between atoms: C_7  and  N_8
REMARK    7  A    between atoms: C_13  and  C_15
REMARK    8  A    between atoms: C_16  and  C_17
REMARK    9  A    between atoms: C_21  and  C_22
REMARK                            x       y       z     vdW  Elec       q    Type
REMARK                         _______ _______ _______ _____ _____    ______ ____
ROOT
ATOM      1  N   UNL     1       2.429   2.572  18.579  0.00  0.00    +0.000 NA
ATOM      2  C   UNL     1       3.033   2.974  19.876  0.00  0.00    +0.000 C 
ATOM      3  C   UNL     1       1.926   3.612  20.735  0.00  0.00    +0.000 C 
ATOM      4  C   UNL     1       2.269   4.942  21.428  0.00  0.00    +0.000 C 
ATOM      5  N   UNL     1       1.755   5.984  20.536  0.00  0.00    +0.000 N 
ATOM      6  C   UNL     1       1.824   7.329  20.861  0.00  0.00    +0.000 C 
ATOM      7  O   UNL     1       2.334   7.692  21.920  0.00  0.00    +0.000 OA
ATOM      8  C   UNL     1       1.432   5.384  19.266  0.00  0.00    +0.000 C 
ATOM      9  C   UNL     1       0.905   4.014  19.683  0.00  0.00    +0.000 C 
ATOM     10  C   UNL     1       0.997   2.916  18.653  0.00  0.00    +0.000 C 
ENDROOT
BRANCH   6  11
ATOM     11  C   UNL     1       1.295   8.365  19.899  0.00  0.00    +0.000 A 
ATOM     12  C   UNL     1       1.897   8.617  18.637  0.00  0.00    +0.000 A 
ATOM     13  C   UNL     1       2.983   7.783  18.002  0.00  0.00    +0.000 C 
ATOM     14  C   UNL     1       1.432   9.688  17.849  0.00  0.00    +0.000 A 
ATOM     15  C   UNL     1       0.320  10.427  18.225  0.00  0.00    +0.000 A 
ATOM     16  C   UNL     1      -0.352  10.105  19.396  0.00  0.00    +0.000 A 
ATOM     17  C   UNL     1       0.119   9.087  20.247  0.00  0.00    +0.000 A 
ATOM     18  C   UNL     1      -0.694   8.802  21.486  0.00  0.00    +0.000 C 
ENDBRANCH   6  11
BRANCH   1  19
ATOM     19  C   UNL     1       3.006   3.182  17.370  0.00  0.00    +0.000 C 
BRANCH  19  20
ATOM     20  C   UNL     1       4.499   3.518  17.380  0.00  0.00    +0.000 C 
BRANCH  20  21
ATOM     21  C   UNL     1       4.792   4.875  16.687  0.00  0.00    +0.000 C 
BRANCH  21  22
ATOM     22  C   UNL     1       5.962   5.612  17.330  0.00  0.00    +0.000 A 
ATOM     23  C   UNL     1       6.315   6.884  16.845  0.00  0.00    +0.000 A 
ATOM     24  C   UNL     1       7.350   7.612  17.434  0.00  0.00    +0.000 A 
ATOM     25  C   UNL     1       8.048   7.085  18.516  0.00  0.00    +0.000 A 
ATOM     26  C   UNL     1       7.712   5.829  19.016  0.00  0.00    +0.000 A 
ATOM     27  C   UNL     1       6.675   5.102  18.430  0.00  0.00    +0.000 A 
ENDBRANCH  21  22
BRANCH  21  31
ATOM     28  C   UNL     1       5.975   3.890  13.207  0.00  0.00    +0.000 C 
ATOM     29  C   UNL     1       6.069   4.058  14.698  0.00  0.00    +0.000 C 
ATOM     30  O   UNL     1       7.017   3.635  15.350  0.00  0.00    +0.000 OA
ATOM     31  N   UNL     1       4.984   4.701  15.247  0.00  0.00    +0.000 N 
ATOM     32  H   UNL     1       4.226   4.939  14.626  0.00  0.00    +0.000 HD
ENDBRANCH  21  31
ENDBRANCH  20  21
ENDBRANCH  19  20
ENDBRANCH   1  19
TORSDOF 6
ENDMDL
MODEL 8
REMARK VINA RESULT:      -7.2      4.780      7.341
REMARK  Name = 
REMARK  9 active torsions:
REMARK  status: ('A' for Active; 'I' for Inactive)
REMARK    1  A    between atoms: C_1  and  C_2
REMARK    2  A    between atoms: N_4  and  C_5
REMARK    3  A    between atoms: C_5  and  C_6
REMARK    4  A    between atoms: C_5  and  C_26
REMARK    5  A    between atoms: C_6  and  C_7
REMARK    6  A    between atoms: C_7  and  N_8
REMARK    7  A    between atoms: C_13  and  C_15
REMARK    8  A    between atoms: C_16  and  C_17
REMARK    9  A    between atoms: C_21  and  C_22
REMARK                            x       y       z     vdW  Elec       q    Type
REMARK                         _______ _______ _______ _____ _____    ______ ____
ROOT
ATOM      1  N   UNL     1      -4.227  10.511  17.615  0.00  0.00    +0.000 NA
ATOM      2  C   UNL     1      -5.315   9.933  18.447  0.00  0.00    +0.000 C 
ATOM      3  C   UNL     1      -6.339  11.049  18.726  0.00  0.00    +0.000 C 
ATOM      4  C   UNL     1      -6.816  11.200  20.181  0.00  0.00    +0.000 C 
ATOM      5  N   UNL     1      -5.971  12.249  20.755  0.00  0.00    +0.000 N 
ATOM      6  C   UNL     1      -6.151  12.711  22.049  0.00  0.00    +0.000 C 
ATOM      7  O   UNL     1      -7.033  12.239  22.766  0.00  0.00    +0.000 OA
ATOM      8  C   UNL     1      -4.864  12.488  19.864  0.00  0.00    +0.000 C 
ATOM      9  C   UNL     1      -5.509  12.301  18.494  0.00  0.00    +0.000 C 
ATOM     10  C   UNL     1      -4.587  11.918  17.364  0.00  0.00    +0.000 C 
ENDROOT
BRANCH   6  11
ATOM     11  C   UNL     1      -5.242  13.783  22.601  0.00  0.00    +0.000 A 
ATOM     12  C   UNL     1      -5.208  15.103  22.077  0.00  0.00    +0.000 A 
ATOM     13  C   UNL     1      -6.178  15.672  21.071  0.00  0.00    +0.000 C 
ATOM     14  C   UNL     1      -4.242  16.013  22.551  0.00  0.00    +0.000 A 
ATOM     15  C   UNL     1      -3.401  15.684  23.605  0.00  0.00    +0.000 A 
ATOM     16  C   UNL     1      -3.515  14.438  24.207  0.00  0.00    +0.000 A 
ATOM     17  C   UNL     1      -4.419  13.475  23.720  0.00  0.00    +0.000 A 
ATOM     18  C   UNL     1      -4.480  12.160  24.458  0.00  0.00    +0.000 C 
ENDBRANCH   6  11
BRANCH   1  19
ATOM     19  C   UNL     1      -2.870  10.457  18.184  0.00  0.00    +0.000 C 
BRANCH  19  20
ATOM     20  C   UNL     1      -1.881  11.554  17.781  0.00  0.00    +0.000 C 
BRANCH  20  21
ATOM     21  C   UNL     1      -0.526  11.412  18.522  0.00  0.00    +0.000 C 
BRANCH  21  22
ATOM     22  C   UNL     1      -0.671  11.580  20.031  0.00  0.00    +0.000 A 
ATOM     23  C   UNL     1      -1.106  12.816  20.540  0.00  0.00    +0.000 A 
ATOM     24  C   UNL     1      -1.297  12.999  21.910  0.00  0.00    +0.000 A 
ATOM     25  C   UNL     1      -1.058  11.952  22.795  0.00  0.00    +0.000 A 
ATOM     26  C   UNL     1      -0.631  10.717  22.312  0.00  0.00    +0.000 A 
ATOM     27  C   UNL     1      -0.444  10.532  20.942  0.00  0.00    +0.000 A 
ENDBRANCH  21  22
BRANCH  21  31
ATOM     28  C   UNL     1       1.945   8.611  17.795  0.00  0.00    +0.000 C 
ATOM     29  C   UNL     1       1.495  10.028  18.017  0.00  0.00    +0.000 C 
ATOM     30  O   UNL     1       2.281  10.968  18.072  0.00  0.00    +0.000 OA
ATOM     31  N   UNL     1       0.135  10.153  18.176  0.00  0.00    +0.000 N 
ATOM     32  H   UNL     1      -0.408   9.303  18.188  0.00  0.00    +0.000 HD
ENDBRANCH  21  31
ENDBRANCH  20  21
ENDBRANCH  19  20
ENDBRANCH   1  19
TORSDOF 6
ENDMDL
MODEL 9
REMARK VINA RESULT:      -7.1      5.942      8.489
REMARK  Name = 
REMARK  9 active torsions:
REMARK  status: ('A' for Active; 'I' for Inactive)
REMARK    1  A    between atoms: C_1  and  C_2
REMARK    2  A    between atoms: N_4  and  C_5
REMARK    3  A    between atoms: C_5  and  C_6
REMARK    4  A    between atoms: C_5  and  C_26
REMARK    5  A    between atoms: C_6  and  C_7
REMARK    6  A    between atoms: C_7  and  N_8
REMARK    7  A    between atoms: C_13  and  C_15
REMARK    8  A    between atoms: C_16  and  C_17
REMARK    9  A    between atoms: C_21  and  C_22
REMARK                            x       y       z     vdW  Elec       q    Type
REMARK                         _______ _______ _______ _____ _____    ______ ____
ROOT
ATOM      1  N   UNL     1      -6.443  11.856  17.956  0.00  0.00    +0.000 NA
ATOM      2  C   UNL     1      -6.698  10.832  19.003  0.00  0.00    +0.000 C 
ATOM      3  C   UNL     1      -7.702  11.424  20.008  0.00  0.00    +0.000 C 
ATOM      4  C   UNL     1      -7.364  11.261  21.500  0.00  0.00    +0.000 C 
ATOM      5  N   UNL     1      -6.706  12.513  21.883  0.00  0.00    +0.000 N 
ATOM      6  C   UNL     1      -6.310  12.765  23.187  0.00  0.00    +0.000 C 
ATOM      7  O   UNL     1      -6.493  11.928  24.070  0.00  0.00    +0.000 OA
ATOM      8  C   UNL     1      -6.366  13.240  20.687  0.00  0.00    +0.000 C 
ATOM      9  C   UNL     1      -7.542  12.917  19.769  0.00  0.00    +0.000 C 
ATOM     10  C   UNL     1      -7.286  13.019  18.287  0.00  0.00    +0.000 C 
ENDROOT
BRANCH   6  11
ATOM     11  C   UNL     1      -5.621  14.064  23.528  0.00  0.00    +0.000 A 
ATOM     12  C   UNL     1      -4.207  14.194  23.566  0.00  0.00    +0.000 A 
ATOM     13  C   UNL     1      -3.218  13.157  23.092  0.00  0.00    +0.000 C 
ATOM     14  C   UNL     1      -3.633  15.398  24.021  0.00  0.00    +0.000 A 
ATOM     15  C   UNL     1      -4.420  16.502  24.318  0.00  0.00    +0.000 A 
ATOM     16  C   UNL     1      -5.797  16.422  24.160  0.00  0.00    +0.000 A 
ATOM     17  C   UNL     1      -6.416  15.218  23.775  0.00  0.00    +0.000 A 
ATOM     18  C   UNL     1      -7.916  15.242  23.613  0.00  0.00    +0.000 C 
ENDBRANCH   6  11
BRANCH   1  19
ATOM     19  C   UNL     1      -5.049  12.304  17.803  0.00  0.00    +0.000 C 
BRANCH  19  20
ATOM     20  C   UNL     1      -3.951  11.466  18.464  0.00  0.00    +0.000 C 
BRANCH  20  21
ATOM     21  C   UNL     1      -2.547  11.797  17.892  0.00  0.00    +0.000 C 
BRANCH  21  22
ATOM     22  C   UNL     1      -1.424  11.217  18.746  0.00  0.00    +0.000 A 
ATOM     23  C   UNL     1      -1.392  11.513  20.120  0.00  0.00    +0.000 A 
ATOM     24  C   UNL     1      -0.409  10.967  20.946  0.00  0.00    +0.000 A 
ATOM     25  C   UNL     1       0.557  10.117  20.417  0.00  0.00    +0.000 A 
ATOM     26  C   UNL     1       0.542   9.807  19.058  0.00  0.00    +0.000 A 
ATOM     27  C   UNL     1      -0.443  10.349  18.232  0.00  0.00    +0.000 A 
ENDBRANCH  21  22
BRANCH  21  31
ATOM     28  C   UNL     1      -2.785  10.031  14.530  0.00  0.00    +0.000 C 
ATOM     29  C   UNL     1      -2.891  10.171  16.023  0.00  0.00    +0.000 C 
ATOM     30  O   UNL     1      -3.362   9.291  16.735  0.00  0.00    +0.000 OA
ATOM     31  N   UNL     1      -2.436  11.381  16.493  0.00  0.00    +0.000 N 
ATOM     32  H   UNL     1      -2.140  12.060  15.809  0.00  0.00    +0.000 HD
ENDBRANCH  21  31
ENDBRANCH  20  21
ENDBRANCH  19  20
ENDBRANCH   1  19
TORSDOF 6
ENDMDL
