MODEL 1
REMARK VINA RESULT:      -7.7      0.000      0.000
REMARK  Name = 
REMARK  9 active torsions:
REMARK  status: ('A' for Active; 'I' for Inactive)
REMARK    1  A    between atoms: C_1  and  C_2
REMARK    2  A    between atoms: C_2  and  C_3
REMARK    3  A    between atoms: N_5  and  C_6
REMARK    4  A    between atoms: C_14  and  C_15
REMARK    5  A    between atoms: C_17  and  C_19
REMARK    6  A    between atoms: C_26  and  C_27
REMARK    7  A    between atoms: C_28  and  O_29
REMARK    8  A    between atoms: O_29  and  C_30
REMARK    9  A    between atoms: N_32  and  C_33
REMARK                            x       y       z     vdW  Elec       q    Type
REMARK                         _______ _______ _______ _____ _____    ______ ____
ROOT
ATOM      1  C   UNL     1       1.570   8.183  20.325  0.00  0.00    +0.000 A 
ATOM      2  C   UNL     1       1.774   8.391  21.690  0.00  0.00    +0.000 A 
ATOM      3  C   UNL     1       1.111   9.419  22.354  0.00  0.00    +0.000 A 
ATOM      4  C   UNL     1       0.242  10.260  21.657  0.00  0.00    +0.000 A 
ATOM      5  C   UNL     1      -0.014  10.044  20.291  0.00  0.00    +0.000 A 
ATOM      6  C   UNL     1       0.690   9.027  19.627  0.00  0.00    +0.000 A 
ATOM      7  O   UNL     1      -0.950  10.852  19.701  0.00  0.00    +0.000 OA
ATOM      8  C   UNL     1      -1.406  10.545  18.384  0.00  0.00    +0.000 C 
ATOM      9  C   UNL     1      -2.433  11.589  17.854  0.00  0.00    +0.000 C 
ATOM     10  C   UNL     1      -2.991  11.051  16.516  0.00  0.00    +0.000 C 
ATOM     11  N   UNL     1      -3.414  12.126  18.860  0.00  0.00    +0.000 N 
ATOM     12  C   UNL     1      -4.784  11.777  18.743  0.00  0.00    +0.000 C 
ATOM     13  O   UNL     1      -5.148  10.834  18.031  0.00  0.00    +0.000 OA
ATOM     14  C   UNL     1      -2.824  13.193  19.720  0.00  0.00    +0.000 C 
ATOM     15  C   UNL     1      -3.268  13.502  21.170  0.00  0.00    +0.000 C 
ATOM     16  C   UNL     1      -3.802  12.326  21.985  0.00  0.00    +0.000 C 
ATOM     17  C   UNL     1      -2.213  14.375  21.934  0.00  0.00    +0.000 C 
ATOM     18  C   UNL     1      -1.203  13.595  22.812  0.00  0.00    +0.000 C 
ATOM     19  N   UNL     1      -0.393  12.627  22.078  0.00  0.00    +0.000 N 
ATOM     20  C   UNL     1       0.690  13.150  21.250  0.00  0.00    +0.000 C 
ATOM     21  C   UNL     1      -0.449  11.287  22.463  0.00  0.00    +0.000 C 
ATOM     22  O   UNL     1      -1.025  10.900  23.480  0.00  0.00    +0.000 OA
ENDROOT
BRANCH  12  23
ATOM     23  C   UNL     1      -5.908  12.461  19.475  0.00  0.00    +0.000 A 
ATOM     24  C   UNL     1      -6.683  11.698  20.353  0.00  0.00    +0.000 A 
ATOM     25  C   UNL     1      -7.668  12.325  21.114  0.00  0.00    +0.000 A 
ATOM     26  C   UNL     1      -7.835  13.696  21.005  0.00  0.00    +0.000 A 
ATOM     27  C   UNL     1      -7.050  14.372  20.084  0.00  0.00    +0.000 A 
ATOM     28  N   UNL     1      -6.136  13.778  19.277  0.00  0.00    +0.000 NA
ENDBRANCH  12  23
BRANCH   1  31
ATOM     29  C   UNL     1       2.067   5.787  19.862  0.00  0.00    +0.000 C 
ATOM     30  O   UNL     1       1.368   5.283  20.735  0.00  0.00    +0.000 OA
ATOM     31  N   UNL     1       2.208   7.142  19.603  0.00  0.00    +0.000 N 
ATOM     32  H   UNL     1       2.692   7.409  18.754  0.00  0.00    +0.000 HD
BRANCH  29  34
ATOM     33  C   UNL     1       2.059   4.399  17.778  0.00  0.00    +0.000 C 
ATOM     34  C   UNL     1       2.902   4.932  18.925  0.00  0.00    +0.000 C 
ENDBRANCH  29  34
ENDBRANCH   1  31
BRANCH  17  35
ATOM     35  O   UNL     1      -2.981  15.289  22.749  0.00  0.00    +0.000 OA
ATOM     36  C   UNL     1      -3.845  16.151  22.023  0.00  0.00    +0.000 C 
ENDBRANCH  17  35
TORSDOF 4
ENDMDL
MODEL 2
REMARK VINA RESULT:      -7.4      1.090      1.279
REMARK  Name = 
REMARK  9 active torsions:
REMARK  status: ('A' for Active; 'I' for Inactive)
REMARK    1  A    between atoms: C_1  and  C_2
REMARK    2  A    between atoms: C_2  and  C_3
REMARK    3  A    between atoms: N_5  and  C_6
REMARK    4  A    between atoms: C_14  and  C_15
REMARK    5  A    between atoms: C_17  and  C_19
REMARK    6  A    between atoms: C_26  and  C_27
REMARK    7  A    between atoms: C_28  and  O_29
REMARK    8  A    between atoms: O_29  and  C_30
REMARK    9  A    between atoms: N_32  and  C_33
REMARK                            x       y       z     vdW  Elec       q    Type
REMARK                         _______ _______ _______ _____ _____    ______ ____
ROOT
ATOM      1  C   UNL     1       1.556   7.965  20.226  0.00  0.00    +0.000 A 
ATOM      2  C   UNL     1       1.821   8.200  21.576  0.00  0.00    +0.000 A 
ATOM      3  C   UNL     1       1.217   9.263  22.240  0.00  0.00    +0.000 A 
ATOM      4  C   UNL     1       0.346  10.114  21.556  0.00  0.00    +0.000 A 
ATOM      5  C   UNL     1       0.028   9.873  20.208  0.00  0.00    +0.000 A 
ATOM      6  C   UNL     1       0.673   8.819  19.542  0.00  0.00    +0.000 A 
ATOM      7  O   UNL     1      -0.907  10.695  19.635  0.00  0.00    +0.000 OA
ATOM      8  C   UNL     1      -1.425  10.370  18.346  0.00  0.00    +0.000 C 
ATOM      9  C   UNL     1      -2.440  11.432  17.832  0.00  0.00    +0.000 C 
ATOM     10  C   UNL     1      -3.069  10.881  16.531  0.00  0.00    +0.000 C 
ATOM     11  N   UNL     1      -3.363  12.024  18.862  0.00  0.00    +0.000 N 
ATOM     12  C   UNL     1      -4.747  11.715  18.809  0.00  0.00    +0.000 C 
ATOM     13  O   UNL     1      -5.168  10.767  18.137  0.00  0.00    +0.000 OA
ATOM     14  C   UNL     1      -2.707  13.093  19.670  0.00  0.00    +0.000 C 
ATOM     15  C   UNL     1      -3.081  13.451  21.129  0.00  0.00    +0.000 C 
ATOM     16  C   UNL     1      -3.617  12.312  21.994  0.00  0.00    +0.000 C 
ATOM     17  C   UNL     1      -1.971  14.309  21.827  0.00  0.00    +0.000 C 
ATOM     18  C   UNL     1      -0.949  13.519  22.684  0.00  0.00    +0.000 C 
ATOM     19  N   UNL     1      -0.200  12.509  21.942  0.00  0.00    +0.000 N 
ATOM     20  C   UNL     1       0.864  12.977  21.058  0.00  0.00    +0.000 C 
ATOM     21  C   UNL     1      -0.280  11.181  22.363  0.00  0.00    +0.000 C 
ATOM     22  O   UNL     1      -0.826  10.837  23.412  0.00  0.00    +0.000 OA
ENDROOT
BRANCH  12  23
ATOM     23  C   UNL     1      -5.819  12.451  19.568  0.00  0.00    +0.000 A 
ATOM     24  C   UNL     1      -6.140  13.750  19.163  0.00  0.00    +0.000 A 
ATOM     25  C   UNL     1      -7.192  14.419  19.786  0.00  0.00    +0.000 A 
ATOM     26  C   UNL     1      -7.917  13.768  20.772  0.00  0.00    +0.000 A 
ATOM     27  C   UNL     1      -7.509  12.495  21.139  0.00  0.00    +0.000 A 
ATOM     28  N   UNL     1      -6.444  11.848  20.602  0.00  0.00    +0.000 NA
ENDBRANCH  12  23
BRANCH   1  31
ATOM     29  C   UNL     1       2.922   7.012  18.374  0.00  0.00    +0.000 C 
ATOM     30  O   UNL     1       3.254   8.062  17.833  0.00  0.00    +0.000 OA
ATOM     31  N   UNL     1       2.131   6.887  19.506  0.00  0.00    +0.000 N 
ATOM     32  H   UNL     1       2.069   5.970  19.934  0.00  0.00    +0.000 HD
BRANCH  29  34
ATOM     33  C   UNL     1       2.255   4.632  17.969  0.00  0.00    +0.000 C 
ATOM     34  C   UNL     1       3.362   5.665  17.827  0.00  0.00    +0.000 C 
ENDBRANCH  29  34
ENDBRANCH   1  31
BRANCH  17  35
ATOM     35  O   UNL     1      -2.677  15.266  22.649  0.00  0.00    +0.000 OA
ATOM     36  C   UNL     1      -2.096  15.498  23.923  0.00  0.00    +0.000 C 
ENDBRANCH  17  35
TORSDOF 4
ENDMDL
MODEL 3
REMARK VINA RESULT:      -7.0      7.468     11.825
REMARK  Name = 
REMARK  9 active torsions:
REMARK  status: ('A' for Active; 'I' for Inactive)
REMARK    1  A    between atoms: C_1  and  C_2
REMARK    2  A    between atoms: C_2  and  C_3
REMARK    3  A    between atoms: N_5  and  C_6
REMARK    4  A    between atoms: C_14  and  C_15
REMARK    5  A    between atoms: C_17  and  C_19
REMARK    6  A    between atoms: C_26  and  C_27
REMARK    7  A    between atoms: C_28  and  O_29
REMARK    8  A    between atoms: O_29  and  C_30
REMARK    9  A    between atoms: N_32  and  C_33
REMARK                            x       y       z     vdW  Elec       q    Type
REMARK                         _______ _______ _______ _____ _____    ______ ____
ROOT
ATOM      1  C   UNL     1       1.787  14.624  21.127  0.00  0.00    +0.000 A 
ATOM      2  C   UNL     1       1.607  15.176  19.857  0.00  0.00    +0.000 A 
ATOM      3  C   UNL     1       2.705  15.538  19.082  0.00  0.00    +0.000 A 
ATOM      4  C   UNL     1       4.000  15.360  19.574  0.00  0.00    +0.000 A 
ATOM      5  C   UNL     1       4.209  14.766  20.831  0.00  0.00    +0.000 A 
ATOM      6  C   UNL     1       3.092  14.441  21.616  0.00  0.00    +0.000 A 
ATOM      7  O   UNL     1       5.509  14.540  21.201  0.00  0.00    +0.000 OA
ATOM      8  C   UNL     1       5.777  13.752  22.360  0.00  0.00    +0.000 C 
ATOM      9  C   UNL     1       7.301  13.635  22.657  0.00  0.00    +0.000 C 
ATOM     10  C   UNL     1       7.473  12.614  23.805  0.00  0.00    +0.000 C 
ATOM     11  N   UNL     1       8.203  13.504  21.460  0.00  0.00    +0.000 N 
ATOM     12  C   UNL     1       8.877  12.278  21.233  0.00  0.00    +0.000 C 
ATOM     13  O   UNL     1       8.533  11.239  21.809  0.00  0.00    +0.000 OA
ATOM     14  C   UNL     1       8.467  14.816  20.798  0.00  0.00    +0.000 C 
ATOM     15  C   UNL     1       8.780  14.996  19.293  0.00  0.00    +0.000 C 
ATOM     16  C   UNL     1       8.158  13.977  18.340  0.00  0.00    +0.000 C 
ATOM     17  C   UNL     1       8.607  16.484  18.830  0.00  0.00    +0.000 C 
ATOM     18  C   UNL     1       7.236  16.837  18.199  0.00  0.00    +0.000 C 
ATOM     19  N   UNL     1       6.094  16.606  19.079  0.00  0.00    +0.000 N 
ATOM     20  C   UNL     1       5.874  17.565  20.159  0.00  0.00    +0.000 C 
ATOM     21  C   UNL     1       5.096  15.729  18.655  0.00  0.00    +0.000 C 
ATOM     22  O   UNL     1       5.050  15.257  17.518  0.00  0.00    +0.000 OA
ENDROOT
BRANCH  12  23
ATOM     23  C   UNL     1      10.021  12.093  20.272  0.00  0.00    +0.000 A 
ATOM     24  C   UNL     1       9.831  11.246  19.176  0.00  0.00    +0.000 A 
ATOM     25  C   UNL     1      10.839  11.131  18.220  0.00  0.00    +0.000 A 
ATOM     26  C   UNL     1      11.995  11.882  18.363  0.00  0.00    +0.000 A 
ATOM     27  C   UNL     1      12.118  12.668  19.497  0.00  0.00    +0.000 A 
ATOM     28  N   UNL     1      11.186  12.744  20.480  0.00  0.00    +0.000 NA
ENDBRANCH  12  23
BRANCH   1  31
ATOM     29  C   UNL     1      -0.042  13.066  21.786  0.00  0.00    +0.000 C 
ATOM     30  O   UNL     1       0.126  12.212  20.922  0.00  0.00    +0.000 OA
ATOM     31  N   UNL     1       0.704  14.223  21.950  0.00  0.00    +0.000 N 
ATOM     32  H   UNL     1       0.558  14.758  22.799  0.00  0.00    +0.000 HD
BRANCH  29  34
ATOM     33  C   UNL     1      -1.492  11.482  23.074  0.00  0.00    +0.000 C 
ATOM     34  C   UNL     1      -1.147  12.941  22.820  0.00  0.00    +0.000 C 
ENDBRANCH  29  34
ENDBRANCH   1  31
BRANCH  17  35
ATOM     35  O   UNL     1       9.670  16.723  17.881  0.00  0.00    +0.000 OA
ATOM     36  C   UNL     1      10.444  17.885  18.136  0.00  0.00    +0.000 C 
ENDBRANCH  17  35
TORSDOF 4
ENDMDL
MODEL 4
REMARK VINA RESULT:      -6.6      5.425      7.023
REMARK  Name = 
REMARK  9 active torsions:
REMARK  status: ('A' for Active; 'I' for Inactive)
REMARK    1  A    between atoms: C_1  and  C_2
REMARK    2  A    between atoms: C_2  and  C_3
REMARK    3  A    between atoms: N_5  and  C_6
REMARK    4  A    between atoms: C_14  and  C_15
REMARK    5  A    between atoms: C_17  and  C_19
REMARK    6  A    between atoms: C_26  and  C_27
REMARK    7  A    between atoms: C_28  and  O_29
REMARK    8  A    between atoms: O_29  and  C_30
REMARK    9  A    between atoms: N_32  and  C_33
REMARK                            x       y       z     vdW  Elec       q    Type
REMARK                         _______ _______ _______ _____ _____    ______ ____
ROOT
ATOM      1  C   UNL     1       6.850  15.184  18.028  0.00  0.00    +0.000 A 
ATOM      2  C   UNL     1       6.862  16.469  18.574  0.00  0.00    +0.000 A 
ATOM      3  C   UNL     1       5.684  17.054  19.030  0.00  0.00    +0.000 A 
ATOM      4  C   UNL     1       4.475  16.362  18.936  0.00  0.00    +0.000 A 
ATOM      5  C   UNL     1       4.443  15.050  18.431  0.00  0.00    +0.000 A 
ATOM      6  C   UNL     1       5.632  14.488  17.941  0.00  0.00    +0.000 A 
ATOM      7  O   UNL     1       3.234  14.404  18.460  0.00  0.00    +0.000 OA
ATOM      8  C   UNL     1       3.181  13.009  18.163  0.00  0.00    +0.000 C 
ATOM      9  C   UNL     1       1.728  12.451  18.200  0.00  0.00    +0.000 C 
ATOM     10  C   UNL     1       1.819  10.914  18.056  0.00  0.00    +0.000 C 
ATOM     11  N   UNL     1       0.831  13.004  19.272  0.00  0.00    +0.000 N 
ATOM     12  C   UNL     1       0.422  12.159  20.335  0.00  0.00    +0.000 C 
ATOM     13  O   UNL     1       0.999  11.089  20.564  0.00  0.00    +0.000 OA
ATOM     14  C   UNL     1       0.272  14.341  18.916  0.00  0.00    +0.000 C 
ATOM     15  C   UNL     1      -0.129  15.431  19.940  0.00  0.00    +0.000 C 
ATOM     16  C   UNL     1       0.658  15.458  21.249  0.00  0.00    +0.000 C 
ATOM     17  C   UNL     1      -0.290  16.838  19.268  0.00  0.00    +0.000 C 
ATOM     18  C   UNL     1       0.951  17.763  19.338  0.00  0.00    +0.000 C 
ATOM     19  N   UNL     1       2.148  17.209  18.712  0.00  0.00    +0.000 N 
ATOM     20  C   UNL     1       2.201  17.205  17.252  0.00  0.00    +0.000 C 
ATOM     21  C   UNL     1       3.292  17.049  19.494  0.00  0.00    +0.000 C 
ATOM     22  O   UNL     1       3.394  17.488  20.640  0.00  0.00    +0.000 OA
ENDROOT
BRANCH  12  23
ATOM     23  C   UNL     1      -0.692  12.470  21.299  0.00  0.00    +0.000 A 
ATOM     24  C   UNL     1      -1.995  12.544  20.798  0.00  0.00    +0.000 A 
ATOM     25  C   UNL     1      -3.056  12.737  21.682  0.00  0.00    +0.000 A 
ATOM     26  C   UNL     1      -2.796  12.820  23.041  0.00  0.00    +0.000 A 
ATOM     27  C   UNL     1      -1.473  12.774  23.450  0.00  0.00    +0.000 A 
ATOM     28  N   UNL     1      -0.415  12.661  22.608  0.00  0.00    +0.000 NA
ENDBRANCH  12  23
BRANCH   1  31
ATOM     29  C   UNL     1       8.801  13.662  18.305  0.00  0.00    +0.000 C 
ATOM     30  O   UNL     1       8.593  13.306  19.460  0.00  0.00    +0.000 OA
ATOM     31  N   UNL     1       8.022  14.536  17.563  0.00  0.00    +0.000 N 
ATOM     32  H   UNL     1       8.223  14.617  16.573  0.00  0.00    +0.000 HD
BRANCH  29  34
ATOM     33  C   UNL     1      10.424  11.778  18.006  0.00  0.00    +0.000 C 
ATOM     34  C   UNL     1      10.004  13.158  17.526  0.00  0.00    +0.000 C 
ENDBRANCH  29  34
ENDBRANCH   1  31
BRANCH  17  35
ATOM     35  O   UNL     1      -1.414  17.459  19.930  0.00  0.00    +0.000 OA
ATOM     36  C   UNL     1      -2.508  16.592  20.185  0.00  0.00    +0.000 C 
ENDBRANCH  17  35
TORSDOF 4
ENDMDL
MODEL 5
REMARK VINA RESULT:      -6.4      5.512      7.050
REMARK  Name = 
REMARK  9 active torsions:
REMARK  status: ('A' for Active; 'I' for Inactive)
REMARK    1  A    between atoms: C_1  and  C_2
REMARK    2  A    between atoms: C_2  and  C_3
REMARK    3  A    between atoms: N_5  and  C_6
REMARK    4  A    between atoms: C_14  and  C_15
REMARK    5  A    between atoms: C_17  and  C_19
REMARK    6  A    between atoms: C_26  and  C_27
REMARK    7  A    between atoms: C_28  and  O_29
REMARK    8  A    between atoms: O_29  and  C_30
REMARK    9  A    between atoms: N_32  and  C_33
REMARK                            x       y       z     vdW  Elec       q    Type
REMARK                         _______ _______ _______ _____ _____    ______ ____
ROOT
ATOM      1  C   UNL     1       6.809  14.746  17.983  0.00  0.00    +0.000 A 
ATOM      2  C   UNL     1       6.971  16.080  18.361  0.00  0.00    +0.000 A 
ATOM      3  C   UNL     1       5.871  16.848  18.730  0.00  0.00    +0.000 A 
ATOM      4  C   UNL     1       4.590  16.292  18.715  0.00  0.00    +0.000 A 
ATOM      5  C   UNL     1       4.405  14.939  18.379  0.00  0.00    +0.000 A 
ATOM      6  C   UNL     1       5.519  14.188  17.974  0.00  0.00    +0.000 A 
ATOM      7  O   UNL     1       3.131  14.445  18.480  0.00  0.00    +0.000 OA
ATOM      8  C   UNL     1       2.917  13.039  18.362  0.00  0.00    +0.000 C 
ATOM      9  C   UNL     1       1.410  12.659  18.456  0.00  0.00    +0.000 C 
ATOM     10  C   UNL     1       1.324  11.116  18.509  0.00  0.00    +0.000 C 
ATOM     11  N   UNL     1       0.588  13.442  19.443  0.00  0.00    +0.000 N 
ATOM     12  C   UNL     1       0.092  12.791  20.601  0.00  0.00    +0.000 C 
ATOM     13  O   UNL     1       0.545  11.700  20.968  0.00  0.00    +0.000 OA
ATOM     14  C   UNL     1       0.183  14.778  18.915  0.00  0.00    +0.000 C 
ATOM     15  C   UNL     1      -0.083  16.027  19.789  0.00  0.00    +0.000 C 
ATOM     16  C   UNL     1       0.710  16.131  21.091  0.00  0.00    +0.000 C 
ATOM     17  C   UNL     1      -0.087  17.347  18.944  0.00  0.00    +0.000 C 
ATOM     18  C   UNL     1       1.252  18.126  18.906  0.00  0.00    +0.000 C 
ATOM     19  N   UNL     1       2.374  17.365  18.365  0.00  0.00    +0.000 N 
ATOM     20  C   UNL     1       2.417  17.169  16.919  0.00  0.00    +0.000 C 
ATOM     21  C   UNL     1       3.497  17.175  19.171  0.00  0.00    +0.000 C 
ATOM     22  O   UNL     1       3.656  17.742  20.253  0.00  0.00    +0.000 OA
ENDROOT
BRANCH  12  23
ATOM     23  C   UNL     1      -0.973  13.347  21.508  0.00  0.00    +0.000 A 
ATOM     24  C   UNL     1      -0.646  13.573  22.848  0.00  0.00    +0.000 A 
ATOM     25  C   UNL     1      -1.582  14.175  23.687  0.00  0.00    +0.000 A 
ATOM     26  C   UNL     1      -2.805  14.564  23.164  0.00  0.00    +0.000 A 
ATOM     27  C   UNL     1      -3.063  14.270  21.835  0.00  0.00    +0.000 A 
ATOM     28  N   UNL     1      -2.201  13.620  21.014  0.00  0.00    +0.000 NA
ENDBRANCH  12  23
BRANCH   1  31
ATOM     29  C   UNL     1       8.997  13.635  18.410  0.00  0.00    +0.000 C 
ATOM     30  O   UNL     1       9.191  14.046  19.549  0.00  0.00    +0.000 OA
ATOM     31  N   UNL     1       7.897  13.915  17.613  0.00  0.00    +0.000 N 
ATOM     32  H   UNL     1       7.791  13.382  16.757  0.00  0.00    +0.000 HD
BRANCH  29  34
ATOM     33  C   UNL     1       9.778  11.276  18.096  0.00  0.00    +0.000 C 
ATOM     34  C   UNL     1       9.998  12.731  17.713  0.00  0.00    +0.000 C 
ENDBRANCH  29  34
ENDBRANCH   1  31
BRANCH  17  35
ATOM     35  O   UNL     1      -1.129  18.172  19.512  0.00  0.00    +0.000 OA
ATOM     36  C   UNL     1      -2.418  17.579  19.521  0.00  0.00    +0.000 C 
ENDBRANCH  17  35
TORSDOF 4
ENDMDL
MODEL 6
REMARK VINA RESULT:      -6.2      3.597      8.981
REMARK  Name = 
REMARK  9 active torsions:
REMARK  status: ('A' for Active; 'I' for Inactive)
REMARK    1  A    between atoms: C_1  and  C_2
REMARK    2  A    between atoms: C_2  and  C_3
REMARK    3  A    between atoms: N_5  and  C_6
REMARK    4  A    between atoms: C_14  and  C_15
REMARK    5  A    between atoms: C_17  and  C_19
REMARK    6  A    between atoms: C_26  and  C_27
REMARK    7  A    between atoms: C_28  and  O_29
REMARK    8  A    between atoms: O_29  and  C_30
REMARK    9  A    between atoms: N_32  and  C_33
REMARK                            x       y       z     vdW  Elec       q    Type
REMARK                         _______ _______ _______ _____ _____    ______ ____
ROOT
ATOM      1  C   UNL     1      -4.287  14.577  22.706  0.00  0.00    +0.000 A 
ATOM      2  C   UNL     1      -4.076  13.322  23.281  0.00  0.00    +0.000 A 
ATOM      3  C   UNL     1      -3.040  12.507  22.836  0.00  0.00    +0.000 A 
ATOM      4  C   UNL     1      -2.205  12.934  21.801  0.00  0.00    +0.000 A 
ATOM      5  C   UNL     1      -2.369  14.212  21.236  0.00  0.00    +0.000 A 
ATOM      6  C   UNL     1      -3.442  15.007  21.669  0.00  0.00    +0.000 A 
ATOM      7  O   UNL     1      -1.452  14.594  20.292  0.00  0.00    +0.000 OA
ATOM      8  C   UNL     1      -1.438  15.948  19.842  0.00  0.00    +0.000 C 
ATOM      9  C   UNL     1      -0.365  16.194  18.741  0.00  0.00    +0.000 C 
ATOM     10  C   UNL     1      -0.314  17.716  18.475  0.00  0.00    +0.000 C 
ATOM     11  N   UNL     1       0.941  15.468  18.911  0.00  0.00    +0.000 N 
ATOM     12  C   UNL     1       2.111  16.210  19.215  0.00  0.00    +0.000 C 
ATOM     13  O   UNL     1       2.044  17.375  19.622  0.00  0.00    +0.000 OA
ATOM     14  C   UNL     1       0.865  14.044  18.470  0.00  0.00    +0.000 C 
ATOM     15  C   UNL     1       1.728  12.895  19.045  0.00  0.00    +0.000 C 
ATOM     16  C   UNL     1       2.158  13.030  20.505  0.00  0.00    +0.000 C 
ATOM     17  C   UNL     1       1.146  11.485  18.685  0.00  0.00    +0.000 C 
ATOM     18  C   UNL     1       0.240  10.835  19.761  0.00  0.00    +0.000 C 
ATOM     19  N   UNL     1      -0.938  11.625  20.109  0.00  0.00    +0.000 N 
ATOM     20  C   UNL     1      -2.042  11.640  19.152  0.00  0.00    +0.000 C 
ATOM     21  C   UNL     1      -1.106  12.018  21.437  0.00  0.00    +0.000 C 
ATOM     22  O   UNL     1      -0.396  11.609  22.357  0.00  0.00    +0.000 OA
ENDROOT
BRANCH  12  23
ATOM     23  C   UNL     1       3.515  15.675  19.120  0.00  0.00    +0.000 A 
ATOM     24  C   UNL     1       4.005  15.329  17.857  0.00  0.00    +0.000 A 
ATOM     25  C   UNL     1       5.332  14.922  17.727  0.00  0.00    +0.000 A 
ATOM     26  C   UNL     1       6.143  14.898  18.850  0.00  0.00    +0.000 A 
ATOM     27  C   UNL     1       5.569  15.221  20.070  0.00  0.00    +0.000 A 
ATOM     28  N   UNL     1       4.264  15.550  20.237  0.00  0.00    +0.000 NA
ENDBRANCH  12  23
BRANCH   1  31
ATOM     29  C   UNL     1      -6.647  15.372  22.746  0.00  0.00    +0.000 C 
ATOM     30  O   UNL     1      -7.136  14.533  21.997  0.00  0.00    +0.000 OA
ATOM     31  N   UNL     1      -5.318  15.453  23.132  0.00  0.00    +0.000 N 
ATOM     32  H   UNL     1      -5.085  16.099  23.878  0.00  0.00    +0.000 HD
BRANCH  29  34
ATOM     33  C   UNL     1      -6.650  17.703  23.661  0.00  0.00    +0.000 C 
ATOM     34  C   UNL     1      -7.493  16.475  23.359  0.00  0.00    +0.000 C 
ENDBRANCH  29  34
ENDBRANCH   1  31
BRANCH  17  35
ATOM     35  O   UNL     1       2.292  10.645  18.424  0.00  0.00    +0.000 OA
ATOM     36  C   UNL     1       1.984   9.372  17.877  0.00  0.00    +0.000 C 
ENDBRANCH  17  35
TORSDOF 4
ENDMDL
MODEL 7
REMARK VINA RESULT:      -6.2      7.125     11.389
REMARK  Name = 
REMARK  9 active torsions:
REMARK  status: ('A' for Active; 'I' for Inactive)
REMARK    1  A    between atoms: C_1  and  C_2
REMARK    2  A    between atoms: C_2  and  C_3
REMARK    3  A    between atoms: N_5  and  C_6
REMARK    4  A    between atoms: C_14  and  C_15
REMARK    5  A    between atoms: C_17  and  C_19
REMARK    6  A    between atoms: C_26  and  C_27
REMARK    7  A    between atoms: C_28  and  O_29
REMARK    8  A    between atoms: O_29  and  C_30
REMARK    9  A    between atoms: N_32  and  C_33
REMARK                            x       y       z     vdW  Elec       q    Type
REMARK                         _______ _______ _______ _____ _____    ______ ____
ROOT
ATOM      1  C   UNL     1       1.157  13.331  20.685  0.00  0.00    +0.000 A 
ATOM      2  C   UNL     1       0.909  13.916  19.441  0.00  0.00    +0.000 A 
ATOM      3  C   UNL     1       1.900  14.652  18.797  0.00  0.00    +0.000 A 
ATOM      4  C   UNL     1       3.150  14.821  19.395  0.00  0.00    +0.000 A 
ATOM      5  C   UNL     1       3.438  14.206  20.627  0.00  0.00    +0.000 A 
ATOM      6  C   UNL     1       2.418  13.499  21.281  0.00  0.00    +0.000 A 
ATOM      7  O   UNL     1       4.716  14.342  21.102  0.00  0.00    +0.000 OA
ATOM      8  C   UNL     1       5.127  13.568  22.229  0.00  0.00    +0.000 C 
ATOM      9  C   UNL     1       6.591  13.880  22.659  0.00  0.00    +0.000 C 
ATOM     10  C   UNL     1       6.980  12.858  23.751  0.00  0.00    +0.000 C 
ATOM     11  N   UNL     1       7.572  14.127  21.546  0.00  0.00    +0.000 N 
ATOM     12  C   UNL     1       8.599  13.178  21.307  0.00  0.00    +0.000 C 
ATOM     13  O   UNL     1       8.543  12.037  21.782  0.00  0.00    +0.000 OA
ATOM     14  C   UNL     1       7.476  15.510  20.996  0.00  0.00    +0.000 C 
ATOM     15  C   UNL     1       7.826  15.907  19.541  0.00  0.00    +0.000 C 
ATOM     16  C   UNL     1       7.608  14.838  18.472  0.00  0.00    +0.000 C 
ATOM     17  C   UNL     1       7.246  17.312  19.159  0.00  0.00    +0.000 C 
ATOM     18  C   UNL     1       5.880  17.300  18.426  0.00  0.00    +0.000 C 
ATOM     19  N   UNL     1       4.802  16.667  19.179  0.00  0.00    +0.000 N 
ATOM     20  C   UNL     1       4.227  17.419  20.291  0.00  0.00    +0.000 C 
ATOM     21  C   UNL     1       4.146  15.575  18.608  0.00  0.00    +0.000 C 
ATOM     22  O   UNL     1       4.324  15.213  17.445  0.00  0.00    +0.000 OA
ENDROOT
BRANCH  12  23
ATOM     23  C   UNL     1       9.810  13.423  20.448  0.00  0.00    +0.000 A 
ATOM     24  C   UNL     1      10.686  14.447  20.820  0.00  0.00    +0.000 A 
ATOM     25  C   UNL     1      11.863  14.635  20.097  0.00  0.00    +0.000 A 
ATOM     26  C   UNL     1      12.153  13.781  19.045  0.00  0.00    +0.000 A 
ATOM     27  C   UNL     1      11.214  12.815  18.719  0.00  0.00    +0.000 A 
ATOM     28  N   UNL     1      10.027  12.656  19.357  0.00  0.00    +0.000 NA
ENDBRANCH  12  23
BRANCH   1  31
ATOM     29  C   UNL     1      -0.588  13.010  22.432  0.00  0.00    +0.000 C 
ATOM     30  O   UNL     1      -0.572  14.136  22.916  0.00  0.00    +0.000 OA
ATOM     31  N   UNL     1       0.190  12.559  21.376  0.00  0.00    +0.000 N 
ATOM     32  H   UNL     1      -0.041  11.656  20.977  0.00  0.00    +0.000 HD
BRANCH  29  34
ATOM     33  C   UNL     1      -0.791  10.593  23.056  0.00  0.00    +0.000 C 
ATOM     34  C   UNL     1      -1.511  11.929  22.970  0.00  0.00    +0.000 C 
ENDBRANCH  29  34
ENDBRANCH   1  31
BRANCH  17  35
ATOM     35  O   UNL     1       8.251  17.937  18.331  0.00  0.00    +0.000 OA
ATOM     36  C   UNL     1       9.523  18.080  18.945  0.00  0.00    +0.000 C 
ENDBRANCH  17  35
TORSDOF 4
ENDMDL
MODEL 8
REMARK VINA RESULT:      -6.1      5.115      6.845
REMARK  Name = 
REMARK  9 active torsions:
REMARK  status: ('A' for Active; 'I' for Inactive)
REMARK    1  A    between atoms: C_1  and  C_2
REMARK    2  A    between atoms: C_2  and  C_3
REMARK    3  A    between atoms: N_5  and  C_6
REMARK    4  A    between atoms: C_14  and  C_15
REMARK    5  A    between atoms: C_17  and  C_19
REMARK    6  A    between atoms: C_26  and  C_27
REMARK    7  A    between atoms: C_28  and  O_29
REMARK    8  A    between atoms: O_29  and  C_30
REMARK    9  A    between atoms: N_32  and  C_33
REMARK                            x       y       z     vdW  Elec       q    Type
REMARK                         _______ _______ _______ _____ _____    ______ ____
ROOT
ATOM      1  C   UNL     1       6.387  15.775  18.894  0.00  0.00    +0.000 A 
ATOM      2  C   UNL     1       6.223  17.017  19.510  0.00  0.00    +0.000 A 
ATOM      3  C   UNL     1       4.956  17.464  19.872  0.00  0.00    +0.000 A 
ATOM      4  C   UNL     1       3.833  16.676  19.612  0.00  0.00    +0.000 A 
ATOM      5  C   UNL     1       3.976  15.403  19.032  0.00  0.00    +0.000 A 
ATOM      6  C   UNL     1       5.255  14.982  18.638  0.00  0.00    +0.000 A 
ATOM      7  O   UNL     1       2.837  14.653  18.895  0.00  0.00    +0.000 OA
ATOM      8  C   UNL     1       2.946  13.282  18.516  0.00  0.00    +0.000 C 
ATOM      9  C   UNL     1       1.555  12.597  18.366  0.00  0.00    +0.000 C 
ATOM     10  C   UNL     1       1.805  11.087  18.144  0.00  0.00    +0.000 C 
ATOM     11  N   UNL     1       0.507  12.996  19.367  0.00  0.00    +0.000 N 
ATOM     12  C   UNL     1       0.075  12.049  20.331  0.00  0.00    +0.000 C 
ATOM     13  O   UNL     1       0.725  11.021  20.558  0.00  0.00    +0.000 OA
ATOM     14  C   UNL     1      -0.138  14.299  19.031  0.00  0.00    +0.000 C 
ATOM     15  C   UNL     1      -0.739  15.279  20.068  0.00  0.00    +0.000 C 
ATOM     16  C   UNL     1      -0.093  15.288  21.453  0.00  0.00    +0.000 C 
ATOM     17  C   UNL     1      -0.965  16.708  19.465  0.00  0.00    +0.000 C 
ATOM     18  C   UNL     1       0.170  17.732  19.719  0.00  0.00    +0.000 C 
ATOM     19  N   UNL     1       1.470  17.329  19.192  0.00  0.00    +0.000 N 
ATOM     20  C   UNL     1       1.670  17.426  17.748  0.00  0.00    +0.000 C 
ATOM     21  C   UNL     1       2.541  17.218  20.080  0.00  0.00    +0.000 C 
ATOM     22  O   UNL     1       2.486  17.587  21.254  0.00  0.00    +0.000 OA
ENDROOT
BRANCH  12  23
ATOM     23  C   UNL     1      -1.154  12.196  21.188  0.00  0.00    +0.000 A 
ATOM     24  C   UNL     1      -1.002  12.130  22.576  0.00  0.00    +0.000 A 
ATOM     25  C   UNL     1      -2.107  12.357  23.395  0.00  0.00    +0.000 A 
ATOM     26  C   UNL     1      -3.324  12.675  22.814  0.00  0.00    +0.000 A 
ATOM     27  C   UNL     1      -3.397  12.683  21.430  0.00  0.00    +0.000 A 
ATOM     28  N   UNL     1      -2.358  12.394  20.607  0.00  0.00    +0.000 NA
ENDBRANCH  12  23
BRANCH   1  31
ATOM     29  C   UNL     1       8.407  14.364  19.258  0.00  0.00    +0.000 C 
ATOM     30  O   UNL     1       8.088  13.862  20.330  0.00  0.00    +0.000 OA
ATOM     31  N   UNL     1       7.656  15.266  18.519  0.00  0.00    +0.000 N 
ATOM     32  H   UNL     1       7.970  15.475  17.578  0.00  0.00    +0.000 HD
BRANCH  29  34
ATOM     33  C   UNL     1       9.730  12.617  18.046  0.00  0.00    +0.000 C 
ATOM     34  C   UNL     1       9.732  14.036  18.593  0.00  0.00    +0.000 C 
ENDBRANCH  29  34
ENDBRANCH   1  31
BRANCH  17  35
ATOM     35  O   UNL     1      -2.203  17.182  20.039  0.00  0.00    +0.000 OA
ATOM     36  C   UNL     1      -2.101  18.413  20.739  0.00  0.00    +0.000 C 
ENDBRANCH  17  35
TORSDOF 4
ENDMDL
MODEL 9
REMARK VINA RESULT:      -6.0      1.950      2.376
REMARK  Name = 
REMARK  9 active torsions:
REMARK  status: ('A' for Active; 'I' for Inactive)
REMARK    1  A    between atoms: C_1  and  C_2
REMARK    2  A    between atoms: C_2  and  C_3
REMARK    3  A    between atoms: N_5  and  C_6
REMARK    4  A    between atoms: C_14  and  C_15
REMARK    5  A    between atoms: C_17  and  C_19
REMARK    6  A    between atoms: C_26  and  C_27
REMARK    7  A    between atoms: C_28  and  O_29
REMARK    8  A    between atoms: O_29  and  C_30
REMARK    9  A    between atoms: N_32  and  C_33
REMARK                            x       y       z     vdW  Elec       q    Type
REMARK                         _______ _______ _______ _____ _____    ______ ____
ROOT
ATOM      1  C   UNL     1       0.971  10.039  19.280  0.00  0.00    +0.000 A 
ATOM      2  C   UNL     1       1.763  10.624  20.270  0.00  0.00    +0.000 A 
ATOM      3  C   UNL     1       1.278  11.688  21.024  0.00  0.00    +0.000 A 
ATOM      4  C   UNL     1      -0.005  12.187  20.791  0.00  0.00    +0.000 A 
ATOM      5  C   UNL     1      -0.838  11.587  19.829  0.00  0.00    +0.000 A 
ATOM      6  C   UNL     1      -0.322  10.540  19.051  0.00  0.00    +0.000 A 
ATOM      7  O   UNL     1      -2.115  12.074  19.726  0.00  0.00    +0.000 OA
ATOM      8  C   UNL     1      -3.066  11.372  18.927  0.00  0.00    +0.000 C 
ATOM      9  C   UNL     1      -4.448  12.088  18.886  0.00  0.00    +0.000 C 
ATOM     10  C   UNL     1      -5.437  11.146  18.160  0.00  0.00    +0.000 C 
ATOM     11  N   UNL     1      -4.903  12.728  20.169  0.00  0.00    +0.000 N 
ATOM     12  C   UNL     1      -6.009  12.174  20.864  0.00  0.00    +0.000 C 
ATOM     13  O   UNL     1      -6.422  11.037  20.612  0.00  0.00    +0.000 OA
ATOM     14  C   UNL     1      -4.262  14.054  20.404  0.00  0.00    +0.000 C 
ATOM     15  C   UNL     1      -3.991  14.669  21.799  0.00  0.00    +0.000 C 
ATOM     16  C   UNL     1      -3.730  13.685  22.938  0.00  0.00    +0.000 C 
ATOM     17  C   UNL     1      -2.962  15.849  21.732  0.00  0.00    +0.000 C 
ATOM     18  C   UNL     1      -1.488  15.475  22.031  0.00  0.00    +0.000 C 
ATOM     19  N   UNL     1      -0.931  14.470  21.129  0.00  0.00    +0.000 N 
ATOM     20  C   UNL     1      -0.576  14.902  19.780  0.00  0.00    +0.000 C 
ATOM     21  C   UNL     1      -0.444  13.283  21.678  0.00  0.00    +0.000 C 
ATOM     22  O   UNL     1      -0.319  13.101  22.890  0.00  0.00    +0.000 OA
ENDROOT
BRANCH  12  23
ATOM     23  C   UNL     1      -6.755  12.863  21.976  0.00  0.00    +0.000 A 
ATOM     24  C   UNL     1      -6.759  12.263  23.239  0.00  0.00    +0.000 A 
ATOM     25  C   UNL     1      -7.361  12.926  24.307  0.00  0.00    +0.000 A 
ATOM     26  C   UNL     1      -7.915  14.179  24.099  0.00  0.00    +0.000 A 
ATOM     27  C   UNL     1      -7.901  14.686  22.809  0.00  0.00    +0.000 A 
ATOM     28  N   UNL     1      -7.388  14.032  21.736  0.00  0.00    +0.000 NA
ENDBRANCH  12  23
BRANCH   1  31
ATOM     29  C   UNL     1       2.028   7.803  18.983  0.00  0.00    +0.000 C 
ATOM     30  O   UNL     1       2.275   7.560  20.160  0.00  0.00    +0.000 OA
ATOM     31  N   UNL     1       1.410   8.944  18.493  0.00  0.00    +0.000 N 
ATOM     32  H   UNL     1       1.127   8.941  17.520  0.00  0.00    +0.000 HD
BRANCH  29  34
ATOM     33  C   UNL     1       3.900   6.812  17.648  0.00  0.00    +0.000 C 
ATOM     34  C   UNL     1       2.398   6.828  17.879  0.00  0.00    +0.000 C 
ENDBRANCH  29  34
ENDBRANCH   1  31
BRANCH  17  35
ATOM     35  O   UNL     1      -3.431  16.829  22.686  0.00  0.00    +0.000 OA
ATOM     36  C   UNL     1      -2.468  17.230  23.648  0.00  0.00    +0.000 C 
ENDBRANCH  17  35
TORSDOF 4
ENDMDL
