MODEL 1
REMARK VINA RESULT:      -6.9      0.000      0.000
REMARK  Name = 
REMARK  9 active torsions:
REMARK  status: ('A' for Active; 'I' for Inactive)
REMARK    1  A    between atoms: C_1  and  C_2
REMARK    2  A    between atoms: C_2  and  C_3
REMARK    3  A    between atoms: C_2  and  C_4
REMARK    4  A    between atoms: C_4  and  C_5
REMARK    5  A    between atoms: C_9  and  C_10
REMARK    6  A    between atoms: N_11  and  C_12
REMARK    7  A    between atoms: C_15  and  C_16
REMARK    8  A    between atoms: C_16  and  C_17
REMARK    9  A    between atoms: N_30  and  C_31
REMARK                            x       y       z     vdW  Elec       q    Type
REMARK                         _______ _______ _______ _____ _____    ______ ____
ROOT
ATOM      1  C   UNL     1      -1.171  12.070  20.360  0.00  0.00    +0.000 C 
ATOM      2  N   UNL     1      -1.899  11.595  19.164  0.00  0.00    +0.000 N 
ATOM      3  C   UNL     1      -3.238  11.928  19.071  0.00  0.00    +0.000 C 
ATOM      4  O   UNL     1      -3.726  12.652  19.938  0.00  0.00    +0.000 OA
ATOM      5  C   UNL     1      -4.098  11.365  17.921  0.00  0.00    +0.000 C 
ATOM      6  C   UNL     1      -3.758   9.882  17.716  0.00  0.00    +0.000 C 
ATOM      7  N   UNL     1      -5.516  11.630  18.343  0.00  0.00    +0.000 N 
ATOM      8  C   UNL     1      -6.461  10.543  18.200  0.00  0.00    +0.000 C 
ATOM      9  C   UNL     1      -6.041  12.869  17.913  0.00  0.00    +0.000 C 
ATOM     10  O   UNL     1      -6.300  13.047  16.722  0.00  0.00    +0.000 OA
ATOM     11  C   UNL     1      -6.298  13.955  19.027  0.00  0.00    +0.000 C 
ATOM     12  N   UNL     1      -6.415  15.271  18.351  0.00  0.00    +0.000 NA
ATOM     13  C   UNL     1      -6.491  16.437  19.214  0.00  0.00    +0.000 C 
ATOM     14  C   UNL     1      -5.170  17.211  19.218  0.00  0.00    +0.000 C 
ATOM     15  C   UNL     1      -4.128  16.659  20.198  0.00  0.00    +0.000 C 
ATOM     16  C   UNL     1      -2.860  17.514  20.160  0.00  0.00    +0.000 C 
ATOM     17  C   UNL     1      -1.789  17.116  21.177  0.00  0.00    +0.000 C 
ATOM     18  C   UNL     1      -0.901  15.931  20.768  0.00  0.00    +0.000 C 
ATOM     19  N   UNL     1      -1.399  14.563  20.932  0.00  0.00    +0.000 N 
ATOM     20  C   UNL     1      -2.316  14.276  22.031  0.00  0.00    +0.000 C 
ATOM     21  C   UNL     1      -0.782  13.569  20.158  0.00  0.00    +0.000 C 
ATOM     22  O   UNL     1       0.046  13.844  19.287  0.00  0.00    +0.000 OA
ATOM     23  H   UNL     1      -1.378  11.454  18.314  0.00  0.00    +0.000 HD
ATOM     24  H   UNL     1      -7.182  15.225  17.680  0.00  0.00    +0.000 HD
ENDROOT
BRANCH   1  25
ATOM     25  C   UNL     1       0.069  11.181  20.605  0.00  0.00    +0.000 C 
BRANCH  25  27
ATOM     26  C   UNL     1      -1.035  10.814  22.901  0.00  0.00    +0.000 C 
ATOM     27  C   UNL     1       0.059  10.377  21.928  0.00  0.00    +0.000 C 
ATOM     28  C   UNL     1      -0.135   8.881  21.656  0.00  0.00    +0.000 C 
ENDBRANCH  25  27
ENDBRANCH   1  25
BRANCH  11  29
ATOM     29  C   UNL     1      -7.450  13.559  19.998  0.00  0.00    +0.000 C 
BRANCH  29  30
ATOM     30  C   UNL     1      -7.073  13.286  21.438  0.00  0.00    +0.000 A 
ATOM     31  C   UNL     1      -7.717  12.263  22.147  0.00  0.00    +0.000 A 
ATOM     32  C   UNL     1      -7.551  12.137  23.526  0.00  0.00    +0.000 A 
ATOM     33  C   UNL     1      -6.685  12.991  24.200  0.00  0.00    +0.000 A 
ATOM     34  C   UNL     1      -5.934  13.918  23.485  0.00  0.00    +0.000 A 
ATOM     35  C   UNL     1      -6.111  14.049  22.108  0.00  0.00    +0.000 A 
ENDBRANCH  29  30
ENDBRANCH  11  29
TORSDOF 4
ENDMDL
MODEL 2
REMARK VINA RESULT:      -6.7      2.354      5.984
REMARK  Name = 
REMARK  9 active torsions:
REMARK  status: ('A' for Active; 'I' for Inactive)
REMARK    1  A    between atoms: C_1  and  C_2
REMARK    2  A    between atoms: C_2  and  C_3
REMARK    3  A    between atoms: C_2  and  C_4
REMARK    4  A    between atoms: C_4  and  C_5
REMARK    5  A    between atoms: C_9  and  C_10
REMARK    6  A    between atoms: N_11  and  C_12
REMARK    7  A    between atoms: C_15  and  C_16
REMARK    8  A    between atoms: C_16  and  C_17
REMARK    9  A    between atoms: N_30  and  C_31
REMARK                            x       y       z     vdW  Elec       q    Type
REMARK                         _______ _______ _______ _____ _____    ______ ____
ROOT
ATOM      1  C   UNL     1      -4.347  13.009  23.360  0.00  0.00    +0.000 C 
ATOM      2  N   UNL     1      -3.033  12.368  23.577  0.00  0.00    +0.000 N 
ATOM      3  C   UNL     1      -2.172  12.318  22.496  0.00  0.00    +0.000 C 
ATOM      4  O   UNL     1      -2.513  12.864  21.447  0.00  0.00    +0.000 OA
ATOM      5  C   UNL     1      -0.836  11.555  22.603  0.00  0.00    +0.000 C 
ATOM      6  C   UNL     1      -1.070  10.228  23.339  0.00  0.00    +0.000 C 
ATOM      7  N   UNL     1      -0.366  11.409  21.183  0.00  0.00    +0.000 N 
ATOM      8  C   UNL     1       0.111  10.105  20.777  0.00  0.00    +0.000 C 
ATOM      9  C   UNL     1       0.456  12.460  20.720  0.00  0.00    +0.000 C 
ATOM     10  O   UNL     1       1.605  12.577  21.150  0.00  0.00    +0.000 OA
ATOM     11  C   UNL     1      -0.161  13.415  19.628  0.00  0.00    +0.000 C 
ATOM     12  N   UNL     1       0.651  14.656  19.608  0.00  0.00    +0.000 NA
ATOM     13  C   UNL     1       0.153  15.743  18.781  0.00  0.00    +0.000 C 
ATOM     14  C   UNL     1      -0.462  16.853  19.638  0.00  0.00    +0.000 C 
ATOM     15  C   UNL     1      -1.921  16.598  20.034  0.00  0.00    +0.000 C 
ATOM     16  C   UNL     1      -2.461  17.772  20.853  0.00  0.00    +0.000 C 
ATOM     17  C   UNL     1      -3.944  17.671  21.214  0.00  0.00    +0.000 C 
ATOM     18  C   UNL     1      -4.268  16.786  22.427  0.00  0.00    +0.000 C 
ATOM     19  N   UNL     1      -4.328  15.332  22.265  0.00  0.00    +0.000 N 
ATOM     20  C   UNL     1      -4.773  14.785  20.986  0.00  0.00    +0.000 C 
ATOM     21  C   UNL     1      -4.176  14.560  23.426  0.00  0.00    +0.000 C 
ATOM     22  O   UNL     1      -3.873  15.067  24.509  0.00  0.00    +0.000 OA
ATOM     23  H   UNL     1      -2.639  12.390  24.505  0.00  0.00    +0.000 HD
ATOM     24  H   UNL     1       1.618  14.409  19.395  0.00  0.00    +0.000 HD
ENDROOT
BRANCH   1  25
ATOM     25  C   UNL     1      -5.360  12.496  24.409  0.00  0.00    +0.000 C 
BRANCH  25  27
ATOM     26  C   UNL     1      -7.603  13.755  24.362  0.00  0.00    +0.000 C 
ATOM     27  C   UNL     1      -6.841  12.494  23.958  0.00  0.00    +0.000 C 
ATOM     28  C   UNL     1      -6.947  12.357  22.435  0.00  0.00    +0.000 C 
ENDBRANCH  25  27
ENDBRANCH   1  25
BRANCH  11  29
ATOM     29  C   UNL     1      -0.386  12.700  18.262  0.00  0.00    +0.000 C 
BRANCH  29  30
ATOM     30  C   UNL     1      -1.605  11.811  18.143  0.00  0.00    +0.000 A 
ATOM     31  C   UNL     1      -1.490  10.543  17.557  0.00  0.00    +0.000 A 
ATOM     32  C   UNL     1      -2.625   9.801  17.234  0.00  0.00    +0.000 A 
ATOM     33  C   UNL     1      -3.887  10.289  17.559  0.00  0.00    +0.000 A 
ATOM     34  C   UNL     1      -4.005  11.480  18.267  0.00  0.00    +0.000 A 
ATOM     35  C   UNL     1      -2.868  12.226  18.577  0.00  0.00    +0.000 A 
ENDBRANCH  29  30
ENDBRANCH  11  29
TORSDOF 4
ENDMDL
MODEL 3
REMARK VINA RESULT:      -6.6      1.230      1.719
REMARK  Name = 
REMARK  9 active torsions:
REMARK  status: ('A' for Active; 'I' for Inactive)
REMARK    1  A    between atoms: C_1  and  C_2
REMARK    2  A    between atoms: C_2  and  C_3
REMARK    3  A    between atoms: C_2  and  C_4
REMARK    4  A    between atoms: C_4  and  C_5
REMARK    5  A    between atoms: C_9  and  C_10
REMARK    6  A    between atoms: N_11  and  C_12
REMARK    7  A    between atoms: C_15  and  C_16
REMARK    8  A    between atoms: C_16  and  C_17
REMARK    9  A    between atoms: N_30  and  C_31
REMARK                            x       y       z     vdW  Elec       q    Type
REMARK                         _______ _______ _______ _____ _____    ______ ____
ROOT
ATOM      1  C   UNL     1      -0.400  12.067  19.638  0.00  0.00    +0.000 C 
ATOM      2  N   UNL     1      -1.352  11.652  18.585  0.00  0.00    +0.000 N 
ATOM      3  C   UNL     1      -2.692  11.904  18.813  0.00  0.00    +0.000 C 
ATOM      4  O   UNL     1      -3.009  12.516  19.833  0.00  0.00    +0.000 OA
ATOM      5  C   UNL     1      -3.758  11.389  17.825  0.00  0.00    +0.000 C 
ATOM      6  C   UNL     1      -3.406   9.955  17.405  0.00  0.00    +0.000 C 
ATOM      7  N   UNL     1      -5.059  11.524  18.564  0.00  0.00    +0.000 N 
ATOM      8  C   UNL     1      -5.963  10.394  18.520  0.00  0.00    +0.000 C 
ATOM      9  C   UNL     1      -5.719  12.759  18.382  0.00  0.00    +0.000 C 
ATOM     10  O   UNL     1      -6.241  13.023  17.298  0.00  0.00    +0.000 OA
ATOM     11  C   UNL     1      -5.774  13.724  19.627  0.00  0.00    +0.000 C 
ATOM     12  N   UNL     1      -6.094  15.084  19.126  0.00  0.00    +0.000 NA
ATOM     13  C   UNL     1      -6.031  16.163  20.097  0.00  0.00    +0.000 C 
ATOM     14  C   UNL     1      -4.776  17.017  19.894  0.00  0.00    +0.000 C 
ATOM     15  C   UNL     1      -3.521  16.451  20.569  0.00  0.00    +0.000 C 
ATOM     16  C   UNL     1      -2.332  17.386  20.345  0.00  0.00    +0.000 C 
ATOM     17  C   UNL     1      -1.047  16.971  21.064  0.00  0.00    +0.000 C 
ATOM     18  C   UNL     1      -0.219  15.886  20.360  0.00  0.00    +0.000 C 
ATOM     19  N   UNL     1      -0.608  14.480  20.489  0.00  0.00    +0.000 N 
ATOM     20  C   UNL     1      -1.248  14.039  21.726  0.00  0.00    +0.000 C 
ATOM     21  C   UNL     1      -0.132  13.599  19.507  0.00  0.00    +0.000 C 
ATOM     22  O   UNL     1       0.472  14.002  18.511  0.00  0.00    +0.000 OA
ATOM     23  H   UNL     1      -1.024  11.619  17.632  0.00  0.00    +0.000 HD
ATOM     24  H   UNL     1      -6.987  15.047  18.633  0.00  0.00    +0.000 HD
ENDROOT
BRANCH   1  25
ATOM     25  C   UNL     1       0.901  11.241  19.522  0.00  0.00    +0.000 C 
BRANCH  25  27
ATOM     26  C   UNL     1       1.517   9.267  17.992  0.00  0.00    +0.000 C 
ATOM     27  C   UNL     1       0.709   9.740  19.199  0.00  0.00    +0.000 C 
ATOM     28  C   UNL     1       1.111   8.868  20.394  0.00  0.00    +0.000 C 
ENDBRANCH  25  27
ENDBRANCH   1  25
BRANCH  11  29
ATOM     29  C   UNL     1      -6.666  13.171  20.778  0.00  0.00    +0.000 C 
BRANCH  29  30
ATOM     30  C   UNL     1      -6.034  13.067  22.150  0.00  0.00    +0.000 A 
ATOM     31  C   UNL     1      -4.664  13.323  22.308  0.00  0.00    +0.000 A 
ATOM     32  C   UNL     1      -4.016  13.021  23.504  0.00  0.00    +0.000 A 
ATOM     33  C   UNL     1      -4.744  12.522  24.580  0.00  0.00    +0.000 A 
ATOM     34  C   UNL     1      -6.126  12.397  24.479  0.00  0.00    +0.000 A 
ATOM     35  C   UNL     1      -6.770  12.690  23.277  0.00  0.00    +0.000 A 
ENDBRANCH  29  30
ENDBRANCH  11  29
TORSDOF 4
ENDMDL
MODEL 4
REMARK VINA RESULT:      -6.6      0.604      1.202
REMARK  Name = 
REMARK  9 active torsions:
REMARK  status: ('A' for Active; 'I' for Inactive)
REMARK    1  A    between atoms: C_1  and  C_2
REMARK    2  A    between atoms: C_2  and  C_3
REMARK    3  A    between atoms: C_2  and  C_4
REMARK    4  A    between atoms: C_4  and  C_5
REMARK    5  A    between atoms: C_9  and  C_10
REMARK    6  A    between atoms: N_11  and  C_12
REMARK    7  A    between atoms: C_15  and  C_16
REMARK    8  A    between atoms: C_16  and  C_17
REMARK    9  A    between atoms: N_30  and  C_31
REMARK                            x       y       z     vdW  Elec       q    Type
REMARK                         _______ _______ _______ _____ _____    ______ ____
ROOT
ATOM      1  C   UNL     1      -1.488  12.345  20.715  0.00  0.00    +0.000 C 
ATOM      2  N   UNL     1      -2.158  11.827  19.503  0.00  0.00    +0.000 N 
ATOM      3  C   UNL     1      -3.481  12.184  19.315  0.00  0.00    +0.000 C 
ATOM      4  O   UNL     1      -4.000  12.960  20.116  0.00  0.00    +0.000 OA
ATOM      5  C   UNL     1      -4.287  11.583  18.146  0.00  0.00    +0.000 C 
ATOM      6  C   UNL     1      -3.973  10.084  18.034  0.00  0.00    +0.000 C 
ATOM      7  N   UNL     1      -5.720  11.899  18.470  0.00  0.00    +0.000 N 
ATOM      8  C   UNL     1      -6.681  10.827  18.326  0.00  0.00    +0.000 C 
ATOM      9  C   UNL     1      -6.188  13.126  17.950  0.00  0.00    +0.000 C 
ATOM     10  O   UNL     1      -6.374  13.250  16.738  0.00  0.00    +0.000 OA
ATOM     11  C   UNL     1      -6.482  14.272  18.992  0.00  0.00    +0.000 C 
ATOM     12  N   UNL     1      -6.527  15.554  18.247  0.00  0.00    +0.000 NA
ATOM     13  C   UNL     1      -6.624  16.765  19.046  0.00  0.00    +0.000 C 
ATOM     14  C   UNL     1      -5.287  17.508  19.090  0.00  0.00    +0.000 C 
ATOM     15  C   UNL     1      -4.317  16.984  20.155  0.00  0.00    +0.000 C 
ATOM     16  C   UNL     1      -3.027  17.807  20.150  0.00  0.00    +0.000 C 
ATOM     17  C   UNL     1      -2.027  17.437  21.246  0.00  0.00    +0.000 C 
ATOM     18  C   UNL     1      -1.146  16.214  20.949  0.00  0.00    +0.000 C 
ATOM     19  N   UNL     1      -1.687  14.868  21.149  0.00  0.00    +0.000 N 
ATOM     20  C   UNL     1      -2.672  14.657  22.206  0.00  0.00    +0.000 C 
ATOM     21  C   UNL     1      -1.051  13.823  20.463  0.00  0.00    +0.000 C 
ATOM     22  O   UNL     1      -0.168  14.035  19.630  0.00  0.00    +0.000 OA
ATOM     23  H   UNL     1      -1.592  11.631  18.693  0.00  0.00    +0.000 HD
ATOM     24  H   UNL     1      -7.255  15.492  17.535  0.00  0.00    +0.000 HD
ENDROOT
BRANCH   1  25
ATOM     25  C   UNL     1      -0.287  11.442  21.076  0.00  0.00    +0.000 C 
BRANCH  25  27
ATOM     26  C   UNL     1       0.781   9.806  19.401  0.00  0.00    +0.000 C 
ATOM     27  C   UNL     1      -0.308  10.026  20.449  0.00  0.00    +0.000 C 
ATOM     28  C   UNL     1      -0.136   8.950  21.528  0.00  0.00    +0.000 C 
ENDBRANCH  25  27
ENDBRANCH   1  25
BRANCH  11  29
ATOM     29  C   UNL     1      -7.698  13.951  19.913  0.00  0.00    +0.000 C 
BRANCH  29  30
ATOM     30  C   UNL     1      -7.407  13.721  21.380  0.00  0.00    +0.000 A 
ATOM     31  C   UNL     1      -6.582  14.614  22.077  0.00  0.00    +0.000 A 
ATOM     32  C   UNL     1      -6.121  14.309  23.357  0.00  0.00    +0.000 A 
ATOM     33  C   UNL     1      -6.537  13.138  23.982  0.00  0.00    +0.000 A 
ATOM     34  C   UNL     1      -7.466  12.313  23.356  0.00  0.00    +0.000 A 
ATOM     35  C   UNL     1      -7.916  12.616  22.071  0.00  0.00    +0.000 A 
ENDBRANCH  29  30
ENDBRANCH  11  29
TORSDOF 4
ENDMDL
MODEL 5
REMARK VINA RESULT:      -6.5      0.812      1.096
REMARK  Name = 
REMARK  9 active torsions:
REMARK  status: ('A' for Active; 'I' for Inactive)
REMARK    1  A    between atoms: C_1  and  C_2
REMARK    2  A    between atoms: C_2  and  C_3
REMARK    3  A    between atoms: C_2  and  C_4
REMARK    4  A    between atoms: C_4  and  C_5
REMARK    5  A    between atoms: C_9  and  C_10
REMARK    6  A    between atoms: N_11  and  C_12
REMARK    7  A    between atoms: C_15  and  C_16
REMARK    8  A    between atoms: C_16  and  C_17
REMARK    9  A    between atoms: N_30  and  C_31
REMARK                            x       y       z     vdW  Elec       q    Type
REMARK                         _______ _______ _______ _____ _____    ______ ____
ROOT
ATOM      1  C   UNL     1      -0.789  12.146  20.011  0.00  0.00    +0.000 C 
ATOM      2  N   UNL     1      -1.602  11.671  18.872  0.00  0.00    +0.000 N 
ATOM      3  C   UNL     1      -2.959  11.938  18.912  0.00  0.00    +0.000 C 
ATOM      4  O   UNL     1      -3.398  12.609  19.845  0.00  0.00    +0.000 OA
ATOM      5  C   UNL     1      -3.894  11.366  17.827  0.00  0.00    +0.000 C 
ATOM      6  C   UNL     1      -3.504   9.909  17.541  0.00  0.00    +0.000 C 
ATOM      7  N   UNL     1      -5.277  11.546  18.385  0.00  0.00    +0.000 N 
ATOM      8  C   UNL     1      -6.178  10.417  18.292  0.00  0.00    +0.000 C 
ATOM      9  C   UNL     1      -5.898  12.769  18.048  0.00  0.00    +0.000 C 
ATOM     10  O   UNL     1      -6.275  12.970  16.892  0.00  0.00    +0.000 OA
ATOM     11  C   UNL     1      -6.103  13.807  19.217  0.00  0.00    +0.000 C 
ATOM     12  N   UNL     1      -6.344  15.135  18.600  0.00  0.00    +0.000 NA
ATOM     13  C   UNL     1      -6.396  16.270  19.506  0.00  0.00    +0.000 C 
ATOM     14  C   UNL     1      -5.118  17.109  19.416  0.00  0.00    +0.000 C 
ATOM     15  C   UNL     1      -3.965  16.582  20.277  0.00  0.00    +0.000 C 
ATOM     16  C   UNL     1      -2.748  17.501  20.153  0.00  0.00    +0.000 C 
ATOM     17  C   UNL     1      -1.569  17.127  21.054  0.00  0.00    +0.000 C 
ATOM     18  C   UNL     1      -0.667  16.001  20.525  0.00  0.00    +0.000 C 
ATOM     19  N   UNL     1      -1.083  14.606  20.686  0.00  0.00    +0.000 N 
ATOM     20  C   UNL     1      -1.878  14.240  21.855  0.00  0.00    +0.000 C 
ATOM     21  C   UNL     1      -0.493  13.668  19.826  0.00  0.00    +0.000 C 
ATOM     22  O   UNL     1       0.237  14.010  18.893  0.00  0.00    +0.000 OA
ATOM     23  H   UNL     1      -1.156  11.581  17.973  0.00  0.00    +0.000 HD
ATOM     24  H   UNL     1      -7.167  15.070  18.001  0.00  0.00    +0.000 HD
ENDROOT
BRANCH   1  25
ATOM     25  C   UNL     1       0.509  11.314  20.112  0.00  0.00    +0.000 C 
BRANCH  25  27
ATOM     26  C   UNL     1       1.230   9.478  18.459  0.00  0.00    +0.000 C 
ATOM     27  C   UNL     1       0.384   9.832  19.680  0.00  0.00    +0.000 C 
ATOM     28  C   UNL     1       0.801   8.895  20.819  0.00  0.00    +0.000 C 
ENDBRANCH  25  27
ENDBRANCH   1  25
BRANCH  11  29
ATOM     29  C   UNL     1      -7.139  13.324  20.275  0.00  0.00    +0.000 C 
BRANCH  29  30
ATOM     30  C   UNL     1      -6.635  13.118  21.688  0.00  0.00    +0.000 A 
ATOM     31  C   UNL     1      -7.366  12.321  22.580  0.00  0.00    +0.000 A 
ATOM     32  C   UNL     1      -7.048  12.295  23.937  0.00  0.00    +0.000 A 
ATOM     33  C   UNL     1      -5.952  13.010  24.405  0.00  0.00    +0.000 A 
ATOM     34  C   UNL     1      -5.136  13.691  23.507  0.00  0.00    +0.000 A 
ATOM     35  C   UNL     1      -5.464  13.725  22.152  0.00  0.00    +0.000 A 
ENDBRANCH  29  30
ENDBRANCH  11  29
TORSDOF 4
ENDMDL
MODEL 6
REMARK VINA RESULT:      -6.3      1.688      2.254
REMARK  Name = 
REMARK  9 active torsions:
REMARK  status: ('A' for Active; 'I' for Inactive)
REMARK    1  A    between atoms: C_1  and  C_2
REMARK    2  A    between atoms: C_2  and  C_3
REMARK    3  A    between atoms: C_2  and  C_4
REMARK    4  A    between atoms: C_4  and  C_5
REMARK    5  A    between atoms: C_9  and  C_10
REMARK    6  A    between atoms: N_11  and  C_12
REMARK    7  A    between atoms: C_15  and  C_16
REMARK    8  A    between atoms: C_16  and  C_17
REMARK    9  A    between atoms: N_30  and  C_31
REMARK                            x       y       z     vdW  Elec       q    Type
REMARK                         _______ _______ _______ _____ _____    ______ ____
ROOT
ATOM      1  C   UNL     1      -1.767  11.426  19.087  0.00  0.00    +0.000 C 
ATOM      2  N   UNL     1      -3.116  11.423  18.483  0.00  0.00    +0.000 N 
ATOM      3  C   UNL     1      -4.078  12.211  19.088  0.00  0.00    +0.000 C 
ATOM      4  O   UNL     1      -3.746  12.916  20.040  0.00  0.00    +0.000 OA
ATOM      5  C   UNL     1      -5.539  12.166  18.596  0.00  0.00    +0.000 C 
ATOM      6  C   UNL     1      -5.936  10.707  18.327  0.00  0.00    +0.000 C 
ATOM      7  N   UNL     1      -6.327  12.839  19.684  0.00  0.00    +0.000 N 
ATOM      8  C   UNL     1      -7.541  12.183  20.121  0.00  0.00    +0.000 C 
ATOM      9  C   UNL     1      -6.486  14.233  19.525  0.00  0.00    +0.000 C 
ATOM     10  O   UNL     1      -7.224  14.671  18.640  0.00  0.00    +0.000 OA
ATOM     11  C   UNL     1      -5.715  15.156  20.544  0.00  0.00    +0.000 C 
ATOM     12  N   UNL     1      -5.653  16.517  19.958  0.00  0.00    +0.000 NA
ATOM     13  C   UNL     1      -4.837  17.491  20.664  0.00  0.00    +0.000 C 
ATOM     14  C   UNL     1      -3.519  17.746  19.929  0.00  0.00    +0.000 C 
ATOM     15  C   UNL     1      -2.421  16.723  20.245  0.00  0.00    +0.000 C 
ATOM     16  C   UNL     1      -1.135  17.079  19.497  0.00  0.00    +0.000 C 
ATOM     17  C   UNL     1       0.062  16.182  19.820  0.00  0.00    +0.000 C 
ATOM     18  C   UNL     1       0.100  14.840  19.073  0.00  0.00    +0.000 C 
ATOM     19  N   UNL     1      -0.719  13.723  19.551  0.00  0.00    +0.000 N 
ATOM     20  C   UNL     1      -0.982  13.607  20.983  0.00  0.00    +0.000 C 
ATOM     21  C   UNL     1      -1.004  12.708  18.627  0.00  0.00    +0.000 C 
ATOM     22  O   UNL     1      -0.699  12.808  17.437  0.00  0.00    +0.000 OA
ATOM     23  H   UNL     1      -3.195  11.241  17.494  0.00  0.00    +0.000 HD
ATOM     24  H   UNL     1      -6.605  16.844  19.794  0.00  0.00    +0.000 HD
ENDROOT
BRANCH   1  25
ATOM     25  C   UNL     1      -1.014  10.134  18.694  0.00  0.00    +0.000 C 
BRANCH  25  27
ATOM     26  C   UNL     1       0.685   9.308  20.441  0.00  0.00    +0.000 C 
ATOM     27  C   UNL     1       0.468  10.069  19.135  0.00  0.00    +0.000 C 
ATOM     28  C   UNL     1       1.327   9.395  18.059  0.00  0.00    +0.000 C 
ENDBRANCH  25  27
ENDBRANCH   1  25
BRANCH  11  29
ATOM     29  C   UNL     1      -6.267  15.041  21.997  0.00  0.00    +0.000 C 
BRANCH  29  30
ATOM     30  C   UNL     1      -5.555  14.084  22.929  0.00  0.00    +0.000 A 
ATOM     31  C   UNL     1      -6.263  13.027  23.517  0.00  0.00    +0.000 A 
ATOM     32  C   UNL     1      -5.696  12.272  24.543  0.00  0.00    +0.000 A 
ATOM     33  C   UNL     1      -4.388  12.521  24.944  0.00  0.00    +0.000 A 
ATOM     34  C   UNL     1      -3.629  13.474  24.272  0.00  0.00    +0.000 A 
ATOM     35  C   UNL     1      -4.204  14.235  23.254  0.00  0.00    +0.000 A 
ENDBRANCH  29  30
ENDBRANCH  11  29
TORSDOF 4
ENDMDL
MODEL 7
REMARK VINA RESULT:      -6.3      1.300      1.808
REMARK  Name = 
REMARK  9 active torsions:
REMARK  status: ('A' for Active; 'I' for Inactive)
REMARK    1  A    between atoms: C_1  and  C_2
REMARK    2  A    between atoms: C_2  and  C_3
REMARK    3  A    between atoms: C_2  and  C_4
REMARK    4  A    between atoms: C_4  and  C_5
REMARK    5  A    between atoms: C_9  and  C_10
REMARK    6  A    between atoms: N_11  and  C_12
REMARK    7  A    between atoms: C_15  and  C_16
REMARK    8  A    between atoms: C_16  and  C_17
REMARK    9  A    between atoms: N_30  and  C_31
REMARK                            x       y       z     vdW  Elec       q    Type
REMARK                         _______ _______ _______ _____ _____    ______ ____
ROOT
ATOM      1  C   UNL     1      -1.241  11.565  19.728  0.00  0.00    +0.000 C 
ATOM      2  N   UNL     1      -2.438  11.395  18.876  0.00  0.00    +0.000 N 
ATOM      3  C   UNL     1      -3.563  12.122  19.220  0.00  0.00    +0.000 C 
ATOM      4  O   UNL     1      -3.487  12.914  20.158  0.00  0.00    +0.000 OA
ATOM      5  C   UNL     1      -4.887  11.905  18.460  0.00  0.00    +0.000 C 
ATOM      6  C   UNL     1      -5.101  10.401  18.237  0.00  0.00    +0.000 C 
ATOM      7  N   UNL     1      -5.929  12.565  19.319  0.00  0.00    +0.000 N 
ATOM      8  C   UNL     1      -7.148  11.824  19.564  0.00  0.00    +0.000 C 
ATOM      9  C   UNL     1      -6.168  13.925  19.021  0.00  0.00    +0.000 C 
ATOM     10  O   UNL     1      -6.748  14.234  17.979  0.00  0.00    +0.000 OA
ATOM     11  C   UNL     1      -5.694  14.979  20.093  0.00  0.00    +0.000 C 
ATOM     12  N   UNL     1      -5.629  16.301  19.423  0.00  0.00    +0.000 NA
ATOM     13  C   UNL     1      -5.054  17.391  20.194  0.00  0.00    +0.000 C 
ATOM     14  C   UNL     1      -3.641  17.727  19.709  0.00  0.00    +0.000 C 
ATOM     15  C   UNL     1      -2.548  16.836  20.311  0.00  0.00    +0.000 C 
ATOM     16  C   UNL     1      -1.172  17.267  19.800  0.00  0.00    +0.000 C 
ATOM     17  C   UNL     1       0.006  16.512  20.418  0.00  0.00    +0.000 C 
ATOM     18  C   UNL     1       0.303  15.136  19.802  0.00  0.00    +0.000 C 
ATOM     19  N   UNL     1      -0.500  13.977  20.201  0.00  0.00    +0.000 N 
ATOM     20  C   UNL     1      -1.032  13.926  21.559  0.00  0.00    +0.000 C 
ATOM     21  C   UNL     1      -0.510  12.884  19.322  0.00  0.00    +0.000 C 
ATOM     22  O   UNL     1       0.017  12.939  18.209  0.00  0.00    +0.000 OA
ATOM     23  H   UNL     1      -2.302  11.145  17.909  0.00  0.00    +0.000 HD
ATOM     24  H   UNL     1      -6.553  16.524  19.053  0.00  0.00    +0.000 HD
ENDROOT
BRANCH   1  25
ATOM     25  C   UNL     1      -0.321  10.331  19.592  0.00  0.00    +0.000 C 
BRANCH  25  27
ATOM     26  C   UNL     1      -0.146  10.254  22.158  0.00  0.00    +0.000 C 
ATOM     27  C   UNL     1       0.562  10.021  20.825  0.00  0.00    +0.000 C 
ATOM     28  C   UNL     1       1.037   8.563  20.803  0.00  0.00    +0.000 C 
ENDBRANCH  25  27
ENDBRANCH   1  25
BRANCH  11  29
ATOM     29  C   UNL     1      -6.513  14.902  21.416  0.00  0.00    +0.000 C 
BRANCH  29  30
ATOM     30  C   UNL     1      -5.846  14.237  22.601  0.00  0.00    +0.000 A 
ATOM     31  C   UNL     1      -4.566  14.645  23.001  0.00  0.00    +0.000 A 
ATOM     32  C   UNL     1      -3.842  13.908  23.937  0.00  0.00    +0.000 A 
ATOM     33  C   UNL     1      -4.418  12.792  24.535  0.00  0.00    +0.000 A 
ATOM     34  C   UNL     1      -5.738  12.460  24.249  0.00  0.00    +0.000 A 
ATOM     35  C   UNL     1      -6.455  13.193  23.303  0.00  0.00    +0.000 A 
ENDBRANCH  29  30
ENDBRANCH  11  29
TORSDOF 4
ENDMDL
MODEL 8
REMARK VINA RESULT:      -6.3      2.659      6.547
REMARK  Name = 
REMARK  9 active torsions:
REMARK  status: ('A' for Active; 'I' for Inactive)
REMARK    1  A    between atoms: C_1  and  C_2
REMARK    2  A    between atoms: C_2  and  C_3
REMARK    3  A    between atoms: C_2  and  C_4
REMARK    4  A    between atoms: C_4  and  C_5
REMARK    5  A    between atoms: C_9  and  C_10
REMARK    6  A    between atoms: N_11  and  C_12
REMARK    7  A    between atoms: C_15  and  C_16
REMARK    8  A    between atoms: C_16  and  C_17
REMARK    9  A    between atoms: N_30  and  C_31
REMARK                            x       y       z     vdW  Elec       q    Type
REMARK                         _______ _______ _______ _____ _____    ______ ____
ROOT
ATOM      1  C   UNL     1      -1.611  14.789  24.416  0.00  0.00    +0.000 C 
ATOM      2  N   UNL     1      -0.749  15.324  23.340  0.00  0.00    +0.000 N 
ATOM      3  C   UNL     1      -0.530  14.507  22.246  0.00  0.00    +0.000 C 
ATOM      4  O   UNL     1      -1.113  13.425  22.194  0.00  0.00    +0.000 OA
ATOM      5  C   UNL     1       0.457  14.939  21.142  0.00  0.00    +0.000 C 
ATOM      6  C   UNL     1       1.710  15.541  21.794  0.00  0.00    +0.000 C 
ATOM      7  N   UNL     1       0.706  13.689  20.345  0.00  0.00    +0.000 N 
ATOM      8  C   UNL     1       2.080  13.380  20.015  0.00  0.00    +0.000 C 
ATOM      9  C   UNL     1      -0.174  13.496  19.258  0.00  0.00    +0.000 C 
ATOM     10  O   UNL     1      -0.091  14.217  18.262  0.00  0.00    +0.000 OA
ATOM     11  C   UNL     1      -1.208  12.311  19.383  0.00  0.00    +0.000 C 
ATOM     12  N   UNL     1      -2.284  12.548  18.390  0.00  0.00    +0.000 NA
ATOM     13  C   UNL     1      -3.429  11.656  18.451  0.00  0.00    +0.000 C 
ATOM     14  C   UNL     1      -4.644  12.356  19.066  0.00  0.00    +0.000 C 
ATOM     15  C   UNL     1      -4.660  12.344  20.600  0.00  0.00    +0.000 C 
ATOM     16  C   UNL     1      -5.923  13.030  21.122  0.00  0.00    +0.000 C 
ATOM     17  C   UNL     1      -6.094  12.983  22.642  0.00  0.00    +0.000 C 
ATOM     18  C   UNL     1      -5.299  14.037  23.427  0.00  0.00    +0.000 C 
ATOM     19  N   UNL     1      -3.877  13.816  23.697  0.00  0.00    +0.000 N 
ATOM     20  C   UNL     1      -3.399  12.448  23.875  0.00  0.00    +0.000 C 
ATOM     21  C   UNL     1      -3.107  14.950  23.998  0.00  0.00    +0.000 C 
ATOM     22  O   UNL     1      -3.568  16.090  23.910  0.00  0.00    +0.000 OA
ATOM     23  H   UNL     1      -0.714  16.322  23.210  0.00  0.00    +0.000 HD
ATOM     24  H   UNL     1      -1.865  12.591  17.460  0.00  0.00    +0.000 HD
ENDROOT
BRANCH   1  25
ATOM     25  C   UNL     1      -1.303  15.515  25.744  0.00  0.00    +0.000 C 
BRANCH  25  27
ATOM     26  C   UNL     1      -1.568  18.044  26.136  0.00  0.00    +0.000 C 
ATOM     27  C   UNL     1      -0.677  16.924  25.602  0.00  0.00    +0.000 C 
ATOM     28  C   UNL     1       0.662  17.004  26.344  0.00  0.00    +0.000 C 
ENDBRANCH  25  27
ENDBRANCH   1  25
BRANCH  11  29
ATOM     29  C   UNL     1      -0.524  10.911  19.359  0.00  0.00    +0.000 C 
BRANCH  29  30
ATOM     30  C   UNL     1      -0.242  10.261  20.696  0.00  0.00    +0.000 A 
ATOM     31  C   UNL     1      -1.109  10.479  21.776  0.00  0.00    +0.000 A 
ATOM     32  C   UNL     1      -0.758  10.079  23.065  0.00  0.00    +0.000 A 
ATOM     33  C   UNL     1       0.434   9.394  23.277  0.00  0.00    +0.000 A 
ATOM     34  C   UNL     1       1.234   9.049  22.192  0.00  0.00    +0.000 A 
ATOM     35  C   UNL     1       0.885   9.461  20.906  0.00  0.00    +0.000 A 
ENDBRANCH  29  30
ENDBRANCH  11  29
TORSDOF 4
ENDMDL
MODEL 9
REMARK VINA RESULT:      -6.2      1.825      6.166
REMARK  Name = 
REMARK  9 active torsions:
REMARK  status: ('A' for Active; 'I' for Inactive)
REMARK    1  A    between atoms: C_1  and  C_2
REMARK    2  A    between atoms: C_2  and  C_3
REMARK    3  A    between atoms: C_2  and  C_4
REMARK    4  A    between atoms: C_4  and  C_5
REMARK    5  A    between atoms: C_9  and  C_10
REMARK    6  A    between atoms: N_11  and  C_12
REMARK    7  A    between atoms: C_15  and  C_16
REMARK    8  A    between atoms: C_16  and  C_17
REMARK    9  A    between atoms: N_30  and  C_31
REMARK                            x       y       z     vdW  Elec       q    Type
REMARK                         _______ _______ _______ _____ _____    ______ ____
ROOT
ATOM      1  C   UNL     1      -4.181  11.675  17.691  0.00  0.00    +0.000 C 
ATOM      2  N   UNL     1      -2.931  11.168  18.297  0.00  0.00    +0.000 N 
ATOM      3  C   UNL     1      -2.407  11.890  19.354  0.00  0.00    +0.000 C 
ATOM      4  O   UNL     1      -3.037  12.861  19.772  0.00  0.00    +0.000 OA
ATOM      5  C   UNL     1      -1.042  11.501  19.957  0.00  0.00    +0.000 C 
ATOM      6  C   UNL     1      -0.065  11.166  18.821  0.00  0.00    +0.000 C 
ATOM      7  N   UNL     1      -0.646  12.684  20.795  0.00  0.00    +0.000 N 
ATOM      8  C   UNL     1       0.713  13.162  20.660  0.00  0.00    +0.000 C 
ATOM      9  C   UNL     1      -1.075  12.629  22.139  0.00  0.00    +0.000 C 
ATOM     10  O   UNL     1      -0.554  11.829  22.919  0.00  0.00    +0.000 OA
ATOM     11  C   UNL     1      -2.198  13.649  22.568  0.00  0.00    +0.000 C 
ATOM     12  N   UNL     1      -2.798  13.150  23.830  0.00  0.00    +0.000 NA
ATOM     13  C   UNL     1      -3.970  13.860  24.315  0.00  0.00    +0.000 C 
ATOM     14  C   UNL     1      -5.247  13.052  24.070  0.00  0.00    +0.000 C 
ATOM     15  C   UNL     1      -5.831  13.221  22.662  0.00  0.00    +0.000 C 
ATOM     16  C   UNL     1      -7.120  12.410  22.523  0.00  0.00    +0.000 C 
ATOM     17  C   UNL     1      -7.847  12.587  21.188  0.00  0.00    +0.000 C 
ATOM     18  C   UNL     1      -7.296  11.753  20.022  0.00  0.00    +0.000 C 
ATOM     19  N   UNL     1      -6.106  12.214  19.303  0.00  0.00    +0.000 N 
ATOM     20  C   UNL     1      -5.872  13.649  19.178  0.00  0.00    +0.000 C 
ATOM     21  C   UNL     1      -5.390  11.247  18.581  0.00  0.00    +0.000 C 
ATOM     22  O   UNL     1      -5.665  10.047  18.653  0.00  0.00    +0.000 OA
ATOM     23  H   UNL     1      -2.748  10.178  18.253  0.00  0.00    +0.000 HD
ATOM     24  H   UNL     1      -2.062  13.076  24.533  0.00  0.00    +0.000 HD
ENDROOT
BRANCH   1  25
ATOM     25  C   UNL     1      -4.314  11.145  16.245  0.00  0.00    +0.000 C 
BRANCH  25  27
ATOM     26  C   UNL     1      -2.401   9.428  16.351  0.00  0.00    +0.000 C 
ATOM     27  C   UNL     1      -3.005  10.617  15.608  0.00  0.00    +0.000 C 
ATOM     28  C   UNL     1      -3.241  10.185  14.156  0.00  0.00    +0.000 C 
ENDBRANCH  25  27
ENDBRANCH   1  25
BRANCH  11  29
ATOM     29  C   UNL     1      -1.702  15.126  22.561  0.00  0.00    +0.000 C 
BRANCH  29  30
ATOM     30  C   UNL     1      -2.116  15.986  21.386  0.00  0.00    +0.000 A 
ATOM     31  C   UNL     1      -1.156  16.403  20.454  0.00  0.00    +0.000 A 
ATOM     32  C   UNL     1      -1.464  17.368  19.497  0.00  0.00    +0.000 A 
ATOM     33  C   UNL     1      -2.756  17.877  19.416  0.00  0.00    +0.000 A 
ATOM     34  C   UNL     1      -3.751  17.367  20.244  0.00  0.00    +0.000 A 
ATOM     35  C   UNL     1      -3.437  16.410  21.208  0.00  0.00    +0.000 A 
ENDBRANCH  29  30
ENDBRANCH  11  29
TORSDOF 4
ENDMDL
