MODEL 1
REMARK VINA RESULT:      -7.3      0.000      0.000
REMARK  Name = 
REMARK  4 active torsions:
REMARK  status: ('A' for Active; 'I' for Inactive)
REMARK    1  A    between atoms: C_2  and  C_3
REMARK    2  A    between atoms: C_9  and  N_10
REMARK    3  A    between atoms: C_16  and  S_17
REMARK    4  A    between atoms: S_17  and  N_20
REMARK                            x       y       z     vdW  Elec       q    Type
REMARK                         _______ _______ _______ _____ _____    ______ ____
ROOT
ATOM      1  N   UNL     1       3.984   4.245  18.980  0.00  0.00    +0.000 N 
ATOM      2  C   UNL     1       3.507   2.938  19.472  0.00  0.00    +0.000 C 
ATOM      3  C   UNL     1       3.298   2.985  20.977  0.00  0.00    +0.000 C 
ATOM      4  O   UNL     1       2.284   3.923  21.339  0.00  0.00    +0.000 OA
ATOM      5  C   UNL     1       2.406   5.123  20.677  0.00  0.00    +0.000 A 
ATOM      6  C   UNL     1       1.616   6.147  21.203  0.00  0.00    +0.000 A 
ATOM      7  C   UNL     1       1.653   7.413  20.622  0.00  0.00    +0.000 A 
ATOM      8  C   UNL     1       2.446   7.647  19.502  0.00  0.00    +0.000 A 
ATOM      9  C   UNL     1       3.202   6.602  18.958  0.00  0.00    +0.000 A 
ATOM     10  C   UNL     1       3.216   5.318  19.533  0.00  0.00    +0.000 A 
ENDROOT
BRANCH   1  17
ATOM     11  C   UNL     1       6.230   4.700  17.969  0.00  0.00    +0.000 A 
ATOM     12  C   UNL     1       7.090   4.685  16.851  0.00  0.00    +0.000 A 
ATOM     13  C   UNL     1       6.650   4.227  15.618  0.00  0.00    +0.000 A 
ATOM     14  C   UNL     1       5.331   3.822  15.480  0.00  0.00    +0.000 A 
ATOM     15  C   UNL     1       4.449   3.880  16.572  0.00  0.00    +0.000 A 
ATOM     16 CL   UNL     1       2.786   3.536  16.196  0.00  0.00    +0.000 Cl
ATOM     17  C   UNL     1       4.877   4.278  17.871  0.00  0.00    +0.000 A 
BRANCH  11  19
ATOM     18  N   UNL     1       7.379   5.502  20.155  0.00  0.00    +0.000 NA
ATOM     19  C   UNL     1       6.833   5.150  19.190  0.00  0.00    +0.000 C 
ENDBRANCH  11  19
ENDBRANCH   1  17
BRANCH   7  20
ATOM     20  S   UNL     1       0.558   8.676  21.221  0.00  0.00    +0.000 S 
ATOM     21  O   UNL     1      -0.712   8.040  21.513  0.00  0.00    +0.000 OA
ATOM     22  O   UNL     1       1.267   9.420  22.237  0.00  0.00    +0.000 OA
BRANCH  20  23
ATOM     23  N   UNL     1       0.291   9.604  19.829  0.00  0.00    +0.000 N 
ATOM     24  C   UNL     1      -0.065  10.929  20.161  0.00  0.00    +0.000 A 
ATOM     25  N   UNL     1      -1.326  11.277  20.121  0.00  0.00    +0.000 NA
ATOM     26  C   UNL     1      -1.433  12.595  20.526  0.00  0.00    +0.000 A 
ATOM     27  C   UNL     1      -0.239  13.252  20.743  0.00  0.00    +0.000 A 
ATOM     28  S   UNL     1       1.065  12.167  20.490  0.00  0.00    +0.000 S 
ATOM     29  H   UNL     1      -0.505   9.169  19.362  0.00  0.00    +0.000 HD
ENDBRANCH  20  23
ENDBRANCH   7  20
TORSDOF 4
ENDMDL
MODEL 2
REMARK VINA RESULT:      -7.2      0.978      1.104
REMARK  Name = 
REMARK  4 active torsions:
REMARK  status: ('A' for Active; 'I' for Inactive)
REMARK    1  A    between atoms: C_2  and  C_3
REMARK    2  A    between atoms: C_9  and  N_10
REMARK    3  A    between atoms: C_16  and  S_17
REMARK    4  A    between atoms: S_17  and  N_20
REMARK                            x       y       z     vdW  Elec       q    Type
REMARK                         _______ _______ _______ _____ _____    ______ ____
ROOT
ATOM      1  N   UNL     1       3.912   4.348  18.994  0.00  0.00    +0.000 N 
ATOM      2  C   UNL     1       3.383   3.091  19.557  0.00  0.00    +0.000 C 
ATOM      3  C   UNL     1       3.178   3.228  21.057  0.00  0.00    +0.000 C 
ATOM      4  O   UNL     1       2.203   4.224  21.366  0.00  0.00    +0.000 OA
ATOM      5  C   UNL     1       2.373   5.380  20.640  0.00  0.00    +0.000 A 
ATOM      6  C   UNL     1       1.624   6.463  21.109  0.00  0.00    +0.000 A 
ATOM      7  C   UNL     1       1.712   7.693  20.460  0.00  0.00    +0.000 A 
ATOM      8  C   UNL     1       2.512   7.833  19.329  0.00  0.00    +0.000 A 
ATOM      9  C   UNL     1       3.225   6.730  18.843  0.00  0.00    +0.000 A 
ATOM     10  C   UNL     1       3.188   5.480  19.488  0.00  0.00    +0.000 A 
ENDROOT
BRANCH   1  17
ATOM     11  C   UNL     1       6.175   4.651  17.964  0.00  0.00    +0.000 A 
ATOM     12  C   UNL     1       7.032   4.541  16.849  0.00  0.00    +0.000 A 
ATOM     13  C   UNL     1       6.570   4.041  15.641  0.00  0.00    +0.000 A 
ATOM     14  C   UNL     1       5.234   3.689  15.522  0.00  0.00    +0.000 A 
ATOM     15  C   UNL     1       4.357   3.841  16.609  0.00  0.00    +0.000 A 
ATOM     16 CL   UNL     1       2.680   3.553  16.249  0.00  0.00    +0.000 Cl
ATOM     17  C   UNL     1       4.804   4.286  17.886  0.00  0.00    +0.000 A 
BRANCH  11  19
ATOM     18  N   UNL     1       7.306   5.585  20.107  0.00  0.00    +0.000 NA
ATOM     19  C   UNL     1       6.799   5.135  19.162  0.00  0.00    +0.000 C 
ENDBRANCH  11  19
ENDBRANCH   1  17
BRANCH   7  20
ATOM     20  S   UNL     1       0.669   9.029  20.988  0.00  0.00    +0.000 S 
ATOM     21  O   UNL     1      -0.698   8.546  20.953  0.00  0.00    +0.000 OA
ATOM     22  O   UNL     1       1.236   9.569  22.203  0.00  0.00    +0.000 OA
BRANCH  20  23
ATOM     23  N   UNL     1       0.800  10.114  19.694  0.00  0.00    +0.000 N 
ATOM     24  C   UNL     1      -0.466  10.613  19.317  0.00  0.00    +0.000 A 
ATOM     25  N   UNL     1      -1.067  10.099  18.274  0.00  0.00    +0.000 NA
ATOM     26  C   UNL     1      -2.300  10.710  18.130  0.00  0.00    +0.000 A 
ATOM     27  C   UNL     1      -2.551  11.759  18.992  0.00  0.00    +0.000 A 
ATOM     28  S   UNL     1      -1.224  11.951  20.061  0.00  0.00    +0.000 S 
ATOM     29  H   UNL     1       1.168   9.564  18.916  0.00  0.00    +0.000 HD
ENDBRANCH  20  23
ENDBRANCH   7  20
TORSDOF 4
ENDMDL
MODEL 3
REMARK VINA RESULT:      -7.2      3.386      8.040
REMARK  Name = 
REMARK  4 active torsions:
REMARK  status: ('A' for Active; 'I' for Inactive)
REMARK    1  A    between atoms: C_2  and  C_3
REMARK    2  A    between atoms: C_9  and  N_10
REMARK    3  A    between atoms: C_16  and  S_17
REMARK    4  A    between atoms: S_17  and  N_20
REMARK                            x       y       z     vdW  Elec       q    Type
REMARK                         _______ _______ _______ _____ _____    ______ ____
ROOT
ATOM      1  N   UNL     1       0.447  10.036  20.032  0.00  0.00    +0.000 N 
ATOM      2  C   UNL     1       0.214   9.891  21.481  0.00  0.00    +0.000 C 
ATOM      3  C   UNL     1      -0.079   8.440  21.827  0.00  0.00    +0.000 C 
ATOM      4  O   UNL     1       1.032   7.593  21.532  0.00  0.00    +0.000 OA
ATOM      5  C   UNL     1       1.589   7.853  20.301  0.00  0.00    +0.000 A 
ATOM      6  C   UNL     1       2.485   6.875  19.863  0.00  0.00    +0.000 A 
ATOM      7  C   UNL     1       3.114   7.021  18.628  0.00  0.00    +0.000 A 
ATOM      8  C   UNL     1       2.878   8.152  17.851  0.00  0.00    +0.000 A 
ATOM      9  C   UNL     1       2.010   9.146  18.320  0.00  0.00    +0.000 A 
ATOM     10  C   UNL     1       1.332   9.022  19.546  0.00  0.00    +0.000 A 
ENDROOT
BRANCH   1  17
ATOM     11  C   UNL     1       0.665  12.497  19.623  0.00  0.00    +0.000 A 
ATOM     12  C   UNL     1       0.258  13.661  18.937  0.00  0.00    +0.000 A 
ATOM     13  C   UNL     1      -0.745  13.611  17.980  0.00  0.00    +0.000 A 
ATOM     14  C   UNL     1      -1.384  12.405  17.734  0.00  0.00    +0.000 A 
ATOM     15  C   UNL     1      -1.023  11.249  18.447  0.00  0.00    +0.000 A 
ATOM     16 CL   UNL     1      -2.046   9.868  18.176  0.00  0.00    +0.000 Cl
ATOM     17  C   UNL     1       0.046  11.240  19.387  0.00  0.00    +0.000 A 
BRANCH  11  19
ATOM     18  N   UNL     1       2.660  12.859  21.246  0.00  0.00    +0.000 NA
ATOM     19  C   UNL     1       1.747  12.687  20.546  0.00  0.00    +0.000 C 
ENDBRANCH  11  19
ENDBRANCH   1  17
BRANCH   7  20
ATOM     20  S   UNL     1       4.339   5.836  18.132  0.00  0.00    +0.000 S 
ATOM     21  O   UNL     1       5.250   6.512  17.230  0.00  0.00    +0.000 OA
ATOM     22  O   UNL     1       4.823   5.185  19.328  0.00  0.00    +0.000 OA
BRANCH  20  23
ATOM     23  N   UNL     1       3.438   4.780  17.160  0.00  0.00    +0.000 N 
ATOM     24  C   UNL     1       3.065   3.621  17.875  0.00  0.00    +0.000 A 
ATOM     25  N   UNL     1       3.750   2.520  17.703  0.00  0.00    +0.000 NA
ATOM     26  C   UNL     1       3.231   1.544  18.535  0.00  0.00    +0.000 A 
ATOM     27  C   UNL     1       2.088   1.893  19.226  0.00  0.00    +0.000 A 
ATOM     28  S   UNL     1       1.679   3.520  18.869  0.00  0.00    +0.000 S 
ATOM     29  H   UNL     1       4.070   4.499  16.408  0.00  0.00    +0.000 HD
ENDBRANCH  20  23
ENDBRANCH   7  20
TORSDOF 4
ENDMDL
MODEL 4
REMARK VINA RESULT:      -7.1      3.703      8.375
REMARK  Name = 
REMARK  4 active torsions:
REMARK  status: ('A' for Active; 'I' for Inactive)
REMARK    1  A    between atoms: C_2  and  C_3
REMARK    2  A    between atoms: C_9  and  N_10
REMARK    3  A    between atoms: C_16  and  S_17
REMARK    4  A    between atoms: S_17  and  N_20
REMARK                            x       y       z     vdW  Elec       q    Type
REMARK                         _______ _______ _______ _____ _____    ______ ____
ROOT
ATOM      1  N   UNL     1       0.584  10.480  20.191  0.00  0.00    +0.000 N 
ATOM      2  C   UNL     1       0.427  10.350  21.652  0.00  0.00    +0.000 C 
ATOM      3  C   UNL     1      -0.002   8.937  22.014  0.00  0.00    +0.000 C 
ATOM      4  O   UNL     1       0.989   7.976  21.649  0.00  0.00    +0.000 OA
ATOM      5  C   UNL     1       1.493   8.183  20.387  0.00  0.00    +0.000 A 
ATOM      6  C   UNL     1       2.248   7.115  19.892  0.00  0.00    +0.000 A 
ATOM      7  C   UNL     1       2.811   7.201  18.621  0.00  0.00    +0.000 A 
ATOM      8  C   UNL     1       2.653   8.358  17.861  0.00  0.00    +0.000 A 
ATOM      9  C   UNL     1       1.932   9.437  18.384  0.00  0.00    +0.000 A 
ATOM     10  C   UNL     1       1.321   9.379  19.650  0.00  0.00    +0.000 A 
ENDROOT
BRANCH   1  17
ATOM     11  C   UNL     1      -0.781  11.901  18.645  0.00  0.00    +0.000 A 
ATOM     12  C   UNL     1      -1.069  13.162  18.083  0.00  0.00    +0.000 A 
ATOM     13  C   UNL     1      -0.343  14.287  18.444  0.00  0.00    +0.000 A 
ATOM     14  C   UNL     1       0.711  14.153  19.336  0.00  0.00    +0.000 A 
ATOM     15  C   UNL     1       1.042  12.894  19.864  0.00  0.00    +0.000 A 
ATOM     16 CL   UNL     1       2.505  12.850  20.804  0.00  0.00    +0.000 Cl
ATOM     17  C   UNL     1       0.280  11.726  19.574  0.00  0.00    +0.000 A 
BRANCH  11  19
ATOM     18  N   UNL     1      -2.298   9.953  17.840  0.00  0.00    +0.000 NA
ATOM     19  C   UNL     1      -1.645  10.837  18.220  0.00  0.00    +0.000 C 
ENDBRANCH  11  19
ENDBRANCH   1  17
BRANCH   7  20
ATOM     20  S   UNL     1       3.865   5.892  18.048  0.00  0.00    +0.000 S 
ATOM     21  O   UNL     1       4.666   6.429  16.965  0.00  0.00    +0.000 OA
ATOM     22  O   UNL     1       4.488   5.297  19.209  0.00  0.00    +0.000 OA
BRANCH  20  23
ATOM     23  N   UNL     1       2.758   4.840  17.316  0.00  0.00    +0.000 N 
ATOM     24  C   UNL     1       2.553   3.687  18.105  0.00  0.00    +0.000 A 
ATOM     25  N   UNL     1       3.172   2.580  17.785  0.00  0.00    +0.000 NA
ATOM     26  C   UNL     1       2.854   1.610  18.719  0.00  0.00    +0.000 A 
ATOM     27  C   UNL     1       1.903   1.970  19.653  0.00  0.00    +0.000 A 
ATOM     28  S   UNL     1       1.432   3.599  19.391  0.00  0.00    +0.000 S 
ATOM     29  H   UNL     1       3.197   4.551  16.441  0.00  0.00    +0.000 HD
ENDBRANCH  20  23
ENDBRANCH   7  20
TORSDOF 4
ENDMDL
MODEL 5
REMARK VINA RESULT:      -7.0      3.516      8.604
REMARK  Name = 
REMARK  4 active torsions:
REMARK  status: ('A' for Active; 'I' for Inactive)
REMARK    1  A    between atoms: C_2  and  C_3
REMARK    2  A    between atoms: C_9  and  N_10
REMARK    3  A    between atoms: C_16  and  S_17
REMARK    4  A    between atoms: S_17  and  N_20
REMARK                            x       y       z     vdW  Elec       q    Type
REMARK                         _______ _______ _______ _____ _____    ______ ____
ROOT
ATOM      1  N   UNL     1       0.593  10.394  20.166  0.00  0.00    +0.000 N 
ATOM      2  C   UNL     1       0.465  10.235  21.627  0.00  0.00    +0.000 C 
ATOM      3  C   UNL     1       0.052   8.813  21.970  0.00  0.00    +0.000 C 
ATOM      4  O   UNL     1       1.042   7.866  21.567  0.00  0.00    +0.000 OA
ATOM      5  C   UNL     1       1.520   8.100  20.299  0.00  0.00    +0.000 A 
ATOM      6  C   UNL     1       2.271   7.048  19.769  0.00  0.00    +0.000 A 
ATOM      7  C   UNL     1       2.808   7.162  18.489  0.00  0.00    +0.000 A 
ATOM      8  C   UNL     1       2.628   8.331  17.755  0.00  0.00    +0.000 A 
ATOM      9  C   UNL     1       1.911   9.396  18.313  0.00  0.00    +0.000 A 
ATOM     10  C   UNL     1       1.325   9.309  19.590  0.00  0.00    +0.000 A 
ENDROOT
BRANCH   1  17
ATOM     11  C   UNL     1      -0.810  11.836  18.674  0.00  0.00    +0.000 A 
ATOM     12  C   UNL     1      -1.118  13.106  18.142  0.00  0.00    +0.000 A 
ATOM     13  C   UNL     1      -0.392  14.228  18.512  0.00  0.00    +0.000 A 
ATOM     14  C   UNL     1       0.678  14.085  19.382  0.00  0.00    +0.000 A 
ATOM     15  C   UNL     1       1.027  12.818  19.880  0.00  0.00    +0.000 A 
ATOM     16 CL   UNL     1       2.508  12.767  20.791  0.00  0.00    +0.000 Cl
ATOM     17  C   UNL     1       0.268  11.651  19.580  0.00  0.00    +0.000 A 
BRANCH  11  19
ATOM     18  N   UNL     1      -2.420   9.938  17.932  0.00  0.00    +0.000 NA
ATOM     19  C   UNL     1      -1.674  10.775  18.243  0.00  0.00    +0.000 C 
ENDBRANCH  11  19
ENDBRANCH   1  17
BRANCH   7  20
ATOM     20  S   UNL     1       3.859   5.871  17.870  0.00  0.00    +0.000 S 
ATOM     21  O   UNL     1       4.917   5.676  18.842  0.00  0.00    +0.000 OA
ATOM     22  O   UNL     1       3.008   4.774  17.467  0.00  0.00    +0.000 OA
BRANCH  20  23
ATOM     23  N   UNL     1       4.596   6.620  16.541  0.00  0.00    +0.000 N 
ATOM     24  C   UNL     1       5.524   5.757  15.920  0.00  0.00    +0.000 A 
ATOM     25  N   UNL     1       6.799   5.905  16.174  0.00  0.00    +0.000 NA
ATOM     26  C   UNL     1       7.501   4.927  15.493  0.00  0.00    +0.000 A 
ATOM     27  C   UNL     1       6.754   4.138  14.642  0.00  0.00    +0.000 A 
ATOM     28  S   UNL     1       5.104   4.596  14.739  0.00  0.00    +0.000 S 
ATOM     29  H   UNL     1       5.110   7.413  16.928  0.00  0.00    +0.000 HD
ENDBRANCH  20  23
ENDBRANCH   7  20
TORSDOF 4
ENDMDL
MODEL 6
REMARK VINA RESULT:      -7.0      3.154      8.305
REMARK  Name = 
REMARK  4 active torsions:
REMARK  status: ('A' for Active; 'I' for Inactive)
REMARK    1  A    between atoms: C_2  and  C_3
REMARK    2  A    between atoms: C_9  and  N_10
REMARK    3  A    between atoms: C_16  and  S_17
REMARK    4  A    between atoms: S_17  and  N_20
REMARK                            x       y       z     vdW  Elec       q    Type
REMARK                         _______ _______ _______ _____ _____    ______ ____
ROOT
ATOM      1  N   UNL     1       0.420  10.495  20.446  0.00  0.00    +0.000 N 
ATOM      2  C   UNL     1       0.238  10.586  21.907  0.00  0.00    +0.000 C 
ATOM      3  C   UNL     1      -0.335   9.287  22.450  0.00  0.00    +0.000 C 
ATOM      4  O   UNL     1       0.555   8.191  22.243  0.00  0.00    +0.000 OA
ATOM      5  C   UNL     1       1.089   8.168  20.975  0.00  0.00    +0.000 A 
ATOM      6  C   UNL     1       1.734   6.973  20.649  0.00  0.00    +0.000 A 
ATOM      7  C   UNL     1       2.314   6.825  19.391  0.00  0.00    +0.000 A 
ATOM      8  C   UNL     1       2.281   7.874  18.476  0.00  0.00    +0.000 A 
ATOM      9  C   UNL     1       1.668   9.083  18.829  0.00  0.00    +0.000 A 
ATOM     10  C   UNL     1       1.045   9.262  20.078  0.00  0.00    +0.000 A 
ENDROOT
BRANCH   1  17
ATOM     11  C   UNL     1      -0.739  11.791  18.643  0.00  0.00    +0.000 A 
ATOM     12  C   UNL     1      -0.896  12.985  17.907  0.00  0.00    +0.000 A 
ATOM     13  C   UNL     1      -0.108  14.095  18.172  0.00  0.00    +0.000 A 
ATOM     14  C   UNL     1       0.878  14.007  19.143  0.00  0.00    +0.000 A 
ATOM     15  C   UNL     1       1.079  12.809  19.848  0.00  0.00    +0.000 A 
ATOM     16 CL   UNL     1       2.477  12.789  20.883  0.00  0.00    +0.000 Cl
ATOM     17  C   UNL     1       0.248  11.668  19.657  0.00  0.00    +0.000 A 
BRANCH  11  19
ATOM     18  N   UNL     1      -2.416   9.891  18.078  0.00  0.00    +0.000 NA
ATOM     19  C   UNL     1      -1.656  10.743  18.297  0.00  0.00    +0.000 C 
ENDBRANCH  11  19
ENDBRANCH   1  17
BRANCH   7  20
ATOM     20  S   UNL     1       3.234   5.350  19.027  0.00  0.00    +0.000 S 
ATOM     21  O   UNL     1       2.792   4.328  19.956  0.00  0.00    +0.000 OA
ATOM     22  O   UNL     1       3.166   5.137  17.599  0.00  0.00    +0.000 OA
BRANCH  20  23
ATOM     23  N   UNL     1       4.796   5.774  19.529  0.00  0.00    +0.000 N 
ATOM     24  C   UNL     1       5.731   5.601  18.485  0.00  0.00    +0.000 A 
ATOM     25  N   UNL     1       6.481   4.529  18.476  0.00  0.00    +0.000 NA
ATOM     26  C   UNL     1       7.278   4.557  17.346  0.00  0.00    +0.000 A 
ATOM     27  C   UNL     1       7.201   5.710  16.590  0.00  0.00    +0.000 A 
ATOM     28  S   UNL     1       6.048   6.773  17.284  0.00  0.00    +0.000 S 
ATOM     29  H   UNL     1       5.028   5.117  20.275  0.00  0.00    +0.000 HD
ENDBRANCH  20  23
ENDBRANCH   7  20
TORSDOF 4
ENDMDL
MODEL 7
REMARK VINA RESULT:      -6.9      3.036      8.033
REMARK  Name = 
REMARK  4 active torsions:
REMARK  status: ('A' for Active; 'I' for Inactive)
REMARK    1  A    between atoms: C_2  and  C_3
REMARK    2  A    between atoms: C_9  and  N_10
REMARK    3  A    between atoms: C_16  and  S_17
REMARK    4  A    between atoms: S_17  and  N_20
REMARK                            x       y       z     vdW  Elec       q    Type
REMARK                         _______ _______ _______ _____ _____    ______ ____
ROOT
ATOM      1  N   UNL     1       0.482  10.445  20.411  0.00  0.00    +0.000 N 
ATOM      2  C   UNL     1       0.395  10.571  21.878  0.00  0.00    +0.000 C 
ATOM      3  C   UNL     1      -0.123   9.279  22.489  0.00  0.00    +0.000 C 
ATOM      4  O   UNL     1       0.769   8.189  22.251  0.00  0.00    +0.000 OA
ATOM      5  C   UNL     1       1.218   8.142  20.952  0.00  0.00    +0.000 A 
ATOM      6  C   UNL     1       1.859   6.947  20.614  0.00  0.00    +0.000 A 
ATOM      7  C   UNL     1       2.357   6.774  19.324  0.00  0.00    +0.000 A 
ATOM      8  C   UNL     1       2.249   7.800  18.388  0.00  0.00    +0.000 A 
ATOM      9  C   UNL     1       1.644   9.009  18.751  0.00  0.00    +0.000 A 
ATOM     10  C   UNL     1       1.100   9.211  20.033  0.00  0.00    +0.000 A 
ENDROOT
BRANCH   1  17
ATOM     11  C   UNL     1       0.990  12.798  19.719  0.00  0.00    +0.000 A 
ATOM     12  C   UNL     1       0.741  13.903  18.877  0.00  0.00    +0.000 A 
ATOM     13  C   UNL     1      -0.226  13.841  17.885  0.00  0.00    +0.000 A 
ATOM     14  C   UNL     1      -0.988  12.689  17.756  0.00  0.00    +0.000 A 
ATOM     15  C   UNL     1      -0.785  11.600  18.620  0.00  0.00    +0.000 A 
ATOM     16 CL   UNL     1      -1.946  10.313  18.469  0.00  0.00    +0.000 Cl
ATOM     17  C   UNL     1       0.243  11.595  19.606  0.00  0.00    +0.000 A 
BRANCH  11  19
ATOM     18  N   UNL     1       2.939  13.181  21.392  0.00  0.00    +0.000 NA
ATOM     19  C   UNL     1       2.053  12.986  20.664  0.00  0.00    +0.000 C 
ENDBRANCH  11  19
ENDBRANCH   1  17
BRANCH   7  20
ATOM     20  S   UNL     1       3.273   5.304  18.937  0.00  0.00    +0.000 S 
ATOM     21  O   UNL     1       2.827   4.268  19.848  0.00  0.00    +0.000 OA
ATOM     22  O   UNL     1       3.206   5.114  17.506  0.00  0.00    +0.000 OA
BRANCH  20  23
ATOM     23  N   UNL     1       4.836   5.714  19.447  0.00  0.00    +0.000 N 
ATOM     24  C   UNL     1       5.770   5.565  18.399  0.00  0.00    +0.000 A 
ATOM     25  N   UNL     1       6.519   4.493  18.364  0.00  0.00    +0.000 NA
ATOM     26  C   UNL     1       7.315   4.547  17.234  0.00  0.00    +0.000 A 
ATOM     27  C   UNL     1       7.238   5.717  16.506  0.00  0.00    +0.000 A 
ATOM     28  S   UNL     1       6.087   6.765  17.226  0.00  0.00    +0.000 S 
ATOM     29  H   UNL     1       5.068   5.040  20.178  0.00  0.00    +0.000 HD
ENDBRANCH  20  23
ENDBRANCH   7  20
TORSDOF 4
ENDMDL
MODEL 8
REMARK VINA RESULT:      -6.9      3.325      8.594
REMARK  Name = 
REMARK  4 active torsions:
REMARK  status: ('A' for Active; 'I' for Inactive)
REMARK    1  A    between atoms: C_2  and  C_3
REMARK    2  A    between atoms: C_9  and  N_10
REMARK    3  A    between atoms: C_16  and  S_17
REMARK    4  A    between atoms: S_17  and  N_20
REMARK                            x       y       z     vdW  Elec       q    Type
REMARK                         _______ _______ _______ _____ _____    ______ ____
ROOT
ATOM      1  N   UNL     1       0.493  10.987  20.457  0.00  0.00    +0.000 N 
ATOM      2  C   UNL     1       0.346  10.925  21.924  0.00  0.00    +0.000 C 
ATOM      3  C   UNL     1      -0.247   9.589  22.340  0.00  0.00    +0.000 C 
ATOM      4  O   UNL     1       0.612   8.502  21.996  0.00  0.00    +0.000 OA
ATOM      5  C   UNL     1       1.116   8.603  20.721  0.00  0.00    +0.000 A 
ATOM      6  C   UNL     1       1.724   7.435  20.254  0.00  0.00    +0.000 A 
ATOM      7  C   UNL     1       2.272   7.408  18.972  0.00  0.00    +0.000 A 
ATOM      8  C   UNL     1       2.244   8.550  18.175  0.00  0.00    +0.000 A 
ATOM      9  C   UNL     1       1.670   9.727  18.670  0.00  0.00    +0.000 A 
ATOM     10  C   UNL     1       1.079   9.786  19.945  0.00  0.00    +0.000 A 
ENDROOT
BRANCH   1  17
ATOM     11  C   UNL     1      -0.726  12.521  18.897  0.00  0.00    +0.000 A 
ATOM     12  C   UNL     1      -0.866  13.789  18.294  0.00  0.00    +0.000 A 
ATOM     13  C   UNL     1       0.013  14.820  18.591  0.00  0.00    +0.000 A 
ATOM     14  C   UNL     1       1.069  14.580  19.457  0.00  0.00    +0.000 A 
ATOM     15  C   UNL     1       1.250  13.307  20.024  0.00  0.00    +0.000 A 
ATOM     16 CL   UNL     1       2.726  13.104  20.923  0.00  0.00    +0.000 Cl
ATOM     17  C   UNL     1       0.333  12.240  19.801  0.00  0.00    +0.000 A 
BRANCH  11  19
ATOM     18  N   UNL     1      -2.507  10.751  18.234  0.00  0.00    +0.000 NA
ATOM     19  C   UNL     1      -1.735  11.566  18.538  0.00  0.00    +0.000 C 
ENDBRANCH  11  19
ENDBRANCH   1  17
BRANCH   7  20
ATOM     20  S   UNL     1       3.147   5.961  18.432  0.00  0.00    +0.000 S 
ATOM     21  O   UNL     1       3.990   5.534  19.531  0.00  0.00    +0.000 OA
ATOM     22  O   UNL     1       2.179   5.063  17.844  0.00  0.00    +0.000 OA
BRANCH  20  23
ATOM     23  N   UNL     1       4.203   6.599  17.271  0.00  0.00    +0.000 N 
ATOM     24  C   UNL     1       5.450   5.936  17.298  0.00  0.00    +0.000 A 
ATOM     25  N   UNL     1       6.457   6.503  17.911  0.00  0.00    +0.000 NA
ATOM     26  C   UNL     1       7.548   5.654  17.844  0.00  0.00    +0.000 A 
ATOM     27  C   UNL     1       7.377   4.521  17.076  0.00  0.00    +0.000 A 
ATOM     28  S   UNL     1       5.776   4.483  16.461  0.00  0.00    +0.000 S 
ATOM     29  H   UNL     1       4.354   7.570  17.547  0.00  0.00    +0.000 HD
ENDBRANCH  20  23
ENDBRANCH   7  20
TORSDOF 4
ENDMDL
MODEL 9
REMARK VINA RESULT:      -6.9      3.726      8.546
REMARK  Name = 
REMARK  4 active torsions:
REMARK  status: ('A' for Active; 'I' for Inactive)
REMARK    1  A    between atoms: C_2  and  C_3
REMARK    2  A    between atoms: C_9  and  N_10
REMARK    3  A    between atoms: C_16  and  S_17
REMARK    4  A    between atoms: S_17  and  N_20
REMARK                            x       y       z     vdW  Elec       q    Type
REMARK                         _______ _______ _______ _____ _____    ______ ____
ROOT
ATOM      1  N   UNL     1       0.481  11.362  20.482  0.00  0.00    +0.000 N 
ATOM      2  C   UNL     1       0.272  11.248  21.937  0.00  0.00    +0.000 C 
ATOM      3  C   UNL     1      -0.376   9.915  22.276  0.00  0.00    +0.000 C 
ATOM      4  O   UNL     1       0.465   8.817  21.924  0.00  0.00    +0.000 OA
ATOM      5  C   UNL     1       1.025   8.952  20.675  0.00  0.00    +0.000 A 
ATOM      6  C   UNL     1       1.619   7.785  20.186  0.00  0.00    +0.000 A 
ATOM      7  C   UNL     1       2.218   7.792  18.928  0.00  0.00    +0.000 A 
ATOM      8  C   UNL     1       2.256   8.964  18.177  0.00  0.00    +0.000 A 
ATOM      9  C   UNL     1       1.695  10.138  18.694  0.00  0.00    +0.000 A 
ATOM     10  C   UNL     1       1.053  10.165  19.946  0.00  0.00    +0.000 A 
ENDROOT
BRANCH   1  17
ATOM     11  C   UNL     1      -0.690  13.028  19.024  0.00  0.00    +0.000 A 
ATOM     12  C   UNL     1      -0.764  14.322  18.465  0.00  0.00    +0.000 A 
ATOM     13  C   UNL     1       0.199  15.278  18.751  0.00  0.00    +0.000 A 
ATOM     14  C   UNL     1       1.272  14.935  19.561  0.00  0.00    +0.000 A 
ATOM     15  C   UNL     1       1.385  13.635  20.082  0.00  0.00    +0.000 A 
ATOM     16 CL   UNL     1       2.879  13.299  20.906  0.00  0.00    +0.000 Cl
ATOM     17  C   UNL     1       0.384  12.644  19.870  0.00  0.00    +0.000 A 
BRANCH  11  19
ATOM     18  N   UNL     1      -2.702  11.506  18.409  0.00  0.00    +0.000 NA
ATOM     19  C   UNL     1      -1.780  12.160  18.683  0.00  0.00    +0.000 C 
ENDBRANCH  11  19
ENDBRANCH   1  17
BRANCH   7  20
ATOM     20  S   UNL     1       3.073   6.342  18.367  0.00  0.00    +0.000 S 
ATOM     21  O   UNL     1       2.073   5.422  17.862  0.00  0.00    +0.000 OA
ATOM     22  O   UNL     1       4.169   6.779  17.532  0.00  0.00    +0.000 OA
BRANCH  20  23
ATOM     23  N   UNL     1       3.619   5.666  19.821  0.00  0.00    +0.000 N 
ATOM     24  C   UNL     1       2.930   4.469  20.117  0.00  0.00    +0.000 A 
ATOM     25  N   UNL     1       1.953   4.497  20.987  0.00  0.00    +0.000 NA
ATOM     26  C   UNL     1       1.406   3.230  21.077  0.00  0.00    +0.000 A 
ATOM     27  C   UNL     1       2.061   2.245  20.366  0.00  0.00    +0.000 A 
ATOM     28  S   UNL     1       3.374   2.937  19.507  0.00  0.00    +0.000 S 
ATOM     29  H   UNL     1       3.388   6.351  20.542  0.00  0.00    +0.000 HD
ENDBRANCH  20  23
ENDBRANCH   7  20
TORSDOF 4
ENDMDL
