MODEL 1
REMARK VINA RESULT:      -8.4      0.000      0.000
REMARK  Name = 
REMARK  7 active torsions:
REMARK  status: ('A' for Active; 'I' for Inactive)
REMARK    1  A    between atoms: C_1  and  C_2
REMARK    2  A    between atoms: C_2  and  C_3
REMARK    3  A    between atoms: C_2  and  C_4
REMARK    4  A    between atoms: C_2  and  O_5
REMARK    5  A    between atoms: O_5  and  C_6
REMARK    6  A    between atoms: C_12  and  N_13
REMARK    7  A    between atoms: N_16  and  C_17
REMARK                            x       y       z     vdW  Elec       q    Type
REMARK                         _______ _______ _______ _____ _____    ______ ____
ROOT
ATOM      1  C   UNL     1       3.608   2.647  18.740  0.00  0.00    +0.000 C 
ATOM      2  O   UNL     1       3.245   1.824  17.901  0.00  0.00    +0.000 OA
ATOM      3  N   UNL     1       4.470   3.649  18.430  0.00  0.00    +0.000 N 
ATOM      4  C   UNL     1       5.114   4.720  19.152  0.00  0.00    +0.000 C 
ATOM      5  C   UNL     1       5.631   5.245  17.766  0.00  0.00    +0.000 C 
ATOM      6  C   UNL     1       7.126   5.410  17.479  0.00  0.00    +0.000 C 
ATOM      7  C   UNL     1       7.349   6.914  17.291  0.00  0.00    +0.000 C 
ATOM      8  C   UNL     1       5.951   7.520  17.114  0.00  0.00    +0.000 C 
ATOM      9  O   UNL     1       5.001   6.464  17.283  0.00  0.00    +0.000 OA
ATOM     10  C   UNL     1       5.091   3.931  17.158  0.00  0.00    +0.000 C 
ENDROOT
BRANCH   7  11
ATOM     11  N   UNL     1       8.148   7.530  18.351  0.00  0.00    +0.000 N 
ATOM     12  C   UNL     1       8.429   8.871  18.337  0.00  0.00    +0.000 C 
ATOM     13  O   UNL     1       7.995   9.592  17.448  0.00  0.00    +0.000 OA
ATOM     14  N   UNL     1       9.198   9.292  19.392  0.00  0.00    +0.000 N 
ATOM     15  H   UNL     1       8.671   6.927  18.968  0.00  0.00    +0.000 HD
ATOM     16  H   UNL     1       9.701   8.589  19.913  0.00  0.00    +0.000 HD
BRANCH  14  17
ATOM     17  C   UNL     1       9.544  10.646  19.620  0.00  0.00    +0.000 A 
ATOM     18  C   UNL     1       9.287  11.311  20.820  0.00  0.00    +0.000 A 
ATOM     19  C   UNL     1       9.579  12.663  20.955  0.00  0.00    +0.000 A 
ATOM     20  C   UNL     1      10.152  13.316  19.879  0.00  0.00    +0.000 A 
ATOM     21  N   UNL     1      10.460  12.708  18.713  0.00  0.00    +0.000 NA
ATOM     22  C   UNL     1      10.154  11.389  18.615  0.00  0.00    +0.000 A 
ENDBRANCH  14  17
ENDBRANCH   7  11
BRANCH   1  23
ATOM     23  O   UNL     1       3.212   2.655  20.044  0.00  0.00    +0.000 OA
BRANCH  23  25
ATOM     24  C   UNL     1       0.841   2.723  19.349  0.00  0.00    +0.000 C 
ATOM     25  C   UNL     1       1.890   3.170  20.378  0.00  0.00    +0.000 C 
ATOM     26  C   UNL     1       1.909   4.697  20.552  0.00  0.00    +0.000 C 
ATOM     27  C   UNL     1       1.509   2.545  21.733  0.00  0.00    +0.000 C 
ENDBRANCH  23  25
ENDBRANCH   1  23
TORSDOF 4
ENDMDL
MODEL 2
REMARK VINA RESULT:      -8.2      1.225      1.535
REMARK  Name = 
REMARK  7 active torsions:
REMARK  status: ('A' for Active; 'I' for Inactive)
REMARK    1  A    between atoms: C_1  and  C_2
REMARK    2  A    between atoms: C_2  and  C_3
REMARK    3  A    between atoms: C_2  and  C_4
REMARK    4  A    between atoms: C_2  and  O_5
REMARK    5  A    between atoms: O_5  and  C_6
REMARK    6  A    between atoms: C_12  and  N_13
REMARK    7  A    between atoms: N_16  and  C_17
REMARK                            x       y       z     vdW  Elec       q    Type
REMARK                         _______ _______ _______ _____ _____    ______ ____
ROOT
ATOM      1  C   UNL     1       4.054   3.316  18.618  0.00  0.00    +0.000 C 
ATOM      2  O   UNL     1       3.982   2.381  17.821  0.00  0.00    +0.000 OA
ATOM      3  N   UNL     1       4.971   4.306  18.475  0.00  0.00    +0.000 N 
ATOM      4  C   UNL     1       5.348   5.483  19.221  0.00  0.00    +0.000 C 
ATOM      5  C   UNL     1       6.288   5.853  18.020  0.00  0.00    +0.000 C 
ATOM      6  C   UNL     1       7.796   6.042  18.212  0.00  0.00    +0.000 C 
ATOM      7  C   UNL     1       8.070   7.520  17.912  0.00  0.00    +0.000 C 
ATOM      8  C   UNL     1       6.807   8.042  17.217  0.00  0.00    +0.000 C 
ATOM      9  O   UNL     1       5.851   6.977  17.206  0.00  0.00    +0.000 OA
ATOM     10  C   UNL     1       5.972   4.454  17.446  0.00  0.00    +0.000 C 
ENDROOT
BRANCH   7  11
ATOM     11  N   UNL     1       8.483   8.294  19.084  0.00  0.00    +0.000 N 
ATOM     12  C   UNL     1       9.005   9.553  18.952  0.00  0.00    +0.000 C 
ATOM     13  O   UNL     1       9.115  10.072  17.849  0.00  0.00    +0.000 OA
ATOM     14  N   UNL     1       9.353  10.141  20.142  0.00  0.00    +0.000 N 
ATOM     15  H   UNL     1       8.583   7.811  19.964  0.00  0.00    +0.000 HD
ATOM     16  H   UNL     1       9.456   9.541  20.947  0.00  0.00    +0.000 HD
BRANCH  14  17
ATOM     17  C   UNL     1       9.840  11.467  20.249  0.00  0.00    +0.000 A 
ATOM     18  C   UNL     1      11.085  11.867  19.763  0.00  0.00    +0.000 A 
ATOM     19  C   UNL     1      11.540  13.165  19.969  0.00  0.00    +0.000 A 
ATOM     20  C   UNL     1      10.712  14.045  20.642  0.00  0.00    +0.000 A 
ATOM     21  N   UNL     1       9.482  13.719  21.092  0.00  0.00    +0.000 NA
ATOM     22  C   UNL     1       9.074  12.442  20.881  0.00  0.00    +0.000 A 
ENDBRANCH  14  17
ENDBRANCH   7  11
BRANCH   1  23
ATOM     23  O   UNL     1       3.256   3.468  19.712  0.00  0.00    +0.000 OA
BRANCH  23  25
ATOM     24  C   UNL     1       0.841   2.959  19.866  0.00  0.00    +0.000 C 
ATOM     25  C   UNL     1       1.913   4.008  19.537  0.00  0.00    +0.000 C 
ATOM     26  C   UNL     1       1.724   4.600  18.132  0.00  0.00    +0.000 C 
ATOM     27  C   UNL     1       1.770   5.155  20.554  0.00  0.00    +0.000 C 
ENDBRANCH  23  25
ENDBRANCH   1  23
TORSDOF 4
ENDMDL
MODEL 3
REMARK VINA RESULT:      -8.1      0.676      1.289
REMARK  Name = 
REMARK  7 active torsions:
REMARK  status: ('A' for Active; 'I' for Inactive)
REMARK    1  A    between atoms: C_1  and  C_2
REMARK    2  A    between atoms: C_2  and  C_3
REMARK    3  A    between atoms: C_2  and  C_4
REMARK    4  A    between atoms: C_2  and  O_5
REMARK    5  A    between atoms: O_5  and  C_6
REMARK    6  A    between atoms: C_12  and  N_13
REMARK    7  A    between atoms: N_16  and  C_17
REMARK                            x       y       z     vdW  Elec       q    Type
REMARK                         _______ _______ _______ _____ _____    ______ ____
ROOT
ATOM      1  C   UNL     1       3.731   2.787  18.582  0.00  0.00    +0.000 C 
ATOM      2  O   UNL     1       3.381   2.005  17.700  0.00  0.00    +0.000 OA
ATOM      3  N   UNL     1       4.583   3.814  18.329  0.00  0.00    +0.000 N 
ATOM      4  C   UNL     1       5.213   4.852  19.109  0.00  0.00    +0.000 C 
ATOM      5  C   UNL     1       5.729   5.454  17.754  0.00  0.00    +0.000 C 
ATOM      6  C   UNL     1       7.224   5.650  17.483  0.00  0.00    +0.000 C 
ATOM      7  C   UNL     1       7.430   7.165  17.374  0.00  0.00    +0.000 C 
ATOM      8  C   UNL     1       6.026   7.763  17.223  0.00  0.00    +0.000 C 
ATOM      9  O   UNL     1       5.087   6.690  17.333  0.00  0.00    +0.000 OA
ATOM     10  C   UNL     1       5.206   4.168  17.076  0.00  0.00    +0.000 C 
ENDROOT
BRANCH   7  11
ATOM     11  N   UNL     1       8.219   7.733  18.469  0.00  0.00    +0.000 N 
ATOM     12  C   UNL     1       8.552   9.062  18.484  0.00  0.00    +0.000 C 
ATOM     13  O   UNL     1       8.176   9.812  17.593  0.00  0.00    +0.000 OA
ATOM     14  N   UNL     1       9.303   9.436  19.570  0.00  0.00    +0.000 N 
ATOM     15  H   UNL     1       8.697   7.101  19.092  0.00  0.00    +0.000 HD
ATOM     16  H   UNL     1       9.761   8.707  20.095  0.00  0.00    +0.000 HD
BRANCH  14  17
ATOM     17  C   UNL     1       9.695  10.773  19.829  0.00  0.00    +0.000 A 
ATOM     18  C   UNL     1      10.722  11.417  19.139  0.00  0.00    +0.000 A 
ATOM     19  C   UNL     1      11.113  12.704  19.495  0.00  0.00    +0.000 A 
ATOM     20  C   UNL     1      10.437  13.327  20.527  0.00  0.00    +0.000 A 
ATOM     21  N   UNL     1       9.408  12.763  21.195  0.00  0.00    +0.000 NA
ATOM     22  C   UNL     1       9.059  11.504  20.827  0.00  0.00    +0.000 A 
ENDBRANCH  14  17
ENDBRANCH   7  11
BRANCH   1  23
ATOM     23  O   UNL     1       3.331   2.723  19.883  0.00  0.00    +0.000 OA
BRANCH  23  25
ATOM     24  C   UNL     1       1.798   4.654  20.064  0.00  0.00    +0.000 C 
ATOM     25  C   UNL     1       1.976   3.138  20.226  0.00  0.00    +0.000 C 
ATOM     26  C   UNL     1       1.580   2.660  21.632  0.00  0.00    +0.000 C 
ATOM     27  C   UNL     1       1.041   2.449  19.214  0.00  0.00    +0.000 C 
ENDBRANCH  23  25
ENDBRANCH   1  23
TORSDOF 4
ENDMDL
MODEL 4
REMARK VINA RESULT:      -8.0      0.952      1.339
REMARK  Name = 
REMARK  7 active torsions:
REMARK  status: ('A' for Active; 'I' for Inactive)
REMARK    1  A    between atoms: C_1  and  C_2
REMARK    2  A    between atoms: C_2  and  C_3
REMARK    3  A    between atoms: C_2  and  C_4
REMARK    4  A    between atoms: C_2  and  O_5
REMARK    5  A    between atoms: O_5  and  C_6
REMARK    6  A    between atoms: C_12  and  N_13
REMARK    7  A    between atoms: N_16  and  C_17
REMARK                            x       y       z     vdW  Elec       q    Type
REMARK                         _______ _______ _______ _____ _____    ______ ____
ROOT
ATOM      1  C   UNL     1       4.020   3.253  18.742  0.00  0.00    +0.000 C 
ATOM      2  O   UNL     1       3.817   2.386  17.893  0.00  0.00    +0.000 OA
ATOM      3  N   UNL     1       4.907   4.261  18.536  0.00  0.00    +0.000 N 
ATOM      4  C   UNL     1       5.404   5.376  19.306  0.00  0.00    +0.000 C 
ATOM      5  C   UNL     1       6.139   5.852  18.003  0.00  0.00    +0.000 C 
ATOM      6  C   UNL     1       7.659   6.038  17.965  0.00  0.00    +0.000 C 
ATOM      7  C   UNL     1       7.887   7.538  17.747  0.00  0.00    +0.000 C 
ATOM      8  C   UNL     1       6.530   8.103  17.310  0.00  0.00    +0.000 C 
ATOM      9  O   UNL     1       5.582   7.035  17.365  0.00  0.00    +0.000 OA
ATOM     10  C   UNL     1       5.729   4.501  17.375  0.00  0.00    +0.000 C 
ENDROOT
BRANCH   7  11
ATOM     11  N   UNL     1       8.487   8.217  18.897  0.00  0.00    +0.000 N 
ATOM     12  C   UNL     1       8.936   9.507  18.801  0.00  0.00    +0.000 C 
ATOM     13  O   UNL     1       8.823  10.133  17.755  0.00  0.00    +0.000 OA
ATOM     14  N   UNL     1       9.482   9.996  19.961  0.00  0.00    +0.000 N 
ATOM     15  H   UNL     1       8.764   7.659  19.690  0.00  0.00    +0.000 HD
ATOM     16  H   UNL     1       9.750   9.329  20.668  0.00  0.00    +0.000 HD
BRANCH  14  17
ATOM     17  C   UNL     1       9.939  11.329  20.112  0.00  0.00    +0.000 A 
ATOM     18  C   UNL     1       9.224  12.310  20.801  0.00  0.00    +0.000 A 
ATOM     19  C   UNL     1       9.687  13.620  20.847  0.00  0.00    +0.000 A 
ATOM     20  C   UNL     1      10.883  13.909  20.216  0.00  0.00    +0.000 A 
ATOM     21  N   UNL     1      11.633  12.988  19.575  0.00  0.00    +0.000 NA
ATOM     22  C   UNL     1      11.146  11.721  19.543  0.00  0.00    +0.000 A 
ENDBRANCH  14  17
ENDBRANCH   7  11
BRANCH   1  23
ATOM     23  O   UNL     1       3.410   3.308  19.960  0.00  0.00    +0.000 OA
BRANCH  23  25
ATOM     24  C   UNL     1       2.039   5.256  20.623  0.00  0.00    +0.000 C 
ATOM     25  C   UNL     1       2.053   3.833  20.045  0.00  0.00    +0.000 C 
ATOM     26  C   UNL     1       1.132   2.886  20.830  0.00  0.00    +0.000 C 
ATOM     27  C   UNL     1       1.525   3.913  18.601  0.00  0.00    +0.000 C 
ENDBRANCH  23  25
ENDBRANCH   1  23
TORSDOF 4
ENDMDL
MODEL 5
REMARK VINA RESULT:      -7.4      0.718      1.286
REMARK  Name = 
REMARK  7 active torsions:
REMARK  status: ('A' for Active; 'I' for Inactive)
REMARK    1  A    between atoms: C_1  and  C_2
REMARK    2  A    between atoms: C_2  and  C_3
REMARK    3  A    between atoms: C_2  and  C_4
REMARK    4  A    between atoms: C_2  and  O_5
REMARK    5  A    between atoms: O_5  and  C_6
REMARK    6  A    between atoms: C_12  and  N_13
REMARK    7  A    between atoms: N_16  and  C_17
REMARK                            x       y       z     vdW  Elec       q    Type
REMARK                         _______ _______ _______ _____ _____    ______ ____
ROOT
ATOM      1  C   UNL     1       3.921   2.833  18.732  0.00  0.00    +0.000 C 
ATOM      2  O   UNL     1       3.699   1.934  17.921  0.00  0.00    +0.000 OA
ATOM      3  N   UNL     1       4.766   3.857  18.449  0.00  0.00    +0.000 N 
ATOM      4  C   UNL     1       5.270   5.009  19.157  0.00  0.00    +0.000 C 
ATOM      5  C   UNL     1       5.924   5.463  17.804  0.00  0.00    +0.000 C 
ATOM      6  C   UNL     1       7.433   5.689  17.681  0.00  0.00    +0.000 C 
ATOM      7  C   UNL     1       7.607   7.187  17.406  0.00  0.00    +0.000 C 
ATOM      8  C   UNL     1       6.214   7.701  17.024  0.00  0.00    +0.000 C 
ATOM      9  O   UNL     1       5.300   6.609  17.161  0.00  0.00    +0.000 OA
ATOM     10  C   UNL     1       5.521   4.082  17.239  0.00  0.00    +0.000 C 
ENDROOT
BRANCH   7  11
ATOM     11  N   UNL     1       8.245   7.918  18.502  0.00  0.00    +0.000 N 
ATOM     12  C   UNL     1       8.565   9.244  18.375  0.00  0.00    +0.000 C 
ATOM     13  O   UNL     1       8.302   9.856  17.349  0.00  0.00    +0.000 OA
ATOM     14  N   UNL     1       9.168   9.781  19.484  0.00  0.00    +0.000 N 
ATOM     15  H   UNL     1       8.643   7.388  19.262  0.00  0.00    +0.000 HD
ATOM     16  H   UNL     1       9.559   9.141  20.159  0.00  0.00    +0.000 HD
BRANCH  14  17
ATOM     17  C   UNL     1       9.514  11.150  19.603  0.00  0.00    +0.000 A 
ATOM     18  C   UNL     1       8.982  12.148  18.787  0.00  0.00    +0.000 A 
ATOM     19  C   UNL     1       9.421  13.462  18.901  0.00  0.00    +0.000 A 
ATOM     20  C   UNL     1      10.375  13.748  19.860  0.00  0.00    +0.000 A 
ATOM     21  N   UNL     1      10.889  12.827  20.702  0.00  0.00    +0.000 NA
ATOM     22  C   UNL     1      10.443  11.553  20.557  0.00  0.00    +0.000 A 
ENDBRANCH  14  17
ENDBRANCH   7  11
BRANCH   1  23
ATOM     23  O   UNL     1       3.372   2.910  19.977  0.00  0.00    +0.000 OA
BRANCH  23  25
ATOM     24  C   UNL     1       1.419   2.768  21.486  0.00  0.00    +0.000 C 
ATOM     25  C   UNL     1       1.946   3.182  20.104  0.00  0.00    +0.000 C 
ATOM     26  C   UNL     1       1.145   2.531  18.966  0.00  0.00    +0.000 C 
ATOM     27  C   UNL     1       1.782   4.708  19.983  0.00  0.00    +0.000 C 
ENDBRANCH  23  25
ENDBRANCH   1  23
TORSDOF 4
ENDMDL
MODEL 6
REMARK VINA RESULT:      -7.4      4.183      7.116
REMARK  Name = 
REMARK  7 active torsions:
REMARK  status: ('A' for Active; 'I' for Inactive)
REMARK    1  A    between atoms: C_1  and  C_2
REMARK    2  A    between atoms: C_2  and  C_3
REMARK    3  A    between atoms: C_2  and  C_4
REMARK    4  A    between atoms: C_2  and  O_5
REMARK    5  A    between atoms: O_5  and  C_6
REMARK    6  A    between atoms: C_12  and  N_13
REMARK    7  A    between atoms: N_16  and  C_17
REMARK                            x       y       z     vdW  Elec       q    Type
REMARK                         _______ _______ _______ _____ _____    ______ ____
ROOT
ATOM      1  C   UNL     1       2.482   4.862  19.728  0.00  0.00    +0.000 C 
ATOM      2  O   UNL     1       2.285   5.350  20.841  0.00  0.00    +0.000 OA
ATOM      3  N   UNL     1       3.631   5.092  19.041  0.00  0.00    +0.000 N 
ATOM      4  C   UNL     1       4.151   4.730  17.745  0.00  0.00    +0.000 C 
ATOM      5  C   UNL     1       5.514   5.365  18.196  0.00  0.00    +0.000 C 
ATOM      6  C   UNL     1       6.160   6.512  17.415  0.00  0.00    +0.000 C 
ATOM      7  C   UNL     1       7.467   5.945  16.850  0.00  0.00    +0.000 C 
ATOM      8  C   UNL     1       7.710   4.634  17.607  0.00  0.00    +0.000 C 
ATOM      9  O   UNL     1       6.587   4.420  18.467  0.00  0.00    +0.000 OA
ATOM     10  C   UNL     1       4.763   5.893  19.440  0.00  0.00    +0.000 C 
ENDROOT
BRANCH   7  11
ATOM     11  N   UNL     1       7.472   5.814  15.392  0.00  0.00    +0.000 N 
ATOM     12  C   UNL     1       6.925   4.719  14.778  0.00  0.00    +0.000 C 
ATOM     13  O   UNL     1       6.394   3.833  15.435  0.00  0.00    +0.000 OA
ATOM     14  N   UNL     1       7.020   4.740  13.410  0.00  0.00    +0.000 N 
ATOM     15  H   UNL     1       8.072   6.426  14.859  0.00  0.00    +0.000 HD
ATOM     16  H   UNL     1       7.686   5.377  12.997  0.00  0.00    +0.000 HD
BRANCH  14  17
ATOM     17  C   UNL     1       6.455   3.750  12.568  0.00  0.00    +0.000 A 
ATOM     18  C   UNL     1       5.089   3.667  12.294  0.00  0.00    +0.000 A 
ATOM     19  C   UNL     1       4.586   2.625  11.524  0.00  0.00    +0.000 A 
ATOM     20  C   UNL     1       5.479   1.697  11.022  0.00  0.00    +0.000 A 
ATOM     21  N   UNL     1       6.813   1.758  11.222  0.00  0.00    +0.000 NA
ATOM     22  C   UNL     1       7.268   2.784  11.985  0.00  0.00    +0.000 A 
ENDBRANCH  14  17
ENDBRANCH   7  11
BRANCH   1  23
ATOM     23  O   UNL     1       1.601   4.064  19.062  0.00  0.00    +0.000 OA
BRANCH  23  25
ATOM     24  C   UNL     1       1.347   2.469  20.933  0.00  0.00    +0.000 C 
ATOM     25  C   UNL     1       1.518   2.653  19.418  0.00  0.00    +0.000 C 
ATOM     26  C   UNL     1       2.721   1.865  18.876  0.00  0.00    +0.000 C 
ATOM     27  C   UNL     1       0.250   2.107  18.737  0.00  0.00    +0.000 C 
ENDBRANCH  23  25
ENDBRANCH   1  23
TORSDOF 4
ENDMDL
MODEL 7
REMARK VINA RESULT:      -7.3      4.229      7.197
REMARK  Name = 
REMARK  7 active torsions:
REMARK  status: ('A' for Active; 'I' for Inactive)
REMARK    1  A    between atoms: C_1  and  C_2
REMARK    2  A    between atoms: C_2  and  C_3
REMARK    3  A    between atoms: C_2  and  C_4
REMARK    4  A    between atoms: C_2  and  O_5
REMARK    5  A    between atoms: O_5  and  C_6
REMARK    6  A    between atoms: C_12  and  N_13
REMARK    7  A    between atoms: N_16  and  C_17
REMARK                            x       y       z     vdW  Elec       q    Type
REMARK                         _______ _______ _______ _____ _____    ______ ____
ROOT
ATOM      1  C   UNL     1       2.501   4.986  19.750  0.00  0.00    +0.000 C 
ATOM      2  O   UNL     1       2.338   5.502  20.854  0.00  0.00    +0.000 OA
ATOM      3  N   UNL     1       3.639   5.175  19.034  0.00  0.00    +0.000 N 
ATOM      4  C   UNL     1       4.124   4.772  17.736  0.00  0.00    +0.000 C 
ATOM      5  C   UNL     1       5.509   5.389  18.143  0.00  0.00    +0.000 C 
ATOM      6  C   UNL     1       6.161   6.504  17.321  0.00  0.00    +0.000 C 
ATOM      7  C   UNL     1       7.444   5.896  16.743  0.00  0.00    +0.000 C 
ATOM      8  C   UNL     1       7.676   4.598  17.527  0.00  0.00    +0.000 C 
ATOM      9  O   UNL     1       6.568   4.428  18.414  0.00  0.00    +0.000 OA
ATOM     10  C   UNL     1       4.796   5.961  19.389  0.00  0.00    +0.000 C 
ENDROOT
BRANCH   7  11
ATOM     11  N   UNL     1       7.416   5.731  15.289  0.00  0.00    +0.000 N 
ATOM     12  C   UNL     1       6.849   4.625  14.713  0.00  0.00    +0.000 C 
ATOM     13  O   UNL     1       6.328   3.759  15.403  0.00  0.00    +0.000 OA
ATOM     14  N   UNL     1       6.913   4.614  13.343  0.00  0.00    +0.000 N 
ATOM     15  H   UNL     1       8.007   6.326  14.729  0.00  0.00    +0.000 HD
ATOM     16  H   UNL     1       7.573   5.236  12.901  0.00  0.00    +0.000 HD
BRANCH  14  17
ATOM     17  C   UNL     1       6.323   3.608  12.538  0.00  0.00    +0.000 A 
ATOM     18  C   UNL     1       7.045   2.549  11.985  0.00  0.00    +0.000 A 
ATOM     19  C   UNL     1       6.424   1.638  11.139  0.00  0.00    +0.000 A 
ATOM     20  C   UNL     1       5.074   1.798  10.887  0.00  0.00    +0.000 A 
ATOM     21  N   UNL     1       4.323   2.779  11.432  0.00  0.00    +0.000 NA
ATOM     22  C   UNL     1       4.964   3.655  12.247  0.00  0.00    +0.000 A 
ENDBRANCH  14  17
ENDBRANCH   7  11
BRANCH   1  23
ATOM     23  O   UNL     1       1.590   4.191  19.121  0.00  0.00    +0.000 OA
BRANCH  23  25
ATOM     24  C   UNL     1       0.370   2.075  18.734  0.00  0.00    +0.000 C 
ATOM     25  C   UNL     1       1.429   2.812  19.567  0.00  0.00    +0.000 C 
ATOM     26  C   UNL     1       1.129   2.739  21.072  0.00  0.00    +0.000 C 
ATOM     27  C   UNL     1       2.781   2.116  19.321  0.00  0.00    +0.000 C 
ENDBRANCH  23  25
ENDBRANCH   1  23
TORSDOF 4
ENDMDL
MODEL 8
REMARK VINA RESULT:      -7.2      4.868      7.329
REMARK  Name = 
REMARK  7 active torsions:
REMARK  status: ('A' for Active; 'I' for Inactive)
REMARK    1  A    between atoms: C_1  and  C_2
REMARK    2  A    between atoms: C_2  and  C_3
REMARK    3  A    between atoms: C_2  and  C_4
REMARK    4  A    between atoms: C_2  and  O_5
REMARK    5  A    between atoms: O_5  and  C_6
REMARK    6  A    between atoms: C_12  and  N_13
REMARK    7  A    between atoms: N_16  and  C_17
REMARK                            x       y       z     vdW  Elec       q    Type
REMARK                         _______ _______ _______ _____ _____    ______ ____
ROOT
ATOM      1  C   UNL     1       1.452   8.198  20.658  0.00  0.00    +0.000 C 
ATOM      2  O   UNL     1       0.711   8.373  21.625  0.00  0.00    +0.000 OA
ATOM      3  N   UNL     1       1.830   6.955  20.264  0.00  0.00    +0.000 N 
ATOM      4  C   UNL     1       2.691   6.411  19.241  0.00  0.00    +0.000 C 
ATOM      5  C   UNL     1       2.161   4.992  19.653  0.00  0.00    +0.000 C 
ATOM      6  C   UNL     1       3.111   3.889  20.128  0.00  0.00    +0.000 C 
ATOM      7  C   UNL     1       3.032   2.788  19.064  0.00  0.00    +0.000 C 
ATOM      8  C   UNL     1       1.796   3.118  18.219  0.00  0.00    +0.000 C 
ATOM      9  O   UNL     1       1.266   4.357  18.698  0.00  0.00    +0.000 OA
ATOM     10  C   UNL     1       1.472   5.686  20.850  0.00  0.00    +0.000 C 
ENDROOT
BRANCH   7  11
ATOM     11  N   UNL     1       4.267   2.621  18.296  0.00  0.00    +0.000 N 
ATOM     12  C   UNL     1       4.517   3.382  17.185  0.00  0.00    +0.000 C 
ATOM     13  O   UNL     1       3.723   4.240  16.822  0.00  0.00    +0.000 OA
ATOM     14  N   UNL     1       5.710   3.096  16.570  0.00  0.00    +0.000 N 
ATOM     15  H   UNL     1       4.825   1.797  18.462  0.00  0.00    +0.000 HD
ATOM     16  H   UNL     1       6.155   2.220  16.797  0.00  0.00    +0.000 HD
BRANCH  14  17
ATOM     17  C   UNL     1       6.207   3.811  15.452  0.00  0.00    +0.000 A 
ATOM     18  C   UNL     1       5.840   3.525  14.136  0.00  0.00    +0.000 A 
ATOM     19  C   UNL     1       6.423   4.210  13.076  0.00  0.00    +0.000 A 
ATOM     20  C   UNL     1       7.350   5.194  13.368  0.00  0.00    +0.000 A 
ATOM     21  N   UNL     1       7.705   5.537  14.624  0.00  0.00    +0.000 NA
ATOM     22  C   UNL     1       7.122   4.842  15.634  0.00  0.00    +0.000 A 
ENDBRANCH  14  17
ENDBRANCH   7  11
BRANCH   1  23
ATOM     23  O   UNL     1       1.977   9.194  19.891  0.00  0.00    +0.000 OA
BRANCH  23  25
ATOM     24  C   UNL     1      -0.292  10.092  19.497  0.00  0.00    +0.000 C 
ATOM     25  C   UNL     1       1.117   9.872  18.929  0.00  0.00    +0.000 C 
ATOM     26  C   UNL     1       1.085   9.130  17.583  0.00  0.00    +0.000 C 
ATOM     27  C   UNL     1       1.743  11.258  18.687  0.00  0.00    +0.000 C 
ENDBRANCH  23  25
ENDBRANCH   1  23
TORSDOF 4
ENDMDL
MODEL 9
REMARK VINA RESULT:      -7.1      1.356      1.748
REMARK  Name = 
REMARK  7 active torsions:
REMARK  status: ('A' for Active; 'I' for Inactive)
REMARK    1  A    between atoms: C_1  and  C_2
REMARK    2  A    between atoms: C_2  and  C_3
REMARK    3  A    between atoms: C_2  and  C_4
REMARK    4  A    between atoms: C_2  and  O_5
REMARK    5  A    between atoms: O_5  and  C_6
REMARK    6  A    between atoms: C_12  and  N_13
REMARK    7  A    between atoms: N_16  and  C_17
REMARK                            x       y       z     vdW  Elec       q    Type
REMARK                         _______ _______ _______ _____ _____    ______ ____
ROOT
ATOM      1  C   UNL     1       3.762   3.797  18.241  0.00  0.00    +0.000 C 
ATOM      2  O   UNL     1       3.687   2.857  17.450  0.00  0.00    +0.000 OA
ATOM      3  N   UNL     1       4.778   4.696  18.187  0.00  0.00    +0.000 N 
ATOM      4  C   UNL     1       5.184   5.847  18.957  0.00  0.00    +0.000 C 
ATOM      5  C   UNL     1       6.275   6.105  17.860  0.00  0.00    +0.000 C 
ATOM      6  C   UNL     1       7.765   6.158  18.210  0.00  0.00    +0.000 C 
ATOM      7  C   UNL     1       8.207   7.598  17.926  0.00  0.00    +0.000 C 
ATOM      8  C   UNL     1       7.078   8.220  17.095  0.00  0.00    +0.000 C 
ATOM      9  O   UNL     1       6.034   7.248  16.992  0.00  0.00    +0.000 OA
ATOM     10  C   UNL     1       5.892   4.730  17.269  0.00  0.00    +0.000 C 
ENDROOT
BRANCH   7  11
ATOM     11  N   UNL     1       8.565   8.354  19.127  0.00  0.00    +0.000 N 
ATOM     12  C   UNL     1       9.019   9.643  19.043  0.00  0.00    +0.000 C 
ATOM     13  O   UNL     1       9.112  10.204  17.959  0.00  0.00    +0.000 OA
ATOM     14  N   UNL     1       9.322  10.209  20.255  0.00  0.00    +0.000 N 
ATOM     15  H   UNL     1       8.682   7.849  19.993  0.00  0.00    +0.000 HD
ATOM     16  H   UNL     1       9.448   9.589  21.041  0.00  0.00    +0.000 HD
BRANCH  14  17
ATOM     17  C   UNL     1       9.735  11.555  20.412  0.00  0.00    +0.000 A 
ATOM     18  C   UNL     1      10.944  12.048  19.918  0.00  0.00    +0.000 A 
ATOM     19  C   UNL     1      11.328  13.360  20.172  0.00  0.00    +0.000 A 
ATOM     20  C   UNL     1      10.468  14.160  20.901  0.00  0.00    +0.000 A 
ATOM     21  N   UNL     1       9.270  13.743  21.363  0.00  0.00    +0.000 NA
ATOM     22  C   UNL     1       8.931  12.455  21.103  0.00  0.00    +0.000 A 
ENDBRANCH  14  17
ENDBRANCH   7  11
BRANCH   1  23
ATOM     23  O   UNL     1       2.871   4.044  19.242  0.00  0.00    +0.000 OA
BRANCH  23  25
ATOM     24  C   UNL     1       2.157   3.672  21.579  0.00  0.00    +0.000 C 
ATOM     25  C   UNL     1       2.683   3.041  20.282  0.00  0.00    +0.000 C 
ATOM     26  C   UNL     1       3.965   2.228  20.518  0.00  0.00    +0.000 C 
ATOM     27  C   UNL     1       1.601   2.074  19.764  0.00  0.00    +0.000 C 
ENDBRANCH  23  25
ENDBRANCH   1  23
TORSDOF 4
ENDMDL
