MODEL 1
REMARK VINA RESULT:      -9.2      0.000      0.000
REMARK  Name = 
REMARK  10 active torsions:
REMARK  status: ('A' for Active; 'I' for Inactive)
REMARK    1  A    between atoms: C_1  and  C_2
REMARK    2  A    between atoms: C_2  and  C_3
REMARK    3  A    between atoms: C_2  and  N_4
REMARK    4  A    between atoms: N_4  and  S_5
REMARK    5  A    between atoms: S_5  and  C_8
REMARK    6  A    between atoms: N_15  and  N_16
REMARK    7  A    between atoms: N_16  and  C_17
REMARK    8  A    between atoms: C_21  and  C_22
REMARK    9  A    between atoms: N_24  and  C_25
REMARK   10  A    between atoms: C_25  and  C_26
REMARK                            x       y       z     vdW  Elec       q    Type
REMARK                         _______ _______ _______ _____ _____    ______ ____
ROOT
ATOM      1  C   UNL     1       5.163   4.953  16.967  0.00  0.00    +0.000 A 
ATOM      2  C   UNL     1       4.836   3.590  16.759  0.00  0.00    +0.000 A 
ATOM      3  C   UNL     1       3.770   2.999  17.444  0.00  0.00    +0.000 A 
ATOM      4  C   UNL     1       3.056   3.797  18.313  0.00  0.00    +0.000 A 
ATOM      5  C   UNL     1       3.383   5.140  18.516  0.00  0.00    +0.000 A 
ATOM      6  C   UNL     1       4.430   5.753  17.854  0.00  0.00    +0.000 A 
ATOM      7  C   UNL     1       2.441   5.646  19.514  0.00  0.00    +0.000 C 
ATOM      8  N   UNL     1       2.422   6.845  20.006  0.00  0.00    +0.000 NA
ATOM      9  C   UNL     1       1.521   4.465  19.859  0.00  0.00    +0.000 C 
ATOM     10  O   UNL     1       0.619   4.483  20.670  0.00  0.00    +0.000 OA
ATOM     11  N   UNL     1       1.963   3.415  19.084  0.00  0.00    +0.000 N 
ATOM     12  H   UNL     1       1.535   2.501  19.101  0.00  0.00    +0.000 HD
ENDROOT
BRANCH   1  13
ATOM     13  S   UNL     1       6.488   5.655  15.997  0.00  0.00    +0.000 S 
ATOM     14  O   UNL     1       6.011   5.847  14.646  0.00  0.00    +0.000 OA
ATOM     15  O   UNL     1       7.653   4.853  16.299  0.00  0.00    +0.000 OA
BRANCH  13  16
ATOM     16  N   UNL     1       6.725   7.165  16.711  0.00  0.00    +0.000 NA
ATOM     17  H   UNL     1       6.407   7.938  16.131  0.00  0.00    +0.000 HD
BRANCH  16  19
ATOM     18  C   UNL     1       8.070   8.893  17.878  0.00  0.00    +0.000 C 
ATOM     19  C   UNL     1       7.942   7.423  17.509  0.00  0.00    +0.000 C 
ATOM     20  C   UNL     1       7.876   6.571  18.777  0.00  0.00    +0.000 C 
ENDBRANCH  16  19
ENDBRANCH  13  16
ENDBRANCH   1  13
BRANCH   8  21
ATOM     21  N   UNL     1       1.503   7.071  20.982  0.00  0.00    +0.000 N 
ATOM     22  H   UNL     1       1.308   6.378  21.711  0.00  0.00    +0.000 HD
BRANCH  21  23
ATOM     23  C   UNL     1       0.955   8.352  21.149  0.00  0.00    +0.000 A 
ATOM     24  C   UNL     1       0.840   8.947  22.411  0.00  0.00    +0.000 A 
ATOM     25  C   UNL     1       0.282  10.219  22.563  0.00  0.00    +0.000 A 
ATOM     26  C   UNL     1      -0.218  10.896  21.453  0.00  0.00    +0.000 A 
ATOM     27  C   UNL     1      -0.163  10.298  20.189  0.00  0.00    +0.000 A 
ATOM     28  C   UNL     1       0.441   9.041  20.038  0.00  0.00    +0.000 A 
BRANCH  27  29
ATOM     29  C   UNL     1      -0.748  11.035  19.034  0.00  0.00    +0.000 C 
ATOM     30  O   UNL     1      -0.155  11.983  18.538  0.00  0.00    +0.000 OA
ATOM     31  N   UNL     1      -1.991  10.608  18.609  0.00  0.00    +0.000 N 
ATOM     32  H   UNL     1      -2.533  10.014  19.222  0.00  0.00    +0.000 HD
BRANCH  31  33
ATOM     33  C   UNL     1      -2.705  11.311  17.565  0.00  0.00    +0.000 C 
BRANCH  33  34
ATOM     34  C   UNL     1      -4.082  11.700  18.015  0.00  0.00    +0.000 A 
ATOM     35  C   UNL     1      -4.307  12.256  19.279  0.00  0.00    +0.000 A 
ATOM     36  C   UNL     1      -5.601  12.585  19.672  0.00  0.00    +0.000 A 
ATOM     37  C   UNL     1      -6.635  12.346  18.785  0.00  0.00    +0.000 A 
ATOM     38  N   UNL     1      -6.463  11.811  17.558  0.00  0.00    +0.000 NA
ATOM     39  C   UNL     1      -5.196  11.496  17.205  0.00  0.00    +0.000 A 
ENDBRANCH  33  34
ENDBRANCH  31  33
ENDBRANCH  27  29
ENDBRANCH  21  23
ENDBRANCH   8  21
TORSDOF 8
ENDMDL
MODEL 2
REMARK VINA RESULT:      -9.2      0.753      1.174
REMARK  Name = 
REMARK  10 active torsions:
REMARK  status: ('A' for Active; 'I' for Inactive)
REMARK    1  A    between atoms: C_1  and  C_2
REMARK    2  A    between atoms: C_2  and  C_3
REMARK    3  A    between atoms: C_2  and  N_4
REMARK    4  A    between atoms: N_4  and  S_5
REMARK    5  A    between atoms: S_5  and  C_8
REMARK    6  A    between atoms: N_15  and  N_16
REMARK    7  A    between atoms: N_16  and  C_17
REMARK    8  A    between atoms: C_21  and  C_22
REMARK    9  A    between atoms: N_24  and  C_25
REMARK   10  A    between atoms: C_25  and  C_26
REMARK                            x       y       z     vdW  Elec       q    Type
REMARK                         _______ _______ _______ _____ _____    ______ ____
ROOT
ATOM      1  C   UNL     1       4.896   4.739  16.757  0.00  0.00    +0.000 A 
ATOM      2  C   UNL     1       4.637   3.347  16.723  0.00  0.00    +0.000 A 
ATOM      3  C   UNL     1       3.678   2.778  17.568  0.00  0.00    +0.000 A 
ATOM      4  C   UNL     1       3.001   3.627  18.417  0.00  0.00    +0.000 A 
ATOM      5  C   UNL     1       3.261   5.000  18.447  0.00  0.00    +0.000 A 
ATOM      6  C   UNL     1       4.201   5.591  17.625  0.00  0.00    +0.000 A 
ATOM      7  C   UNL     1       2.386   5.561  19.477  0.00  0.00    +0.000 C 
ATOM      8  N   UNL     1       2.339   6.804  19.843  0.00  0.00    +0.000 NA
ATOM      9  C   UNL     1       1.578   4.378  20.031  0.00  0.00    +0.000 C 
ATOM     10  O   UNL     1       0.756   4.437  20.922  0.00  0.00    +0.000 OA
ATOM     11  N   UNL     1       2.011   3.275  19.329  0.00  0.00    +0.000 N 
ATOM     12  H   UNL     1       1.643   2.347  19.482  0.00  0.00    +0.000 HD
ENDROOT
BRANCH   1  13
ATOM     13  S   UNL     1       6.079   5.399  15.593  0.00  0.00    +0.000 S 
ATOM     14  O   UNL     1       5.530   6.608  15.022  0.00  0.00    +0.000 OA
ATOM     15  O   UNL     1       6.487   4.276  14.778  0.00  0.00    +0.000 OA
BRANCH  13  16
ATOM     16  N   UNL     1       7.391   5.806  16.572  0.00  0.00    +0.000 NA
ATOM     17  H   UNL     1       8.071   5.054  16.666  0.00  0.00    +0.000 HD
BRANCH  16  19
ATOM     18  C   UNL     1       7.892   6.048  18.991  0.00  0.00    +0.000 C 
ATOM     19  C   UNL     1       7.185   6.635  17.779  0.00  0.00    +0.000 C 
ATOM     20  C   UNL     1       7.718   8.039  17.494  0.00  0.00    +0.000 C 
ENDBRANCH  16  19
ENDBRANCH  13  16
ENDBRANCH   1  13
BRANCH   8  21
ATOM     21  N   UNL     1       1.503   7.086  20.877  0.00  0.00    +0.000 N 
ATOM     22  H   UNL     1       1.342   6.420  21.638  0.00  0.00    +0.000 HD
BRANCH  21  23
ATOM     23  C   UNL     1       1.009   8.388  21.046  0.00  0.00    +0.000 A 
ATOM     24  C   UNL     1       0.967   9.005  22.302  0.00  0.00    +0.000 A 
ATOM     25  C   UNL     1       0.461  10.298  22.458  0.00  0.00    +0.000 A 
ATOM     26  C   UNL     1      -0.059  10.977  21.358  0.00  0.00    +0.000 A 
ATOM     27  C   UNL     1      -0.076  10.360  20.102  0.00  0.00    +0.000 A 
ATOM     28  C   UNL     1       0.475   9.080  19.946  0.00  0.00    +0.000 A 
BRANCH  27  29
ATOM     29  C   UNL     1      -0.681  11.102  18.960  0.00  0.00    +0.000 C 
ATOM     30  O   UNL     1      -0.340  12.252  18.717  0.00  0.00    +0.000 OA
ATOM     31  N   UNL     1      -1.656  10.430  18.249  0.00  0.00    +0.000 N 
ATOM     32  H   UNL     1      -2.074   9.608  18.661  0.00  0.00    +0.000 HD
BRANCH  31  33
ATOM     33  C   UNL     1      -2.388  11.084  17.185  0.00  0.00    +0.000 C 
BRANCH  33  34
ATOM     34  C   UNL     1      -3.716  11.587  17.668  0.00  0.00    +0.000 A 
ATOM     35  C   UNL     1      -4.799  11.743  16.795  0.00  0.00    +0.000 A 
ATOM     36  C   UNL     1      -6.011  12.233  17.274  0.00  0.00    +0.000 A 
ATOM     37  C   UNL     1      -6.102  12.555  18.616  0.00  0.00    +0.000 A 
ATOM     38  N   UNL     1      -5.083  12.422  19.491  0.00  0.00    +0.000 NA
ATOM     39  C   UNL     1      -3.916  11.949  18.997  0.00  0.00    +0.000 A 
ENDBRANCH  33  34
ENDBRANCH  31  33
ENDBRANCH  27  29
ENDBRANCH  21  23
ENDBRANCH   8  21
TORSDOF 8
ENDMDL
MODEL 3
REMARK VINA RESULT:      -9.1      2.901      4.178
REMARK  Name = 
REMARK  10 active torsions:
REMARK  status: ('A' for Active; 'I' for Inactive)
REMARK    1  A    between atoms: C_1  and  C_2
REMARK    2  A    between atoms: C_2  and  C_3
REMARK    3  A    between atoms: C_2  and  N_4
REMARK    4  A    between atoms: N_4  and  S_5
REMARK    5  A    between atoms: S_5  and  C_8
REMARK    6  A    between atoms: N_15  and  N_16
REMARK    7  A    between atoms: N_16  and  C_17
REMARK    8  A    between atoms: C_21  and  C_22
REMARK    9  A    between atoms: N_24  and  C_25
REMARK   10  A    between atoms: C_25  and  C_26
REMARK                            x       y       z     vdW  Elec       q    Type
REMARK                         _______ _______ _______ _____ _____    ______ ____
ROOT
ATOM      1  C   UNL     1       5.112   5.044  16.972  0.00  0.00    +0.000 A 
ATOM      2  C   UNL     1       4.790   3.678  16.776  0.00  0.00    +0.000 A 
ATOM      3  C   UNL     1       3.724   3.090  17.465  0.00  0.00    +0.000 A 
ATOM      4  C   UNL     1       3.006   3.895  18.324  0.00  0.00    +0.000 A 
ATOM      5  C   UNL     1       3.328   5.241  18.514  0.00  0.00    +0.000 A 
ATOM      6  C   UNL     1       4.375   5.850  17.849  0.00  0.00    +0.000 A 
ATOM      7  C   UNL     1       2.382   5.753  19.505  0.00  0.00    +0.000 C 
ATOM      8  N   UNL     1       2.359   6.957  19.986  0.00  0.00    +0.000 NA
ATOM      9  C   UNL     1       1.465   4.573  19.859  0.00  0.00    +0.000 C 
ATOM     10  O   UNL     1       0.561   4.597  20.668  0.00  0.00    +0.000 OA
ATOM     11  N   UNL     1       1.912   3.517  19.096  0.00  0.00    +0.000 N 
ATOM     12  H   UNL     1       1.486   2.602  19.121  0.00  0.00    +0.000 HD
ENDROOT
BRANCH   1  13
ATOM     13  S   UNL     1       6.438   5.739  15.998  0.00  0.00    +0.000 S 
ATOM     14  O   UNL     1       5.951   5.956  14.654  0.00  0.00    +0.000 OA
ATOM     15  O   UNL     1       7.595   4.917  16.277  0.00  0.00    +0.000 OA
BRANCH  13  16
ATOM     16  N   UNL     1       6.703   7.236  16.730  0.00  0.00    +0.000 NA
ATOM     17  H   UNL     1       6.385   8.021  16.166  0.00  0.00    +0.000 HD
BRANCH  16  19
ATOM     18  C   UNL     1       8.100   8.936  17.877  0.00  0.00    +0.000 C 
ATOM     19  C   UNL     1       7.936   7.469  17.512  0.00  0.00    +0.000 C 
ATOM     20  C   UNL     1       7.866   6.620  18.782  0.00  0.00    +0.000 C 
ENDBRANCH  16  19
ENDBRANCH  13  16
ENDBRANCH   1  13
BRANCH   8  21
ATOM     21  N   UNL     1       1.437   7.190  20.957  0.00  0.00    +0.000 N 
ATOM     22  H   UNL     1       1.227   6.495  21.679  0.00  0.00    +0.000 HD
BRANCH  21  23
ATOM     23  C   UNL     1       0.908   8.478  21.129  0.00  0.00    +0.000 A 
ATOM     24  C   UNL     1       0.083   8.798  22.215  0.00  0.00    +0.000 A 
ATOM     25  C   UNL     1      -0.447  10.082  22.367  0.00  0.00    +0.000 A 
ATOM     26  C   UNL     1      -0.198  11.056  21.403  0.00  0.00    +0.000 A 
ATOM     27  C   UNL     1       0.579  10.743  20.282  0.00  0.00    +0.000 A 
ATOM     28  C   UNL     1       1.145   9.466  20.159  0.00  0.00    +0.000 A 
BRANCH  27  29
ATOM     29  C   UNL     1       0.786  11.799  19.250  0.00  0.00    +0.000 C 
ATOM     30  O   UNL     1      -0.156  12.213  18.589  0.00  0.00    +0.000 OA
ATOM     31  N   UNL     1       2.087  12.226  19.072  0.00  0.00    +0.000 N 
ATOM     32  H   UNL     1       2.836  11.661  19.447  0.00  0.00    +0.000 HD
BRANCH  31  33
ATOM     33  C   UNL     1       2.426  13.171  18.030  0.00  0.00    +0.000 C 
BRANCH  33  34
ATOM     34  C   UNL     1       2.916  14.466  18.608  0.00  0.00    +0.000 A 
ATOM     35  C   UNL     1       3.152  14.611  19.979  0.00  0.00    +0.000 A 
ATOM     36  C   UNL     1       3.585  15.833  20.484  0.00  0.00    +0.000 A 
ATOM     37  C   UNL     1       3.768  16.879  19.598  0.00  0.00    +0.000 A 
ATOM     38  N   UNL     1       3.551  16.783  18.269  0.00  0.00    +0.000 NA
ATOM     39  C   UNL     1       3.126  15.585  17.807  0.00  0.00    +0.000 A 
ENDBRANCH  33  34
ENDBRANCH  31  33
ENDBRANCH  27  29
ENDBRANCH  21  23
ENDBRANCH   8  21
TORSDOF 8
ENDMDL
MODEL 4
REMARK VINA RESULT:      -9.0      2.809      4.091
REMARK  Name = 
REMARK  10 active torsions:
REMARK  status: ('A' for Active; 'I' for Inactive)
REMARK    1  A    between atoms: C_1  and  C_2
REMARK    2  A    between atoms: C_2  and  C_3
REMARK    3  A    between atoms: C_2  and  N_4
REMARK    4  A    between atoms: N_4  and  S_5
REMARK    5  A    between atoms: S_5  and  C_8
REMARK    6  A    between atoms: N_15  and  N_16
REMARK    7  A    between atoms: N_16  and  C_17
REMARK    8  A    between atoms: C_21  and  C_22
REMARK    9  A    between atoms: N_24  and  C_25
REMARK   10  A    between atoms: C_25  and  C_26
REMARK                            x       y       z     vdW  Elec       q    Type
REMARK                         _______ _______ _______ _____ _____    ______ ____
ROOT
ATOM      1  C   UNL     1       4.856   5.013  16.721  0.00  0.00    +0.000 A 
ATOM      2  C   UNL     1       4.718   3.603  16.724  0.00  0.00    +0.000 A 
ATOM      3  C   UNL     1       3.853   2.972  17.624  0.00  0.00    +0.000 A 
ATOM      4  C   UNL     1       3.145   3.778  18.490  0.00  0.00    +0.000 A 
ATOM      5  C   UNL     1       3.286   5.168  18.484  0.00  0.00    +0.000 A 
ATOM      6  C   UNL     1       4.131   5.820  17.607  0.00  0.00    +0.000 A 
ATOM      7  C   UNL     1       2.415   5.673  19.545  0.00  0.00    +0.000 C 
ATOM      8  N   UNL     1       2.277   6.915  19.892  0.00  0.00    +0.000 NA
ATOM      9  C   UNL     1       1.740   4.437  20.159  0.00  0.00    +0.000 C 
ATOM     10  O   UNL     1       0.959   4.444  21.087  0.00  0.00    +0.000 OA
ATOM     11  N   UNL     1       2.233   3.361  19.455  0.00  0.00    +0.000 N 
ATOM     12  H   UNL     1       1.956   2.408  19.642  0.00  0.00    +0.000 HD
ENDROOT
BRANCH   1  13
ATOM     13  S   UNL     1       5.921   5.747  15.489  0.00  0.00    +0.000 S 
ATOM     14  O   UNL     1       5.303   6.968  15.022  0.00  0.00    +0.000 OA
ATOM     15  O   UNL     1       6.276   4.669  14.593  0.00  0.00    +0.000 OA
BRANCH  13  16
ATOM     16  N   UNL     1       7.306   6.140  16.369  0.00  0.00    +0.000 NA
ATOM     17  H   UNL     1       8.043   5.442  16.291  0.00  0.00    +0.000 HD
BRANCH  16  19
ATOM     18  C   UNL     1       7.792   5.948  18.795  0.00  0.00    +0.000 C 
ATOM     19  C   UNL     1       7.184   6.795  17.688  0.00  0.00    +0.000 C 
ATOM     20  C   UNL     1       7.890   8.149  17.619  0.00  0.00    +0.000 C 
ENDBRANCH  16  19
ENDBRANCH  13  16
ENDBRANCH   1  13
BRANCH   8  21
ATOM     21  N   UNL     1       1.469   7.146  20.960  0.00  0.00    +0.000 N 
ATOM     22  H   UNL     1       1.324   6.442  21.690  0.00  0.00    +0.000 HD
BRANCH  21  23
ATOM     23  C   UNL     1       0.986   8.440  21.209  0.00  0.00    +0.000 A 
ATOM     24  C   UNL     1       0.373   8.778  22.421  0.00  0.00    +0.000 A 
ATOM     25  C   UNL     1      -0.115  10.067  22.651  0.00  0.00    +0.000 A 
ATOM     26  C   UNL     1      -0.040  11.028  21.645  0.00  0.00    +0.000 A 
ATOM     27  C   UNL     1       0.520  10.697  20.406  0.00  0.00    +0.000 A 
ATOM     28  C   UNL     1       1.049   9.414  20.199  0.00  0.00    +0.000 A 
BRANCH  27  29
ATOM     29  C   UNL     1       0.541  11.739  19.340  0.00  0.00    +0.000 C 
ATOM     30  O   UNL     1       0.690  11.424  18.167  0.00  0.00    +0.000 OA
ATOM     31  N   UNL     1       0.429  13.047  19.769  0.00  0.00    +0.000 N 
ATOM     32  H   UNL     1       0.583  13.249  20.747  0.00  0.00    +0.000 HD
BRANCH  31  33
ATOM     33  C   UNL     1       0.542  14.149  18.838  0.00  0.00    +0.000 C 
BRANCH  33  34
ATOM     34  C   UNL     1       1.755  14.984  19.127  0.00  0.00    +0.000 A 
ATOM     35  C   UNL     1       2.791  14.508  19.939  0.00  0.00    +0.000 A 
ATOM     36  C   UNL     1       3.892  15.318  20.204  0.00  0.00    +0.000 A 
ATOM     37  C   UNL     1       3.922  16.583  19.647  0.00  0.00    +0.000 A 
ATOM     38  N   UNL     1       2.945  17.081  18.859  0.00  0.00    +0.000 NA
ATOM     39  C   UNL     1       1.885  16.274  18.624  0.00  0.00    +0.000 A 
ENDBRANCH  33  34
ENDBRANCH  31  33
ENDBRANCH  27  29
ENDBRANCH  21  23
ENDBRANCH   8  21
TORSDOF 8
ENDMDL
MODEL 5
REMARK VINA RESULT:      -9.0      3.573      4.430
REMARK  Name = 
REMARK  10 active torsions:
REMARK  status: ('A' for Active; 'I' for Inactive)
REMARK    1  A    between atoms: C_1  and  C_2
REMARK    2  A    between atoms: C_2  and  C_3
REMARK    3  A    between atoms: C_2  and  N_4
REMARK    4  A    between atoms: N_4  and  S_5
REMARK    5  A    between atoms: S_5  and  C_8
REMARK    6  A    between atoms: N_15  and  N_16
REMARK    7  A    between atoms: N_16  and  C_17
REMARK    8  A    between atoms: C_21  and  C_22
REMARK    9  A    between atoms: N_24  and  C_25
REMARK   10  A    between atoms: C_25  and  C_26
REMARK                            x       y       z     vdW  Elec       q    Type
REMARK                         _______ _______ _______ _____ _____    ______ ____
ROOT
ATOM      1  C   UNL     1       4.712   5.554  17.354  0.00  0.00    +0.000 A 
ATOM      2  C   UNL     1       4.617   4.338  18.075  0.00  0.00    +0.000 A 
ATOM      3  C   UNL     1       3.761   4.226  19.176  0.00  0.00    +0.000 A 
ATOM      4  C   UNL     1       3.019   5.337  19.516  0.00  0.00    +0.000 A 
ATOM      5  C   UNL     1       3.117   6.534  18.802  0.00  0.00    +0.000 A 
ATOM      6  C   UNL     1       3.952   6.677  17.710  0.00  0.00    +0.000 A 
ATOM      7  C   UNL     1       2.219   7.481  19.463  0.00  0.00    +0.000 C 
ATOM      8  N   UNL     1       2.039   8.721  19.130  0.00  0.00    +0.000 NA
ATOM      9  C   UNL     1       1.575   6.708  20.624  0.00  0.00    +0.000 C 
ATOM     10  O   UNL     1       0.783   7.161  21.424  0.00  0.00    +0.000 OA
ATOM     11  N   UNL     1       2.109   5.440  20.563  0.00  0.00    +0.000 N 
ATOM     12  H   UNL     1       1.858   4.706  21.210  0.00  0.00    +0.000 HD
ENDROOT
BRANCH   1  13
ATOM     13  S   UNL     1       5.768   5.593  15.914  0.00  0.00    +0.000 S 
ATOM     14  O   UNL     1       5.243   6.574  14.991  0.00  0.00    +0.000 OA
ATOM     15  O   UNL     1       5.965   4.210  15.542  0.00  0.00    +0.000 OA
BRANCH  13  16
ATOM     16  N   UNL     1       7.233   6.156  16.533  0.00  0.00    +0.000 NA
ATOM     17  H   UNL     1       8.010   5.519  16.368  0.00  0.00    +0.000 HD
BRANCH  16  19
ATOM     18  C   UNL     1       8.039   6.113  18.879  0.00  0.00    +0.000 C 
ATOM     19  C   UNL     1       7.263   6.881  17.821  0.00  0.00    +0.000 C 
ATOM     20  C   UNL     1       7.911   8.247  17.588  0.00  0.00    +0.000 C 
ENDBRANCH  16  19
ENDBRANCH  13  16
ENDBRANCH   1  13
BRANCH   8  21
ATOM     21  N   UNL     1       1.213   9.438  19.937  0.00  0.00    +0.000 N 
ATOM     22  H   UNL     1       1.340   9.464  20.953  0.00  0.00    +0.000 HD
BRANCH  21  23
ATOM     23  C   UNL     1       0.295  10.341  19.379  0.00  0.00    +0.000 A 
ATOM     24  C   UNL     1      -0.527   9.986  18.303  0.00  0.00    +0.000 A 
ATOM     25  C   UNL     1      -1.428  10.900  17.749  0.00  0.00    +0.000 A 
ATOM     26  C   UNL     1      -1.483  12.204  18.236  0.00  0.00    +0.000 A 
ATOM     27  C   UNL     1      -0.632  12.596  19.275  0.00  0.00    +0.000 A 
ATOM     28  C   UNL     1       0.236  11.661  19.856  0.00  0.00    +0.000 A 
BRANCH  27  29
ATOM     29  C   UNL     1      -0.690  14.012  19.738  0.00  0.00    +0.000 C 
ATOM     30  O   UNL     1      -1.726  14.473  20.196  0.00  0.00    +0.000 OA
ATOM     31  N   UNL     1       0.465  14.750  19.573  0.00  0.00    +0.000 N 
ATOM     32  H   UNL     1       1.180  14.398  18.952  0.00  0.00    +0.000 HD
BRANCH  31  33
ATOM     33  C   UNL     1       0.499  16.163  19.889  0.00  0.00    +0.000 C 
BRANCH  33  34
ATOM     34  C   UNL     1       0.590  16.996  18.644  0.00  0.00    +0.000 A 
ATOM     35  C   UNL     1      -0.552  17.533  18.040  0.00  0.00    +0.000 A 
ATOM     36  C   UNL     1      -0.432  18.284  16.874  0.00  0.00    +0.000 A 
ATOM     37  C   UNL     1       0.832  18.473  16.345  0.00  0.00    +0.000 A 
ATOM     38  N   UNL     1       1.959  17.972  16.895  0.00  0.00    +0.000 NA
ATOM     39  C   UNL     1       1.811  17.242  18.024  0.00  0.00    +0.000 A 
ENDBRANCH  33  34
ENDBRANCH  31  33
ENDBRANCH  27  29
ENDBRANCH  21  23
ENDBRANCH   8  21
TORSDOF 8
ENDMDL
MODEL 6
REMARK VINA RESULT:      -8.9      3.096      3.863
REMARK  Name = 
REMARK  10 active torsions:
REMARK  status: ('A' for Active; 'I' for Inactive)
REMARK    1  A    between atoms: C_1  and  C_2
REMARK    2  A    between atoms: C_2  and  C_3
REMARK    3  A    between atoms: C_2  and  N_4
REMARK    4  A    between atoms: N_4  and  S_5
REMARK    5  A    between atoms: S_5  and  C_8
REMARK    6  A    between atoms: N_15  and  N_16
REMARK    7  A    between atoms: N_16  and  C_17
REMARK    8  A    between atoms: C_21  and  C_22
REMARK    9  A    between atoms: N_24  and  C_25
REMARK   10  A    between atoms: C_25  and  C_26
REMARK                            x       y       z     vdW  Elec       q    Type
REMARK                         _______ _______ _______ _____ _____    ______ ____
ROOT
ATOM      1  C   UNL     1       5.354   4.919  17.139  0.00  0.00    +0.000 A 
ATOM      2  C   UNL     1       4.983   3.584  16.844  0.00  0.00    +0.000 A 
ATOM      3  C   UNL     1       3.846   3.014  17.425  0.00  0.00    +0.000 A 
ATOM      4  C   UNL     1       3.109   3.805  18.280  0.00  0.00    +0.000 A 
ATOM      5  C   UNL     1       3.479   5.121  18.568  0.00  0.00    +0.000 A 
ATOM      6  C   UNL     1       4.596   5.713  18.010  0.00  0.00    +0.000 A 
ATOM      7  C   UNL     1       2.492   5.626  19.522  0.00  0.00    +0.000 C 
ATOM      8  N   UNL     1       2.491   6.801  20.069  0.00  0.00    +0.000 NA
ATOM      9  C   UNL     1       1.499   4.476  19.746  0.00  0.00    +0.000 C 
ATOM     10  O   UNL     1       0.543   4.501  20.493  0.00  0.00    +0.000 OA
ATOM     11  N   UNL     1       1.948   3.442  18.955  0.00  0.00    +0.000 N 
ATOM     12  H   UNL     1       1.479   2.549  18.898  0.00  0.00    +0.000 HD
ENDROOT
BRANCH   1  13
ATOM     13  S   UNL     1       6.775   5.599  16.296  0.00  0.00    +0.000 S 
ATOM     14  O   UNL     1       7.899   4.716  16.514  0.00  0.00    +0.000 OA
ATOM     15  O   UNL     1       6.808   6.998  16.663  0.00  0.00    +0.000 OA
BRANCH  13  16
ATOM     16  N   UNL     1       6.327   5.521  14.672  0.00  0.00    +0.000 NA
ATOM     17  H   UNL     1       5.334   5.684  14.520  0.00  0.00    +0.000 HD
BRANCH  16  19
ATOM     18  C   UNL     1       5.913   3.683  13.057  0.00  0.00    +0.000 C 
ATOM     19  C   UNL     1       6.954   4.525  13.778  0.00  0.00    +0.000 C 
ATOM     20  C   UNL     1       7.819   5.269  12.760  0.00  0.00    +0.000 C 
ENDBRANCH  16  19
ENDBRANCH  13  16
ENDBRANCH   1  13
BRANCH   8  21
ATOM     21  N   UNL     1       1.517   7.027  20.989  0.00  0.00    +0.000 N 
ATOM     22  H   UNL     1       1.240   6.312  21.668  0.00  0.00    +0.000 HD
BRANCH  21  23
ATOM     23  C   UNL     1       1.016   8.324  21.179  0.00  0.00    +0.000 A 
ATOM     24  C   UNL     1       0.338   8.690  22.348  0.00  0.00    +0.000 A 
ATOM     25  C   UNL     1      -0.165   9.982  22.519  0.00  0.00    +0.000 A 
ATOM     26  C   UNL     1      -0.040  10.918  21.495  0.00  0.00    +0.000 A 
ATOM     27  C   UNL     1       0.587  10.558  20.296  0.00  0.00    +0.000 A 
ATOM     28  C   UNL     1       1.130   9.274  20.151  0.00  0.00    +0.000 A 
BRANCH  27  29
ATOM     29  C   UNL     1       0.662  11.574  19.208  0.00  0.00    +0.000 C 
ATOM     30  O   UNL     1       0.056  11.404  18.158  0.00  0.00    +0.000 OA
ATOM     31  N   UNL     1       1.476  12.663  19.450  0.00  0.00    +0.000 N 
ATOM     32  H   UNL     1       2.145  12.607  20.204  0.00  0.00    +0.000 HD
BRANCH  31  33
ATOM     33  C   UNL     1       1.709  13.661  18.428  0.00  0.00    +0.000 C 
BRANCH  33  34
ATOM     34  C   UNL     1       1.103  14.980  18.807  0.00  0.00    +0.000 A 
ATOM     35  C   UNL     1      -0.190  15.063  19.337  0.00  0.00    +0.000 A 
ATOM     36  C   UNL     1      -0.730  16.306  19.658  0.00  0.00    +0.000 A 
ATOM     37  C   UNL     1       0.042  17.431  19.436  0.00  0.00    +0.000 A 
ATOM     38  N   UNL     1       1.292  17.396  18.927  0.00  0.00    +0.000 NA
ATOM     39  C   UNL     1       1.789  16.176  18.619  0.00  0.00    +0.000 A 
ENDBRANCH  33  34
ENDBRANCH  31  33
ENDBRANCH  27  29
ENDBRANCH  21  23
ENDBRANCH   8  21
TORSDOF 8
ENDMDL
MODEL 7
REMARK VINA RESULT:      -8.8      2.847      3.710
REMARK  Name = 
REMARK  10 active torsions:
REMARK  status: ('A' for Active; 'I' for Inactive)
REMARK    1  A    between atoms: C_1  and  C_2
REMARK    2  A    between atoms: C_2  and  C_3
REMARK    3  A    between atoms: C_2  and  N_4
REMARK    4  A    between atoms: N_4  and  S_5
REMARK    5  A    between atoms: S_5  and  C_8
REMARK    6  A    between atoms: N_15  and  N_16
REMARK    7  A    between atoms: N_16  and  C_17
REMARK    8  A    between atoms: C_21  and  C_22
REMARK    9  A    between atoms: N_24  and  C_25
REMARK   10  A    between atoms: C_25  and  C_26
REMARK                            x       y       z     vdW  Elec       q    Type
REMARK                         _______ _______ _______ _____ _____    ______ ____
ROOT
ATOM      1  C   UNL     1       5.052   4.739  16.683  0.00  0.00    +0.000 A 
ATOM      2  C   UNL     1       4.799   3.355  16.846  0.00  0.00    +0.000 A 
ATOM      3  C   UNL     1       3.852   2.907  17.773  0.00  0.00    +0.000 A 
ATOM      4  C   UNL     1       3.180   3.864  18.503  0.00  0.00    +0.000 A 
ATOM      5  C   UNL     1       3.434   5.228  18.339  0.00  0.00    +0.000 A 
ATOM      6  C   UNL     1       4.363   5.702  17.432  0.00  0.00    +0.000 A 
ATOM      7  C   UNL     1       2.569   5.924  19.291  0.00  0.00    +0.000 C 
ATOM      8  N   UNL     1       2.520   7.205  19.481  0.00  0.00    +0.000 NA
ATOM      9  C   UNL     1       1.772   4.827  20.013  0.00  0.00    +0.000 C 
ATOM     10  O   UNL     1       0.959   5.008  20.896  0.00  0.00    +0.000 OA
ATOM     11  N   UNL     1       2.201   3.639  19.466  0.00  0.00    +0.000 N 
ATOM     12  H   UNL     1       1.839   2.740  19.751  0.00  0.00    +0.000 HD
ENDROOT
BRANCH   1  13
ATOM     13  S   UNL     1       6.219   5.234  15.425  0.00  0.00    +0.000 S 
ATOM     14  O   UNL     1       5.621   6.288  14.638  0.00  0.00    +0.000 OA
ATOM     15  O   UNL     1       6.695   4.003  14.834  0.00  0.00    +0.000 OA
BRANCH  13  16
ATOM     16  N   UNL     1       7.494   5.880  16.322  0.00  0.00    +0.000 NA
ATOM     17  H   UNL     1       8.333   5.303  16.302  0.00  0.00    +0.000 HD
BRANCH  16  19
ATOM     18  C   UNL     1       7.822   5.821  18.781  0.00  0.00    +0.000 C 
ATOM     19  C   UNL     1       7.224   6.571  17.601  0.00  0.00    +0.000 C 
ATOM     20  C   UNL     1       7.818   7.977  17.521  0.00  0.00    +0.000 C 
ENDBRANCH  16  19
ENDBRANCH  13  16
ENDBRANCH   1  13
BRANCH   8  21
ATOM     21  N   UNL     1       1.694   7.627  20.476  0.00  0.00    +0.000 N 
ATOM     22  H   UNL     1       1.670   7.164  21.389  0.00  0.00    +0.000 HD
BRANCH  21  23
ATOM     23  C   UNL     1       1.012   8.846  20.353  0.00  0.00    +0.000 A 
ATOM     24  C   UNL     1       1.098   9.627  19.194  0.00  0.00    +0.000 A 
ATOM     25  C   UNL     1       0.422  10.845  19.090  0.00  0.00    +0.000 A 
ATOM     26  C   UNL     1      -0.315  11.326  20.170  0.00  0.00    +0.000 A 
ATOM     27  C   UNL     1      -0.371  10.588  21.358  0.00  0.00    +0.000 A 
ATOM     28  C   UNL     1       0.272   9.345  21.438  0.00  0.00    +0.000 A 
BRANCH  27  29
ATOM     29  C   UNL     1      -1.133  11.157  22.506  0.00  0.00    +0.000 C 
ATOM     30  O   UNL     1      -0.910  10.777  23.647  0.00  0.00    +0.000 OA
ATOM     31  N   UNL     1      -2.108  12.082  22.188  0.00  0.00    +0.000 N 
ATOM     32  H   UNL     1      -2.420  12.144  21.229  0.00  0.00    +0.000 HD
BRANCH  31  33
ATOM     33  C   UNL     1      -2.981  12.625  23.206  0.00  0.00    +0.000 C 
BRANCH  33  34
ATOM     34  C   UNL     1      -2.495  13.963  23.682  0.00  0.00    +0.000 A 
ATOM     35  C   UNL     1      -2.930  14.508  24.895  0.00  0.00    +0.000 A 
ATOM     36  C   UNL     1      -2.475  15.761  25.295  0.00  0.00    +0.000 A 
ATOM     37  C   UNL     1      -1.598  16.435  24.464  0.00  0.00    +0.000 A 
ATOM     38  N   UNL     1      -1.155  15.946  23.286  0.00  0.00    +0.000 NA
ATOM     39  C   UNL     1      -1.617  14.729  22.921  0.00  0.00    +0.000 A 
ENDBRANCH  33  34
ENDBRANCH  31  33
ENDBRANCH  27  29
ENDBRANCH  21  23
ENDBRANCH   8  21
TORSDOF 8
ENDMDL
MODEL 8
REMARK VINA RESULT:      -8.8      2.828      3.127
REMARK  Name = 
REMARK  10 active torsions:
REMARK  status: ('A' for Active; 'I' for Inactive)
REMARK    1  A    between atoms: C_1  and  C_2
REMARK    2  A    between atoms: C_2  and  C_3
REMARK    3  A    between atoms: C_2  and  N_4
REMARK    4  A    between atoms: N_4  and  S_5
REMARK    5  A    between atoms: S_5  and  C_8
REMARK    6  A    between atoms: N_15  and  N_16
REMARK    7  A    between atoms: N_16  and  C_17
REMARK    8  A    between atoms: C_21  and  C_22
REMARK    9  A    between atoms: N_24  and  C_25
REMARK   10  A    between atoms: C_25  and  C_26
REMARK                            x       y       z     vdW  Elec       q    Type
REMARK                         _______ _______ _______ _____ _____    ______ ____
ROOT
ATOM      1  C   UNL     1       5.096   5.002  16.984  0.00  0.00    +0.000 A 
ATOM      2  C   UNL     1       4.820   3.625  16.791  0.00  0.00    +0.000 A 
ATOM      3  C   UNL     1       3.778   3.001  17.485  0.00  0.00    +0.000 A 
ATOM      4  C   UNL     1       3.038   3.781  18.348  0.00  0.00    +0.000 A 
ATOM      5  C   UNL     1       3.314   5.137  18.536  0.00  0.00    +0.000 A 
ATOM      6  C   UNL     1       4.335   5.783  17.865  0.00  0.00    +0.000 A 
ATOM      7  C   UNL     1       2.356   5.617  19.532  0.00  0.00    +0.000 C 
ATOM      8  N   UNL     1       2.293   6.820  20.012  0.00  0.00    +0.000 NA
ATOM      9  C   UNL     1       1.482   4.406  19.892  0.00  0.00    +0.000 C 
ATOM     10  O   UNL     1       0.582   4.398  20.705  0.00  0.00    +0.000 OA
ATOM     11  N   UNL     1       1.962   3.366  19.127  0.00  0.00    +0.000 N 
ATOM     12  H   UNL     1       1.568   2.436  19.154  0.00  0.00    +0.000 HD
ENDROOT
BRANCH   1  13
ATOM     13  S   UNL     1       6.391   5.742  16.003  0.00  0.00    +0.000 S 
ATOM     14  O   UNL     1       5.863   6.019  14.686  0.00  0.00    +0.000 OA
ATOM     15  O   UNL     1       7.556   4.910  16.210  0.00  0.00    +0.000 OA
BRANCH  13  16
ATOM     16  N   UNL     1       6.678   7.205  16.793  0.00  0.00    +0.000 NA
ATOM     17  H   UNL     1       6.346   8.015  16.273  0.00  0.00    +0.000 HD
BRANCH  16  19
ATOM     18  C   UNL     1       8.132   8.861  17.934  0.00  0.00    +0.000 C 
ATOM     19  C   UNL     1       7.930   7.403  17.553  0.00  0.00    +0.000 C 
ATOM     20  C   UNL     1       7.870   6.538  18.813  0.00  0.00    +0.000 C 
ENDBRANCH  16  19
ENDBRANCH  13  16
ENDBRANCH   1  13
BRANCH   8  21
ATOM     21  N   UNL     1       1.369   7.021  20.989  0.00  0.00    +0.000 N 
ATOM     22  H   UNL     1       1.114   6.282  21.651  0.00  0.00    +0.000 HD
BRANCH  21  23
ATOM     23  C   UNL     1       0.901   8.316  21.257  0.00  0.00    +0.000 A 
ATOM     24  C   UNL     1       0.004   8.575  22.301  0.00  0.00    +0.000 A 
ATOM     25  C   UNL     1      -0.464   9.868  22.549  0.00  0.00    +0.000 A 
ATOM     26  C   UNL     1      -0.076  10.918  21.719  0.00  0.00    +0.000 A 
ATOM     27  C   UNL     1       0.777  10.673  20.637  0.00  0.00    +0.000 A 
ATOM     28  C   UNL     1       1.278   9.381  20.423  0.00  0.00    +0.000 A 
BRANCH  27  29
ATOM     29  C   UNL     1       1.132  11.815  19.747  0.00  0.00    +0.000 C 
ATOM     30  O   UNL     1       1.224  11.653  18.538  0.00  0.00    +0.000 OA
ATOM     31  N   UNL     1       1.385  13.018  20.376  0.00  0.00    +0.000 N 
ATOM     32  H   UNL     1       1.556  13.016  21.371  0.00  0.00    +0.000 HD
BRANCH  31  33
ATOM     33  C   UNL     1       1.840  14.170  19.627  0.00  0.00    +0.000 C 
BRANCH  33  34
ATOM     34  C   UNL     1       0.745  15.184  19.471  0.00  0.00    +0.000 A 
ATOM     35  C   UNL     1       0.876  16.271  18.599  0.00  0.00    +0.000 A 
ATOM     36  C   UNL     1      -0.151  17.205  18.496  0.00  0.00    +0.000 A 
ATOM     37  C   UNL     1      -1.281  17.024  19.273  0.00  0.00    +0.000 A 
ATOM     38  N   UNL     1      -1.447  15.991  20.126  0.00  0.00    +0.000 NA
ATOM     39  C   UNL     1      -0.431  15.102  20.210  0.00  0.00    +0.000 A 
ENDBRANCH  33  34
ENDBRANCH  31  33
ENDBRANCH  27  29
ENDBRANCH  21  23
ENDBRANCH   8  21
TORSDOF 8
ENDMDL
MODEL 9
REMARK VINA RESULT:      -8.7      3.043      4.175
REMARK  Name = 
REMARK  10 active torsions:
REMARK  status: ('A' for Active; 'I' for Inactive)
REMARK    1  A    between atoms: C_1  and  C_2
REMARK    2  A    between atoms: C_2  and  C_3
REMARK    3  A    between atoms: C_2  and  N_4
REMARK    4  A    between atoms: N_4  and  S_5
REMARK    5  A    between atoms: S_5  and  C_8
REMARK    6  A    between atoms: N_15  and  N_16
REMARK    7  A    between atoms: N_16  and  C_17
REMARK    8  A    between atoms: C_21  and  C_22
REMARK    9  A    between atoms: N_24  and  C_25
REMARK   10  A    between atoms: C_25  and  C_26
REMARK                            x       y       z     vdW  Elec       q    Type
REMARK                         _______ _______ _______ _____ _____    ______ ____
ROOT
ATOM      1  C   UNL     1       5.190   4.294  16.519  0.00  0.00    +0.000 A 
ATOM      2  C   UNL     1       4.757   2.946  16.580  0.00  0.00    +0.000 A 
ATOM      3  C   UNL     1       3.723   2.567  17.443  0.00  0.00    +0.000 A 
ATOM      4  C   UNL     1       3.149   3.555  18.214  0.00  0.00    +0.000 A 
ATOM      5  C   UNL     1       3.580   4.882  18.151  0.00  0.00    +0.000 A 
ATOM      6  C   UNL     1       4.598   5.289  17.309  0.00  0.00    +0.000 A 
ATOM      7  C   UNL     1       2.771   5.623  19.119  0.00  0.00    +0.000 C 
ATOM      8  N   UNL     1       2.877   6.886  19.394  0.00  0.00    +0.000 NA
ATOM      9  C   UNL     1       1.812   4.595  19.739  0.00  0.00    +0.000 C 
ATOM     10  O   UNL     1       0.994   4.823  20.605  0.00  0.00    +0.000 OA
ATOM     11  N   UNL     1       2.110   3.398  19.126  0.00  0.00    +0.000 N 
ATOM     12  H   UNL     1       1.626   2.537  19.338  0.00  0.00    +0.000 HD
ENDROOT
BRANCH   1  13
ATOM     13  S   UNL     1       6.462   4.712  15.337  0.00  0.00    +0.000 S 
ATOM     14  O   UNL     1       7.745   4.617  15.995  0.00  0.00    +0.000 OA
ATOM     15  O   UNL     1       6.009   5.928  14.697  0.00  0.00    +0.000 OA
BRANCH  13  16
ATOM     16  N   UNL     1       6.342   3.475  14.196  0.00  0.00    +0.000 NA
ATOM     17  H   UNL     1       6.955   2.687  14.392  0.00  0.00    +0.000 HD
BRANCH  16  19
ATOM     18  C   UNL     1       7.058   2.958  11.877  0.00  0.00    +0.000 C 
ATOM     19  C   UNL     1       6.159   3.803  12.766  0.00  0.00    +0.000 C 
ATOM     20  C   UNL     1       4.693   3.565  12.402  0.00  0.00    +0.000 C 
ENDBRANCH  16  19
ENDBRANCH  13  16
ENDBRANCH   1  13
BRANCH   8  21
ATOM     21  N   UNL     1       2.071   7.346  20.387  0.00  0.00    +0.000 N 
ATOM     22  H   UNL     1       2.098   6.950  21.331  0.00  0.00    +0.000 HD
BRANCH  21  23
ATOM     23  C   UNL     1       1.336   8.528  20.204  0.00  0.00    +0.000 A 
ATOM     24  C   UNL     1       1.288   9.183  18.968  0.00  0.00    +0.000 A 
ATOM     25  C   UNL     1       0.562  10.365  18.803  0.00  0.00    +0.000 A 
ATOM     26  C   UNL     1      -0.090  10.938  19.893  0.00  0.00    +0.000 A 
ATOM     27  C   UNL     1      -0.010  10.329  21.151  0.00  0.00    +0.000 A 
ATOM     28  C   UNL     1       0.682   9.119  21.297  0.00  0.00    +0.000 A 
BRANCH  27  29
ATOM     29  C   UNL     1      -0.684  10.996  22.301  0.00  0.00    +0.000 C 
ATOM     30  O   UNL     1      -0.325  10.767  23.448  0.00  0.00    +0.000 OA
ATOM     31  N   UNL     1      -1.738  11.830  21.986  0.00  0.00    +0.000 N 
ATOM     32  H   UNL     1      -2.149  11.763  21.065  0.00  0.00    +0.000 HD
BRANCH  31  33
ATOM     33  C   UNL     1      -2.534  12.452  23.023  0.00  0.00    +0.000 C 
BRANCH  33  34
ATOM     34  C   UNL     1      -2.206  13.909  23.160  0.00  0.00    +0.000 A 
ATOM     35  C   UNL     1      -2.060  14.509  24.416  0.00  0.00    +0.000 A 
ATOM     36  C   UNL     1      -1.777  15.869  24.507  0.00  0.00    +0.000 A 
ATOM     37  C   UNL     1      -1.650  16.591  23.334  0.00  0.00    +0.000 A 
ATOM     38  N   UNL     1      -1.783  16.052  22.103  0.00  0.00    +0.000 NA
ATOM     39  C   UNL     1      -2.064  14.730  22.045  0.00  0.00    +0.000 A 
ENDBRANCH  33  34
ENDBRANCH  31  33
ENDBRANCH  27  29
ENDBRANCH  21  23
ENDBRANCH   8  21
TORSDOF 8
ENDMDL
