MODEL 1
REMARK VINA RESULT:      -7.8      0.000      0.000
REMARK  Name = 
REMARK  3 active torsions:
REMARK  status: ('A' for Active; 'I' for Inactive)
REMARK    1  A    between atoms: C_2  and  C_19
REMARK    2  A    between atoms: N_3  and  C_4
REMARK    3  A    between atoms: N_12  and  C_13
REMARK                            x       y       z     vdW  Elec       q    Type
REMARK                         _______ _______ _______ _____ _____    ______ ____
ROOT
ATOM      1  C   UNL     1       1.371   9.000  19.752  0.00  0.00    +0.000 A 
ATOM      2  C   UNL     1       1.091   8.061  20.767  0.00  0.00    +0.000 A 
ATOM      3  C   UNL     1       1.562   6.734  20.705  0.00  0.00    +0.000 A 
ATOM      4  C   UNL     1       2.323   6.336  19.623  0.00  0.00    +0.000 A 
ATOM      5  C   UNL     1       2.584   7.270  18.614  0.00  0.00    +0.000 A 
ATOM      6  C   UNL     1       2.130   8.582  18.657  0.00  0.00    +0.000 A 
ATOM      7  C   UNL     1       3.471   6.662  17.581  0.00  0.00    +0.000 C 
ATOM      8  C   UNL     1       3.450   5.184  18.001  0.00  0.00    +0.000 C 
ATOM      9  N   UNL     1       2.928   5.116  19.370  0.00  0.00    +0.000 N 
ENDROOT
BRANCH   9  10
ATOM     10  C   UNL     1       2.853   3.901  20.187  0.00  0.00    +0.000 C 
ATOM     11  C   UNL     1       3.809   2.791  19.723  0.00  0.00    +0.000 C 
ATOM     12  C   UNL     1       3.292   1.989  18.525  0.00  0.00    +0.000 C 
ATOM     13  N   UNL     1       1.919   1.516  18.671  0.00  0.00    +0.000 NA
ATOM     14  C   UNL     1       0.995   2.581  19.062  0.00  0.00    +0.000 C 
ATOM     15  C   UNL     1       1.441   3.329  20.314  0.00  0.00    +0.000 C 
ATOM     16  H   UNL     1       1.884   0.761  19.355  0.00  0.00    +0.000 HD
ENDBRANCH   9  10
BRANCH   1  19
ATOM     17  N   UNL     1      -0.424  10.625  17.974  0.00  0.00    +0.000 NA
ATOM     18  C   UNL     1       0.348  11.118  18.899  0.00  0.00    +0.000 C 
ATOM     19  N   UNL     1       0.886  10.320  19.891  0.00  0.00    +0.000 N 
ATOM     20  H   UNL     1      -0.532   9.625  18.165  0.00  0.00    +0.000 HD
ATOM     21  H   UNL     1       1.425  10.832  20.586  0.00  0.00    +0.000 HD
BRANCH  18  22
ATOM     22  C   UNL     1       0.544  12.567  18.843  0.00  0.00    +0.000 A 
ATOM     23  C   UNL     1      -0.411  13.566  18.822  0.00  0.00    +0.000 A 
ATOM     24  C   UNL     1       0.146  14.873  18.777  0.00  0.00    +0.000 A 
ATOM     25  C   UNL     1       1.521  14.839  18.751  0.00  0.00    +0.000 A 
ATOM     26  S   UNL     1       2.126  13.237  18.790  0.00  0.00    +0.000 S 
ENDBRANCH  18  22
ENDBRANCH   1  19
TORSDOF 3
ENDMDL
MODEL 2
REMARK VINA RESULT:      -7.4      2.707      4.069
REMARK  Name = 
REMARK  3 active torsions:
REMARK  status: ('A' for Active; 'I' for Inactive)
REMARK    1  A    between atoms: C_2  and  C_19
REMARK    2  A    between atoms: N_3  and  C_4
REMARK    3  A    between atoms: N_12  and  C_13
REMARK                            x       y       z     vdW  Elec       q    Type
REMARK                         _______ _______ _______ _____ _____    ______ ____
ROOT
ATOM      1  C   UNL     1       1.146   9.141  19.334  0.00  0.00    +0.000 A 
ATOM      2  C   UNL     1       1.732   9.190  18.051  0.00  0.00    +0.000 A 
ATOM      3  C   UNL     1       2.616   8.190  17.599  0.00  0.00    +0.000 A 
ATOM      4  C   UNL     1       2.918   7.128  18.428  0.00  0.00    +0.000 A 
ATOM      5  C   UNL     1       2.343   7.094  19.702  0.00  0.00    +0.000 A 
ATOM      6  C   UNL     1       1.469   8.070  20.168  0.00  0.00    +0.000 A 
ATOM      7  C   UNL     1       2.742   5.841  20.405  0.00  0.00    +0.000 C 
ATOM      8  C   UNL     1       3.833   5.306  19.464  0.00  0.00    +0.000 C 
ATOM      9  N   UNL     1       3.710   6.016  18.187  0.00  0.00    +0.000 N 
ENDROOT
BRANCH   9  10
ATOM     10  C   UNL     1       4.487   5.725  16.978  0.00  0.00    +0.000 C 
ATOM     11  C   UNL     1       5.284   4.414  17.064  0.00  0.00    +0.000 C 
ATOM     12  C   UNL     1       6.594   4.535  17.849  0.00  0.00    +0.000 C 
ATOM     13  N   UNL     1       7.425   5.667  17.451  0.00  0.00    +0.000 NA
ATOM     14  C   UNL     1       6.682   6.928  17.418  0.00  0.00    +0.000 C 
ATOM     15  C   UNL     1       5.424   6.857  16.559  0.00  0.00    +0.000 C 
ATOM     16  H   UNL     1       7.840   5.487  16.537  0.00  0.00    +0.000 HD
ENDBRANCH   9  10
BRANCH   1  19
ATOM     17  N   UNL     1       1.507  11.465  21.203  0.00  0.00    +0.000 NA
ATOM     18  C   UNL     1       0.356  11.000  20.811  0.00  0.00    +0.000 C 
ATOM     19  N   UNL     1       0.250  10.167  19.714  0.00  0.00    +0.000 N 
ATOM     20  H   UNL     1       2.217  11.115  20.553  0.00  0.00    +0.000 HD
ATOM     21  H   UNL     1      -0.707   9.917  19.476  0.00  0.00    +0.000 HD
BRANCH  18  22
ATOM     22  C   UNL     1      -0.800  11.473  21.572  0.00  0.00    +0.000 A 
ATOM     23  C   UNL     1      -1.140  11.200  22.883  0.00  0.00    +0.000 A 
ATOM     24  C   UNL     1      -2.337  11.845  23.299  0.00  0.00    +0.000 A 
ATOM     25  C   UNL     1      -2.891  12.590  22.284  0.00  0.00    +0.000 A 
ATOM     26  S   UNL     1      -1.962  12.512  20.847  0.00  0.00    +0.000 S 
ENDBRANCH  18  22
ENDBRANCH   1  19
TORSDOF 3
ENDMDL
MODEL 3
REMARK VINA RESULT:      -7.4      1.972      2.286
REMARK  Name = 
REMARK  3 active torsions:
REMARK  status: ('A' for Active; 'I' for Inactive)
REMARK    1  A    between atoms: C_2  and  C_19
REMARK    2  A    between atoms: N_3  and  C_4
REMARK    3  A    between atoms: N_12  and  C_13
REMARK                            x       y       z     vdW  Elec       q    Type
REMARK                         _______ _______ _______ _____ _____    ______ ____
ROOT
ATOM      1  C   UNL     1       1.413   8.754  19.799  0.00  0.00    +0.000 A 
ATOM      2  C   UNL     1       1.204   7.753  20.770  0.00  0.00    +0.000 A 
ATOM      3  C   UNL     1       1.758   6.464  20.641  0.00  0.00    +0.000 A 
ATOM      4  C   UNL     1       2.531   6.167  19.536  0.00  0.00    +0.000 A 
ATOM      5  C   UNL     1       2.722   7.162  18.571  0.00  0.00    +0.000 A 
ATOM      6  C   UNL     1       2.184   8.439  18.679  0.00  0.00    +0.000 A 
ATOM      7  C   UNL     1       3.634   6.663  17.503  0.00  0.00    +0.000 C 
ATOM      8  C   UNL     1       3.713   5.168  17.852  0.00  0.00    +0.000 C 
ATOM      9  N   UNL     1       3.210   5.001  19.220  0.00  0.00    +0.000 N 
ENDROOT
BRANCH   9  10
ATOM     10  C   UNL     1       3.222   3.747  19.979  0.00  0.00    +0.000 C 
ATOM     11  C   UNL     1       4.020   2.626  19.295  0.00  0.00    +0.000 C 
ATOM     12  C   UNL     1       3.255   1.914  18.176  0.00  0.00    +0.000 C 
ATOM     13  N   UNL     1       1.908   1.492  18.549  0.00  0.00    +0.000 NA
ATOM     14  C   UNL     1       1.126   2.572  19.153  0.00  0.00    +0.000 C 
ATOM     15  C   UNL     1       1.830   3.229  20.335  0.00  0.00    +0.000 C 
ATOM     16  H   UNL     1       1.959   0.702  19.191  0.00  0.00    +0.000 HD
ENDBRANCH   9  10
BRANCH   1  19
ATOM     17  N   UNL     1       0.931  10.300  22.330  0.00  0.00    +0.000 NA
ATOM     18  C   UNL     1       0.351  10.543  21.190  0.00  0.00    +0.000 C 
ATOM     19  N   UNL     1       0.845  10.033  20.005  0.00  0.00    +0.000 N 
ATOM     20  H   UNL     1       1.757   9.726  22.138  0.00  0.00    +0.000 HD
ATOM     21  H   UNL     1       0.337  10.340  19.179  0.00  0.00    +0.000 HD
BRANCH  18  22
ATOM     22  C   UNL     1      -0.807  11.435  21.256  0.00  0.00    +0.000 A 
ATOM     23  C   UNL     1      -1.571  11.936  20.219  0.00  0.00    +0.000 A 
ATOM     24  C   UNL     1      -2.635  12.770  20.657  0.00  0.00    +0.000 A 
ATOM     25  C   UNL     1      -2.649  12.898  22.027  0.00  0.00    +0.000 A 
ATOM     26  S   UNL     1      -1.390  12.006  22.769  0.00  0.00    +0.000 S 
ENDBRANCH  18  22
ENDBRANCH   1  19
TORSDOF 3
ENDMDL
MODEL 4
REMARK VINA RESULT:      -7.4      2.502      3.659
REMARK  Name = 
REMARK  3 active torsions:
REMARK  status: ('A' for Active; 'I' for Inactive)
REMARK    1  A    between atoms: C_2  and  C_19
REMARK    2  A    between atoms: N_3  and  C_4
REMARK    3  A    between atoms: N_12  and  C_13
REMARK                            x       y       z     vdW  Elec       q    Type
REMARK                         _______ _______ _______ _____ _____    ______ ____
ROOT
ATOM      1  C   UNL     1       0.874   9.629  19.574  0.00  0.00    +0.000 A 
ATOM      2  C   UNL     1       1.571   9.634  18.347  0.00  0.00    +0.000 A 
ATOM      3  C   UNL     1       2.376   8.550  17.944  0.00  0.00    +0.000 A 
ATOM      4  C   UNL     1       2.487   7.447  18.766  0.00  0.00    +0.000 A 
ATOM      5  C   UNL     1       1.804   7.456  19.987  0.00  0.00    +0.000 A 
ATOM      6  C   UNL     1       1.006   8.514  20.404  0.00  0.00    +0.000 A 
ATOM      7  C   UNL     1       2.002   6.154  20.687  0.00  0.00    +0.000 C 
ATOM      8  C   UNL     1       3.105   5.518  19.827  0.00  0.00    +0.000 C 
ATOM      9  N   UNL     1       3.171   6.259  18.563  0.00  0.00    +0.000 N 
ENDROOT
BRANCH   9  10
ATOM     10  C   UNL     1       4.013   5.904  17.416  0.00  0.00    +0.000 C 
ATOM     11  C   UNL     1       4.021   4.399  17.107  0.00  0.00    +0.000 C 
ATOM     12  C   UNL     1       4.951   3.585  18.012  0.00  0.00    +0.000 C 
ATOM     13  N   UNL     1       6.297   4.137  18.134  0.00  0.00    +0.000 NA
ATOM     14  C   UNL     1       6.295   5.559  18.480  0.00  0.00    +0.000 C 
ATOM     15  C   UNL     1       5.452   6.403  17.530  0.00  0.00    +0.000 C 
ATOM     16  H   UNL     1       6.810   3.995  17.264  0.00  0.00    +0.000 HD
ENDBRANCH   9  10
BRANCH   1  19
ATOM     17  N   UNL     1       1.461  12.044  21.263  0.00  0.00    +0.000 NA
ATOM     18  C   UNL     1       0.268  11.639  20.937  0.00  0.00    +0.000 C 
ATOM     19  N   UNL     1       0.066  10.741  19.905  0.00  0.00    +0.000 N 
ATOM     20  H   UNL     1       2.123  11.599  20.620  0.00  0.00    +0.000 HD
ATOM     21  H   UNL     1      -0.913  10.546  19.712  0.00  0.00    +0.000 HD
BRANCH  18  22
ATOM     22  C   UNL     1      -0.827  12.246  21.694  0.00  0.00    +0.000 A 
ATOM     23  C   UNL     1      -1.545  11.715  22.748  0.00  0.00    +0.000 A 
ATOM     24  C   UNL     1      -2.537  12.599  23.254  0.00  0.00    +0.000 A 
ATOM     25  C   UNL     1      -2.560  13.787  22.559  0.00  0.00    +0.000 A 
ATOM     26  S   UNL     1      -1.384  13.827  21.315  0.00  0.00    +0.000 S 
ENDBRANCH  18  22
ENDBRANCH   1  19
TORSDOF 3
ENDMDL
MODEL 5
REMARK VINA RESULT:      -7.3      2.988      3.467
REMARK  Name = 
REMARK  3 active torsions:
REMARK  status: ('A' for Active; 'I' for Inactive)
REMARK    1  A    between atoms: C_2  and  C_19
REMARK    2  A    between atoms: N_3  and  C_4
REMARK    3  A    between atoms: N_12  and  C_13
REMARK                            x       y       z     vdW  Elec       q    Type
REMARK                         _______ _______ _______ _____ _____    ______ ____
ROOT
ATOM      1  C   UNL     1      -0.067  10.122  20.555  0.00  0.00    +0.000 A 
ATOM      2  C   UNL     1       0.182   9.064  21.455  0.00  0.00    +0.000 A 
ATOM      3  C   UNL     1       1.044   7.998  21.129  0.00  0.00    +0.000 A 
ATOM      4  C   UNL     1       1.669   7.984  19.898  0.00  0.00    +0.000 A 
ATOM      5  C   UNL     1       1.405   9.030  19.007  0.00  0.00    +0.000 A 
ATOM      6  C   UNL     1       0.559  10.090  19.308  0.00  0.00    +0.000 A 
ATOM      7  C   UNL     1       2.225   8.862  17.772  0.00  0.00    +0.000 C 
ATOM      8  C   UNL     1       2.777   7.441  17.973  0.00  0.00    +0.000 C 
ATOM      9  N   UNL     1       2.583   7.080  19.381  0.00  0.00    +0.000 N 
ENDROOT
BRANCH   9  10
ATOM     10  C   UNL     1       3.075   5.854  20.016  0.00  0.00    +0.000 C 
ATOM     11  C   UNL     1       4.286   5.238  19.299  0.00  0.00    +0.000 C 
ATOM     12  C   UNL     1       3.922   4.420  18.056  0.00  0.00    +0.000 C 
ATOM     13  N   UNL     1       2.850   3.453  18.272  0.00  0.00    +0.000 NA
ATOM     14  C   UNL     1       1.673   4.047  18.907  0.00  0.00    +0.000 C 
ATOM     15  C   UNL     1       2.001   4.782  20.202  0.00  0.00    +0.000 C 
ATOM     16  H   UNL     1       3.193   2.677  18.838  0.00  0.00    +0.000 HD
ENDBRANCH   9  10
BRANCH   1  19
ATOM     17  N   UNL     1       0.543  12.777  21.822  0.00  0.00    +0.000 NA
ATOM     18  C   UNL     1      -0.627  12.206  21.822  0.00  0.00    +0.000 C 
ATOM     19  N   UNL     1      -0.926  11.171  20.957  0.00  0.00    +0.000 N 
ATOM     20  H   UNL     1       1.102  12.331  21.088  0.00  0.00    +0.000 HD
ATOM     21  H   UNL     1      -1.888  10.848  21.016  0.00  0.00    +0.000 HD
BRANCH  18  22
ATOM     22  C   UNL     1      -1.601  12.779  22.751  0.00  0.00    +0.000 A 
ATOM     23  C   UNL     1      -2.818  12.262  23.152  0.00  0.00    +0.000 A 
ATOM     24  C   UNL     1      -3.501  13.092  24.083  0.00  0.00    +0.000 A 
ATOM     25  C   UNL     1      -2.789  14.236  24.362  0.00  0.00    +0.000 A 
ATOM     26  S   UNL     1      -1.305  14.294  23.508  0.00  0.00    +0.000 S 
ENDBRANCH  18  22
ENDBRANCH   1  19
TORSDOF 3
ENDMDL
MODEL 6
REMARK VINA RESULT:      -7.3      1.100      1.294
REMARK  Name = 
REMARK  3 active torsions:
REMARK  status: ('A' for Active; 'I' for Inactive)
REMARK    1  A    between atoms: C_2  and  C_19
REMARK    2  A    between atoms: N_3  and  C_4
REMARK    3  A    between atoms: N_12  and  C_13
REMARK                            x       y       z     vdW  Elec       q    Type
REMARK                         _______ _______ _______ _____ _____    ______ ____
ROOT
ATOM      1  C   UNL     1       1.637   9.228  19.121  0.00  0.00    +0.000 A 
ATOM      2  C   UNL     1       1.275   8.433  20.230  0.00  0.00    +0.000 A 
ATOM      3  C   UNL     1       1.672   7.086  20.341  0.00  0.00    +0.000 A 
ATOM      4  C   UNL     1       2.440   6.522  19.341  0.00  0.00    +0.000 A 
ATOM      5  C   UNL     1       2.783   7.313  18.239  0.00  0.00    +0.000 A 
ATOM      6  C   UNL     1       2.402   8.644  18.111  0.00  0.00    +0.000 A 
ATOM      7  C   UNL     1       3.664   6.541  17.317  0.00  0.00    +0.000 C 
ATOM      8  C   UNL     1       3.548   5.127  17.908  0.00  0.00    +0.000 C 
ATOM      9  N   UNL     1       2.983   5.250  19.255  0.00  0.00    +0.000 N 
ENDROOT
BRANCH   9  10
ATOM     10  C   UNL     1       2.816   4.147  20.207  0.00  0.00    +0.000 C 
ATOM     11  C   UNL     1       3.748   2.957  19.933  0.00  0.00    +0.000 C 
ATOM     12  C   UNL     1       3.261   2.033  18.813  0.00  0.00    +0.000 C 
ATOM     13  N   UNL     1       1.863   1.630  18.939  0.00  0.00    +0.000 NA
ATOM     14  C   UNL     1       0.965   2.766  19.147  0.00  0.00    +0.000 C 
ATOM     15  C   UNL     1       1.378   3.645  20.323  0.00  0.00    +0.000 C 
ATOM     16  H   UNL     1       1.762   0.965  19.705  0.00  0.00    +0.000 HD
ENDBRANCH   9  10
BRANCH   1  19
ATOM     17  N   UNL     1       2.540  11.509  17.387  0.00  0.00    +0.000 NA
ATOM     18  C   UNL     1       1.895  11.641  18.510  0.00  0.00    +0.000 C 
ATOM     19  N   UNL     1       1.223  10.580  19.086  0.00  0.00    +0.000 N 
ATOM     20  H   UNL     1       2.413  10.543  17.072  0.00  0.00    +0.000 HD
ATOM     21  H   UNL     1       0.713  10.823  19.932  0.00  0.00    +0.000 HD
BRANCH  18  22
ATOM     22  C   UNL     1       1.887  12.993  19.070  0.00  0.00    +0.000 A 
ATOM     23  C   UNL     1       2.394  14.156  18.524  0.00  0.00    +0.000 A 
ATOM     24  C   UNL     1       2.196  15.297  19.349  0.00  0.00    +0.000 A 
ATOM     25  C   UNL     1       1.550  14.971  20.519  0.00  0.00    +0.000 A 
ATOM     26  S   UNL     1       1.181  13.301  20.607  0.00  0.00    +0.000 S 
ENDBRANCH  18  22
ENDBRANCH   1  19
TORSDOF 3
ENDMDL
MODEL 7
REMARK VINA RESULT:      -7.2      3.101      8.243
REMARK  Name = 
REMARK  3 active torsions:
REMARK  status: ('A' for Active; 'I' for Inactive)
REMARK    1  A    between atoms: C_2  and  C_19
REMARK    2  A    between atoms: N_3  and  C_4
REMARK    3  A    between atoms: N_12  and  C_13
REMARK                            x       y       z     vdW  Elec       q    Type
REMARK                         _______ _______ _______ _____ _____    ______ ____
ROOT
ATOM      1  C   UNL     1       2.412   7.753  18.535  0.00  0.00    +0.000 A 
ATOM      2  C   UNL     1       2.176   8.891  17.735  0.00  0.00    +0.000 A 
ATOM      3  C   UNL     1       1.429   9.989  18.206  0.00  0.00    +0.000 A 
ATOM      4  C   UNL     1       0.914   9.958  19.487  0.00  0.00    +0.000 A 
ATOM      5  C   UNL     1       1.141   8.820  20.268  0.00  0.00    +0.000 A 
ATOM      6  C   UNL     1       1.875   7.727  19.823  0.00  0.00    +0.000 A 
ATOM      7  C   UNL     1       0.564   9.016  21.629  0.00  0.00    +0.000 C 
ATOM      8  C   UNL     1      -0.255  10.301  21.423  0.00  0.00    +0.000 C 
ATOM      9  N   UNL     1       0.199  10.925  20.176  0.00  0.00    +0.000 N 
ENDROOT
BRANCH   9  10
ATOM     10  C   UNL     1      -0.243  12.229  19.672  0.00  0.00    +0.000 C 
ATOM     11  C   UNL     1      -1.044  13.042  20.701  0.00  0.00    +0.000 C 
ATOM     12  C   UNL     1      -2.511  12.617  20.821  0.00  0.00    +0.000 C 
ATOM     13  N   UNL     1      -3.204  12.498  19.542  0.00  0.00    +0.000 NA
ATOM     14  C   UNL     1      -2.470  11.680  18.576  0.00  0.00    +0.000 C 
ATOM     15  C   UNL     1      -1.034  12.149  18.367  0.00  0.00    +0.000 C 
ATOM     16  H   UNL     1      -3.372  13.425  19.153  0.00  0.00    +0.000 HD
ENDBRANCH   9  10
BRANCH   1  19
ATOM     17  N   UNL     1       3.867   5.512  19.910  0.00  0.00    +0.000 NA
ATOM     18  C   UNL     1       4.094   5.906  18.690  0.00  0.00    +0.000 C 
ATOM     19  N   UNL     1       3.190   6.697  18.006  0.00  0.00    +0.000 N 
ATOM     20  H   UNL     1       2.949   5.875  20.184  0.00  0.00    +0.000 HD
ATOM     21  H   UNL     1       3.456   6.891  17.044  0.00  0.00    +0.000 HD
BRANCH  18  22
ATOM     22  C   UNL     1       5.330   5.402  18.091  0.00  0.00    +0.000 A 
ATOM     23  C   UNL     1       6.580   5.279  18.667  0.00  0.00    +0.000 A 
ATOM     24  C   UNL     1       7.553   4.734  17.785  0.00  0.00    +0.000 A 
ATOM     25  C   UNL     1       7.021   4.465  16.545  0.00  0.00    +0.000 A 
ATOM     26  S   UNL     1       5.357   4.862  16.459  0.00  0.00    +0.000 S 
ENDBRANCH  18  22
ENDBRANCH   1  19
TORSDOF 3
ENDMDL
MODEL 8
REMARK VINA RESULT:      -7.2      2.849      8.528
REMARK  Name = 
REMARK  3 active torsions:
REMARK  status: ('A' for Active; 'I' for Inactive)
REMARK    1  A    between atoms: C_2  and  C_19
REMARK    2  A    between atoms: N_3  and  C_4
REMARK    3  A    between atoms: N_12  and  C_13
REMARK                            x       y       z     vdW  Elec       q    Type
REMARK                         _______ _______ _______ _____ _____    ______ ____
ROOT
ATOM      1  C   UNL     1       2.286   7.433  19.047  0.00  0.00    +0.000 A 
ATOM      2  C   UNL     1       2.076   8.420  18.061  0.00  0.00    +0.000 A 
ATOM      3  C   UNL     1       1.392   9.620  18.344  0.00  0.00    +0.000 A 
ATOM      4  C   UNL     1       0.915   9.842  19.620  0.00  0.00    +0.000 A 
ATOM      5  C   UNL     1       1.115   8.852  20.587  0.00  0.00    +0.000 A 
ATOM      6  C   UNL     1       1.787   7.662  20.330  0.00  0.00    +0.000 A 
ATOM      7  C   UNL     1       0.587   9.315  21.903  0.00  0.00    +0.000 C 
ATOM      8  C   UNL     1      -0.179  10.581  21.487  0.00  0.00    +0.000 C 
ATOM      9  N   UNL     1       0.264  10.950  20.139  0.00  0.00    +0.000 N 
ENDROOT
BRANCH   9  10
ATOM     10  C   UNL     1      -0.135  12.164  19.419  0.00  0.00    +0.000 C 
ATOM     11  C   UNL     1      -0.694  13.263  20.336  0.00  0.00    +0.000 C 
ATOM     12  C   UNL     1      -2.156  13.049  20.740  0.00  0.00    +0.000 C 
ATOM     13  N   UNL     1      -3.046  12.749  19.623  0.00  0.00    +0.000 NA
ATOM     14  C   UNL     1      -2.543  11.666  18.776  0.00  0.00    +0.000 C 
ATOM     15  C   UNL     1      -1.121  11.908  18.280  0.00  0.00    +0.000 C 
ATOM     16  H   UNL     1      -3.190  13.588  19.061  0.00  0.00    +0.000 HD
ENDBRANCH   9  10
BRANCH   1  19
ATOM     17  N   UNL     1       1.401   4.953  17.600  0.00  0.00    +0.000 NA
ATOM     18  C   UNL     1       2.469   5.039  18.339  0.00  0.00    +0.000 C 
ATOM     19  N   UNL     1       3.001   6.263  18.699  0.00  0.00    +0.000 N 
ATOM     20  H   UNL     1       1.111   5.907  17.366  0.00  0.00    +0.000 HD
ATOM     21  H   UNL     1       3.866   6.198  19.230  0.00  0.00    +0.000 HD
BRANCH  18  22
ATOM     22  C   UNL     1       3.086   3.762  18.696  0.00  0.00    +0.000 A 
ATOM     23  C   UNL     1       4.058   3.510  19.647  0.00  0.00    +0.000 A 
ATOM     24  C   UNL     1       4.415   2.137  19.733  0.00  0.00    +0.000 A 
ATOM     25  C   UNL     1       3.713   1.371  18.830  0.00  0.00    +0.000 A 
ATOM     26  S   UNL     1       2.627   2.311  17.898  0.00  0.00    +0.000 S 
ENDBRANCH  18  22
ENDBRANCH   1  19
TORSDOF 3
ENDMDL
MODEL 9
REMARK VINA RESULT:      -7.2      2.628      2.927
REMARK  Name = 
REMARK  3 active torsions:
REMARK  status: ('A' for Active; 'I' for Inactive)
REMARK    1  A    between atoms: C_2  and  C_19
REMARK    2  A    between atoms: N_3  and  C_4
REMARK    3  A    between atoms: N_12  and  C_13
REMARK                            x       y       z     vdW  Elec       q    Type
REMARK                         _______ _______ _______ _____ _____    ______ ____
ROOT
ATOM      1  C   UNL     1       0.456   9.914  20.304  0.00  0.00    +0.000 A 
ATOM      2  C   UNL     1       0.541   8.874  21.253  0.00  0.00    +0.000 A 
ATOM      3  C   UNL     1       1.279   7.699  21.005  0.00  0.00    +0.000 A 
ATOM      4  C   UNL     1       1.942   7.558  19.802  0.00  0.00    +0.000 A 
ATOM      5  C   UNL     1       1.840   8.588  18.861  0.00  0.00    +0.000 A 
ATOM      6  C   UNL     1       1.119   9.754  19.086  0.00  0.00    +0.000 A 
ATOM      7  C   UNL     1       2.678   8.269  17.669  0.00  0.00    +0.000 C 
ATOM      8  C   UNL     1       3.046   6.803  17.947  0.00  0.00    +0.000 C 
ATOM      9  N   UNL     1       2.757   6.529  19.358  0.00  0.00    +0.000 N 
ENDROOT
BRANCH   9  10
ATOM     10  C   UNL     1       3.073   5.280  20.060  0.00  0.00    +0.000 C 
ATOM     11  C   UNL     1       4.187   4.465  19.386  0.00  0.00    +0.000 C 
ATOM     12  C   UNL     1       3.713   3.642  18.184  0.00  0.00    +0.000 C 
ATOM     13  N   UNL     1       2.516   2.846  18.441  0.00  0.00    +0.000 NA
ATOM     14  C   UNL     1       1.433   3.631  19.035  0.00  0.00    +0.000 C 
ATOM     15  C   UNL     1       1.860   4.381  20.293  0.00  0.00    +0.000 C 
ATOM     16  H   UNL     1       2.747   2.061  19.050  0.00  0.00    +0.000 HD
ENDBRANCH   9  10
BRANCH   1  19
ATOM     17  N   UNL     1       1.359  12.585  21.342  0.00  0.00    +0.000 NA
ATOM     18  C   UNL     1       0.138  12.140  21.403  0.00  0.00    +0.000 C 
ATOM     19  N   UNL     1      -0.283  11.076  20.629  0.00  0.00    +0.000 N 
ATOM     20  H   UNL     1       1.855  12.027  20.641  0.00  0.00    +0.000 HD
ATOM     21  H   UNL     1      -1.272  10.859  20.726  0.00  0.00    +0.000 HD
BRANCH  18  22
ATOM     22  C   UNL     1      -0.754  12.883  22.294  0.00  0.00    +0.000 A 
ATOM     23  C   UNL     1      -0.625  14.178  22.759  0.00  0.00    +0.000 A 
ATOM     24  C   UNL     1      -1.694  14.580  23.605  0.00  0.00    +0.000 A 
ATOM     25  C   UNL     1      -2.613  13.570  23.776  0.00  0.00    +0.000 A 
ATOM     26  S   UNL     1      -2.183  12.156  22.912  0.00  0.00    +0.000 S 
ENDBRANCH  18  22
ENDBRANCH   1  19
TORSDOF 3
ENDMDL
