MODEL 1
REMARK VINA RESULT:      -7.0      0.000      0.000
REMARK  Name = 
REMARK  10 active torsions:
REMARK  status: ('A' for Active; 'I' for Inactive)
REMARK    1  A    between atoms: C_1  and  C_2
REMARK    2  A    between atoms: C_2  and  N_3
REMARK    3  A    between atoms: N_3  and  C_4
REMARK    4  A    between atoms: N_3  and  S_6
REMARK    5  A    between atoms: C_4  and  C_5
REMARK    6  A    between atoms: S_6  and  C_9
REMARK    7  A    between atoms: C_11  and  N_12
REMARK    8  A    between atoms: C_13  and  C_15
REMARK    9  A    between atoms: C_15  and  C_16
REMARK   10  A    between atoms: C_23  and  C_24
REMARK                            x       y       z     vdW  Elec       q    Type
REMARK                         _______ _______ _______ _____ _____    ______ ____
ROOT
ATOM      1  C   UNL     1       3.986   4.626  18.148  0.00  0.00    +0.000 A 
ATOM      2  C   UNL     1       3.123   5.520  18.810  0.00  0.00    +0.000 A 
ATOM      3  C   UNL     1       3.037   6.859  18.425  0.00  0.00    +0.000 A 
ATOM      4  C   UNL     1       3.812   7.292  17.347  0.00  0.00    +0.000 A 
ATOM      5  C   UNL     1       4.674   6.408  16.684  0.00  0.00    +0.000 A 
ATOM      6  C   UNL     1       4.777   5.061  17.071  0.00  0.00    +0.000 A 
ATOM      7  C   UNL     1       5.719   4.174  16.306  0.00  0.00    +0.000 C 
ENDROOT
BRANCH   3   8
ATOM      8  N   UNL     1       2.202   7.804  19.064  0.00  0.00    +0.000 N 
ATOM      9  C   UNL     1       1.803   9.026  18.545  0.00  0.00    +0.000 C 
ATOM     10  O   UNL     1       2.064   9.453  17.422  0.00  0.00    +0.000 OA
ATOM     11  H   UNL     1       1.766   7.509  19.929  0.00  0.00    +0.000 HD
BRANCH   9  12
ATOM     12  C   UNL     1       0.962   9.859  19.498  0.00  0.00    +0.000 C 
BRANCH  12  13
ATOM     13  C   UNL     1      -0.103  10.650  18.795  0.00  0.00    +0.000 A 
ATOM     14  C   UNL     1      -0.207  12.085  18.807  0.00  0.00    +0.000 A 
ATOM     15  C   UNL     1      -1.294  12.546  18.099  0.00  0.00    +0.000 A 
ATOM     16  S   UNL     1      -2.210  11.269  17.432  0.00  0.00    +0.000 S 
ATOM     17  C   UNL     1      -1.154  10.097  18.088  0.00  0.00    +0.000 A 
ENDBRANCH  12  13
ENDBRANCH   9  12
ENDBRANCH   3   8
BRANCH   1  18
ATOM     18  S   UNL     1       4.028   2.960  18.808  0.00  0.00    +0.000 S 
ATOM     19  O   UNL     1       5.178   2.875  19.683  0.00  0.00    +0.000 OA
ATOM     20  O   UNL     1       3.851   2.001  17.737  0.00  0.00    +0.000 OA
BRANCH  18  21
ATOM     21  N   UNL     1       2.603   2.887  19.780  0.00  0.00    +0.000 NA
BRANCH  21  23
ATOM     22  C   UNL     1       0.360   2.756  18.642  0.00  0.00    +0.000 C 
ATOM     23  C   UNL     1       1.541   1.997  19.225  0.00  0.00    +0.000 C 
ENDBRANCH  21  23
BRANCH  21  24
ATOM     24  C   UNL     1       2.887   2.715  21.239  0.00  0.00    +0.000 C 
ATOM     25  C   UNL     1       1.636   2.540  22.086  0.00  0.00    +0.000 C 
ENDBRANCH  21  24
ENDBRANCH  18  21
ENDBRANCH   1  18
TORSDOF 7
ENDMDL
MODEL 2
REMARK VINA RESULT:      -7.0      1.962      4.143
REMARK  Name = 
REMARK  10 active torsions:
REMARK  status: ('A' for Active; 'I' for Inactive)
REMARK    1  A    between atoms: C_1  and  C_2
REMARK    2  A    between atoms: C_2  and  N_3
REMARK    3  A    between atoms: N_3  and  C_4
REMARK    4  A    between atoms: N_3  and  S_6
REMARK    5  A    between atoms: C_4  and  C_5
REMARK    6  A    between atoms: S_6  and  C_9
REMARK    7  A    between atoms: C_11  and  N_12
REMARK    8  A    between atoms: C_13  and  C_15
REMARK    9  A    between atoms: C_15  and  C_16
REMARK   10  A    between atoms: C_23  and  C_24
REMARK                            x       y       z     vdW  Elec       q    Type
REMARK                         _______ _______ _______ _____ _____    ______ ____
ROOT
ATOM      1  C   UNL     1       3.663   5.052  19.140  0.00  0.00    +0.000 A 
ATOM      2  C   UNL     1       3.342   6.393  18.856  0.00  0.00    +0.000 A 
ATOM      3  C   UNL     1       2.294   7.039  19.513  0.00  0.00    +0.000 A 
ATOM      4  C   UNL     1       1.579   6.331  20.482  0.00  0.00    +0.000 A 
ATOM      5  C   UNL     1       1.892   4.995  20.768  0.00  0.00    +0.000 A 
ATOM      6  C   UNL     1       2.937   4.331  20.105  0.00  0.00    +0.000 A 
ATOM      7  C   UNL     1       3.216   2.902  20.473  0.00  0.00    +0.000 C 
ENDROOT
BRANCH   3   8
ATOM      8  N   UNL     1       1.917   8.377  19.256  0.00  0.00    +0.000 N 
ATOM      9  C   UNL     1       1.062   9.148  20.029  0.00  0.00    +0.000 C 
ATOM     10  O   UNL     1       0.545   8.809  21.091  0.00  0.00    +0.000 OA
ATOM     11  H   UNL     1       2.406   8.847  18.505  0.00  0.00    +0.000 HD
BRANCH   9  12
ATOM     12  C   UNL     1       0.788  10.531  19.457  0.00  0.00    +0.000 C 
BRANCH  12  13
ATOM     13  C   UNL     1      -0.563  10.636  18.812  0.00  0.00    +0.000 A 
ATOM     14  C   UNL     1      -0.983   9.891  17.655  0.00  0.00    +0.000 A 
ATOM     15  C   UNL     1      -2.266  10.201  17.259  0.00  0.00    +0.000 A 
ATOM     16  S   UNL     1      -2.969  11.398  18.253  0.00  0.00    +0.000 S 
ATOM     17  C   UNL     1      -1.561  11.503  19.215  0.00  0.00    +0.000 A 
ENDBRANCH  12  13
ENDBRANCH   9  12
ENDBRANCH   3   8
BRANCH   1  18
ATOM     18  S   UNL     1       4.992   4.351  18.162  0.00  0.00    +0.000 S 
ATOM     19  O   UNL     1       4.385   3.482  17.176  0.00  0.00    +0.000 OA
ATOM     20  O   UNL     1       6.035   3.851  19.034  0.00  0.00    +0.000 OA
BRANCH  18  21
ATOM     21  N   UNL     1       5.644   5.725  17.344  0.00  0.00    +0.000 NA
BRANCH  21  23
ATOM     22  C   UNL     1       7.392   7.531  17.501  0.00  0.00    +0.000 C 
ATOM     23  C   UNL     1       7.028   6.082  17.777  0.00  0.00    +0.000 C 
ENDBRANCH  21  23
BRANCH  21  24
ATOM     24  C   UNL     1       5.421   5.697  15.865  0.00  0.00    +0.000 C 
ATOM     25  C   UNL     1       6.517   4.976  15.097  0.00  0.00    +0.000 C 
ENDBRANCH  21  24
ENDBRANCH  18  21
ENDBRANCH   1  18
TORSDOF 7
ENDMDL
MODEL 3
REMARK VINA RESULT:      -6.8      2.045      4.077
REMARK  Name = 
REMARK  10 active torsions:
REMARK  status: ('A' for Active; 'I' for Inactive)
REMARK    1  A    between atoms: C_1  and  C_2
REMARK    2  A    between atoms: C_2  and  N_3
REMARK    3  A    between atoms: N_3  and  C_4
REMARK    4  A    between atoms: N_3  and  S_6
REMARK    5  A    between atoms: C_4  and  C_5
REMARK    6  A    between atoms: S_6  and  C_9
REMARK    7  A    between atoms: C_11  and  N_12
REMARK    8  A    between atoms: C_13  and  C_15
REMARK    9  A    between atoms: C_15  and  C_16
REMARK   10  A    between atoms: C_23  and  C_24
REMARK                            x       y       z     vdW  Elec       q    Type
REMARK                         _______ _______ _______ _____ _____    ______ ____
ROOT
ATOM      1  C   UNL     1       3.439   4.291  19.018  0.00  0.00    +0.000 A 
ATOM      2  C   UNL     1       3.132   5.489  19.691  0.00  0.00    +0.000 A 
ATOM      3  C   UNL     1       1.937   5.637  20.394  0.00  0.00    +0.000 A 
ATOM      4  C   UNL     1       1.053   4.555  20.439  0.00  0.00    +0.000 A 
ATOM      5  C   UNL     1       1.351   3.360  19.771  0.00  0.00    +0.000 A 
ATOM      6  C   UNL     1       2.547   3.205  19.050  0.00  0.00    +0.000 A 
ATOM      7  C   UNL     1       2.797   1.890  18.367  0.00  0.00    +0.000 C 
ENDROOT
BRANCH   3   8
ATOM      8  N   UNL     1       1.570   6.821  21.073  0.00  0.00    +0.000 N 
ATOM      9  C   UNL     1       1.519   8.095  20.526  0.00  0.00    +0.000 C 
ATOM     10  O   UNL     1       1.728   8.385  19.351  0.00  0.00    +0.000 OA
ATOM     11  H   UNL     1       1.201   6.709  22.009  0.00  0.00    +0.000 HD
BRANCH   9  12
ATOM     12  C   UNL     1       1.159   9.183  21.525  0.00  0.00    +0.000 C 
BRANCH  12  13
ATOM     13  C   UNL     1       0.492  10.365  20.882  0.00  0.00    +0.000 A 
ATOM     14  C   UNL     1       1.061  11.683  20.790  0.00  0.00    +0.000 A 
ATOM     15  C   UNL     1       0.223  12.583  20.171  0.00  0.00    +0.000 A 
ATOM     16  S   UNL     1      -1.258  11.866  19.713  0.00  0.00    +0.000 S 
ATOM     17  C   UNL     1      -0.780  10.351  20.341  0.00  0.00    +0.000 A 
ENDBRANCH  12  13
ENDBRANCH   9  12
ENDBRANCH   3   8
BRANCH   1  18
ATOM     18  S   UNL     1       4.982   4.288  18.106  0.00  0.00    +0.000 S 
ATOM     19  O   UNL     1       4.687   3.825  16.767  0.00  0.00    +0.000 OA
ATOM     20  O   UNL     1       6.017   3.647  18.891  0.00  0.00    +0.000 OA
BRANCH  18  21
ATOM     21  N   UNL     1       5.390   5.964  18.021  0.00  0.00    +0.000 NA
BRANCH  21  23
ATOM     22  C   UNL     1       7.527   7.178  17.469  0.00  0.00    +0.000 C 
ATOM     23  C   UNL     1       6.793   6.264  18.436  0.00  0.00    +0.000 C 
ENDBRANCH  21  23
BRANCH  21  24
ATOM     24  C   UNL     1       4.941   6.622  16.755  0.00  0.00    +0.000 C 
ATOM     25  C   UNL     1       3.794   7.600  16.950  0.00  0.00    +0.000 C 
ENDBRANCH  21  24
ENDBRANCH  18  21
ENDBRANCH   1  18
TORSDOF 7
ENDMDL
MODEL 4
REMARK VINA RESULT:      -6.8      1.831      3.910
REMARK  Name = 
REMARK  10 active torsions:
REMARK  status: ('A' for Active; 'I' for Inactive)
REMARK    1  A    between atoms: C_1  and  C_2
REMARK    2  A    between atoms: C_2  and  N_3
REMARK    3  A    between atoms: N_3  and  C_4
REMARK    4  A    between atoms: N_3  and  S_6
REMARK    5  A    between atoms: C_4  and  C_5
REMARK    6  A    between atoms: S_6  and  C_9
REMARK    7  A    between atoms: C_11  and  N_12
REMARK    8  A    between atoms: C_13  and  C_15
REMARK    9  A    between atoms: C_15  and  C_16
REMARK   10  A    between atoms: C_23  and  C_24
REMARK                            x       y       z     vdW  Elec       q    Type
REMARK                         _______ _______ _______ _____ _____    ______ ____
ROOT
ATOM      1  C   UNL     1       3.294   4.669  19.388  0.00  0.00    +0.000 A 
ATOM      2  C   UNL     1       3.278   6.049  19.112  0.00  0.00    +0.000 A 
ATOM      3  C   UNL     1       2.308   6.885  19.667  0.00  0.00    +0.000 A 
ATOM      4  C   UNL     1       1.361   6.325  20.528  0.00  0.00    +0.000 A 
ATOM      5  C   UNL     1       1.370   4.951  20.806  0.00  0.00    +0.000 A 
ATOM      6  C   UNL     1       2.335   4.099  20.244  0.00  0.00    +0.000 A 
ATOM      7  C   UNL     1       2.283   2.639  20.597  0.00  0.00    +0.000 C 
ENDROOT
BRANCH   3   8
ATOM      8  N   UNL     1       2.233   8.273  19.412  0.00  0.00    +0.000 N 
ATOM      9  C   UNL     1       1.996   8.867  18.181  0.00  0.00    +0.000 C 
ATOM     10  O   UNL     1       1.754   8.278  17.130  0.00  0.00    +0.000 OA
ATOM     11  H   UNL     1       2.239   8.881  20.221  0.00  0.00    +0.000 HD
BRANCH   9  12
ATOM     12  C   UNL     1       2.046  10.386  18.207  0.00  0.00    +0.000 C 
BRANCH  12  13
ATOM     13  C   UNL     1       0.829  10.998  18.837  0.00  0.00    +0.000 A 
ATOM     14  C   UNL     1      -0.525  10.766  18.409  0.00  0.00    +0.000 A 
ATOM     15  C   UNL     1      -1.446  11.473  19.150  0.00  0.00    +0.000 A 
ATOM     16  S   UNL     1      -0.700  12.434  20.348  0.00  0.00    +0.000 S 
ATOM     17  C   UNL     1       0.856  11.906  19.879  0.00  0.00    +0.000 A 
ENDBRANCH  12  13
ENDBRANCH   9  12
ENDBRANCH   3   8
BRANCH   1  18
ATOM     18  S   UNL     1       4.563   3.725  18.544  0.00  0.00    +0.000 S 
ATOM     19  O   UNL     1       3.906   2.949  17.515  0.00  0.00    +0.000 OA
ATOM     20  O   UNL     1       5.422   3.076  19.513  0.00  0.00    +0.000 OA
BRANCH  18  21
ATOM     21  N   UNL     1       5.514   4.946  17.777  0.00  0.00    +0.000 NA
BRANCH  21  23
ATOM     22  C   UNL     1       7.527   6.011  18.852  0.00  0.00    +0.000 C 
ATOM     23  C   UNL     1       6.976   4.837  18.060  0.00  0.00    +0.000 C 
ENDBRANCH  21  23
BRANCH  21  24
ATOM     24  C   UNL     1       5.152   5.167  16.342  0.00  0.00    +0.000 C 
ATOM     25  C   UNL     1       5.038   6.634  15.961  0.00  0.00    +0.000 C 
ENDBRANCH  21  24
ENDBRANCH  18  21
ENDBRANCH   1  18
TORSDOF 7
ENDMDL
MODEL 5
REMARK VINA RESULT:      -6.7      1.916      3.945
REMARK  Name = 
REMARK  10 active torsions:
REMARK  status: ('A' for Active; 'I' for Inactive)
REMARK    1  A    between atoms: C_1  and  C_2
REMARK    2  A    between atoms: C_2  and  N_3
REMARK    3  A    between atoms: N_3  and  C_4
REMARK    4  A    between atoms: N_3  and  S_6
REMARK    5  A    between atoms: C_4  and  C_5
REMARK    6  A    between atoms: S_6  and  C_9
REMARK    7  A    between atoms: C_11  and  N_12
REMARK    8  A    between atoms: C_13  and  C_15
REMARK    9  A    between atoms: C_15  and  C_16
REMARK   10  A    between atoms: C_23  and  C_24
REMARK                            x       y       z     vdW  Elec       q    Type
REMARK                         _______ _______ _______ _____ _____    ______ ____
ROOT
ATOM      1  C   UNL     1       3.414   4.887  19.410  0.00  0.00    +0.000 A 
ATOM      2  C   UNL     1       3.223   6.218  18.992  0.00  0.00    +0.000 A 
ATOM      3  C   UNL     1       2.192   6.998  19.516  0.00  0.00    +0.000 A 
ATOM      4  C   UNL     1       1.361   6.437  20.489  0.00  0.00    +0.000 A 
ATOM      5  C   UNL     1       1.544   5.112  20.908  0.00  0.00    +0.000 A 
ATOM      6  C   UNL     1       2.572   4.314  20.379  0.00  0.00    +0.000 A 
ATOM      7  C   UNL     1       2.708   2.906  20.885  0.00  0.00    +0.000 C 
ENDROOT
BRANCH   3   8
ATOM      8  N   UNL     1       1.943   8.332  19.122  0.00  0.00    +0.000 N 
ATOM      9  C   UNL     1       1.194   9.266  19.821  0.00  0.00    +0.000 C 
ATOM     10  O   UNL     1       0.679   9.099  20.924  0.00  0.00    +0.000 OA
ATOM     11  H   UNL     1       2.453   8.667  18.314  0.00  0.00    +0.000 HD
BRANCH   9  12
ATOM     12  C   UNL     1       1.043  10.600  19.107  0.00  0.00    +0.000 C 
BRANCH  12  13
ATOM     13  C   UNL     1      -0.393  10.987  18.896  0.00  0.00    +0.000 A 
ATOM     14  C   UNL     1      -1.111  11.951  19.686  0.00  0.00    +0.000 A 
ATOM     15  C   UNL     1      -2.421  12.095  19.289  0.00  0.00    +0.000 A 
ATOM     16  S   UNL     1      -2.810  11.066  17.983  0.00  0.00    +0.000 S 
ATOM     17  C   UNL     1      -1.226  10.426  17.946  0.00  0.00    +0.000 A 
ENDBRANCH  12  13
ENDBRANCH   9  12
ENDBRANCH   3   8
BRANCH   1  18
ATOM     18  S   UNL     1       4.740   4.002  18.591  0.00  0.00    +0.000 S 
ATOM     19  O   UNL     1       4.161   3.321  17.452  0.00  0.00    +0.000 OA
ATOM     20  O   UNL     1       5.517   3.264  19.566  0.00  0.00    +0.000 OA
BRANCH  18  21
ATOM     21  N   UNL     1       5.755   5.270  18.004  0.00  0.00    +0.000 NA
BRANCH  21  23
ATOM     22  C   UNL     1       7.803   6.689  18.370  0.00  0.00    +0.000 C 
ATOM     23  C   UNL     1       6.936   5.547  18.874  0.00  0.00    +0.000 C 
ENDBRANCH  21  23
BRANCH  21  24
ATOM     24  C   UNL     1       6.045   5.169  16.540  0.00  0.00    +0.000 C 
ATOM     25  C   UNL     1       5.246   6.146  15.692  0.00  0.00    +0.000 C 
ENDBRANCH  21  24
ENDBRANCH  18  21
ENDBRANCH   1  18
TORSDOF 7
ENDMDL
MODEL 6
REMARK VINA RESULT:      -6.7      2.774      3.663
REMARK  Name = 
REMARK  10 active torsions:
REMARK  status: ('A' for Active; 'I' for Inactive)
REMARK    1  A    between atoms: C_1  and  C_2
REMARK    2  A    between atoms: C_2  and  N_3
REMARK    3  A    between atoms: N_3  and  C_4
REMARK    4  A    between atoms: N_3  and  S_6
REMARK    5  A    between atoms: C_4  and  C_5
REMARK    6  A    between atoms: S_6  and  C_9
REMARK    7  A    between atoms: C_11  and  N_12
REMARK    8  A    between atoms: C_13  and  C_15
REMARK    9  A    between atoms: C_15  and  C_16
REMARK   10  A    between atoms: C_23  and  C_24
REMARK                            x       y       z     vdW  Elec       q    Type
REMARK                         _______ _______ _______ _____ _____    ______ ____
ROOT
ATOM      1  C   UNL     1       2.551   6.894  19.275  0.00  0.00    +0.000 A 
ATOM      2  C   UNL     1       1.614   7.444  20.170  0.00  0.00    +0.000 A 
ATOM      3  C   UNL     1       1.055   8.703  19.947  0.00  0.00    +0.000 A 
ATOM      4  C   UNL     1       1.428   9.403  18.797  0.00  0.00    +0.000 A 
ATOM      5  C   UNL     1       2.363   8.862  17.902  0.00  0.00    +0.000 A 
ATOM      6  C   UNL     1       2.940   7.601  18.123  0.00  0.00    +0.000 A 
ATOM      7  C   UNL     1       3.928   7.087  17.114  0.00  0.00    +0.000 C 
ENDROOT
BRANCH   3   8
ATOM      8  N   UNL     1       0.124   9.310  20.819  0.00  0.00    +0.000 N 
ATOM      9  C   UNL     1       0.393   9.810  22.084  0.00  0.00    +0.000 C 
ATOM     10  O   UNL     1       1.497   9.858  22.622  0.00  0.00    +0.000 OA
ATOM     11  H   UNL     1      -0.795   9.499  20.438  0.00  0.00    +0.000 HD
BRANCH   9  12
ATOM     12  C   UNL     1      -0.831  10.339  22.815  0.00  0.00    +0.000 C 
BRANCH  12  13
ATOM     13  C   UNL     1      -1.229  11.714  22.362  0.00  0.00    +0.000 A 
ATOM     14  C   UNL     1      -1.218  12.890  23.191  0.00  0.00    +0.000 A 
ATOM     15  C   UNL     1      -1.655  14.015  22.527  0.00  0.00    +0.000 A 
ATOM     16  S   UNL     1      -2.101  13.671  20.915  0.00  0.00    +0.000 S 
ATOM     17  C   UNL     1      -1.710  12.018  21.102  0.00  0.00    +0.000 A 
ENDBRANCH  12  13
ENDBRANCH   9  12
ENDBRANCH   3   8
BRANCH   1  18
ATOM     18  S   UNL     1       3.224   5.299  19.741  0.00  0.00    +0.000 S 
ATOM     19  O   UNL     1       2.486   4.846  20.901  0.00  0.00    +0.000 OA
ATOM     20  O   UNL     1       4.671   5.364  19.773  0.00  0.00    +0.000 OA
BRANCH  18  21
ATOM     21  N   UNL     1       2.802   4.291  18.404  0.00  0.00    +0.000 NA
BRANCH  21  23
ATOM     22  C   UNL     1       4.589   3.482  16.823  0.00  0.00    +0.000 C 
ATOM     23  C   UNL     1       3.812   3.233  18.106  0.00  0.00    +0.000 C 
ENDBRANCH  21  23
BRANCH  21  24
ATOM     24  C   UNL     1       1.379   3.829  18.433  0.00  0.00    +0.000 C 
ATOM     25  C   UNL     1       1.225   2.348  18.735  0.00  0.00    +0.000 C 
ENDBRANCH  21  24
ENDBRANCH  18  21
ENDBRANCH   1  18
TORSDOF 7
ENDMDL
MODEL 7
REMARK VINA RESULT:      -6.7      1.658      1.872
REMARK  Name = 
REMARK  10 active torsions:
REMARK  status: ('A' for Active; 'I' for Inactive)
REMARK    1  A    between atoms: C_1  and  C_2
REMARK    2  A    between atoms: C_2  and  N_3
REMARK    3  A    between atoms: N_3  and  C_4
REMARK    4  A    between atoms: N_3  and  S_6
REMARK    5  A    between atoms: C_4  and  C_5
REMARK    6  A    between atoms: S_6  and  C_9
REMARK    7  A    between atoms: C_11  and  N_12
REMARK    8  A    between atoms: C_13  and  C_15
REMARK    9  A    between atoms: C_15  and  C_16
REMARK   10  A    between atoms: C_23  and  C_24
REMARK                            x       y       z     vdW  Elec       q    Type
REMARK                         _______ _______ _______ _____ _____    ______ ____
ROOT
ATOM      1  C   UNL     1       4.813   4.964  17.945  0.00  0.00    +0.000 A 
ATOM      2  C   UNL     1       3.727   5.857  17.872  0.00  0.00    +0.000 A 
ATOM      3  C   UNL     1       3.908   7.183  17.479  0.00  0.00    +0.000 A 
ATOM      4  C   UNL     1       5.194   7.606  17.134  0.00  0.00    +0.000 A 
ATOM      5  C   UNL     1       6.280   6.723  17.206  0.00  0.00    +0.000 A 
ATOM      6  C   UNL     1       6.112   5.389  17.611  0.00  0.00    +0.000 A 
ATOM      7  C   UNL     1       7.324   4.503  17.655  0.00  0.00    +0.000 C 
ENDROOT
BRANCH   3   8
ATOM      8  N   UNL     1       2.858   8.126  17.404  0.00  0.00    +0.000 N 
ATOM      9  C   UNL     1       1.996   8.475  18.433  0.00  0.00    +0.000 C 
ATOM     10  O   UNL     1       2.048   8.062  19.589  0.00  0.00    +0.000 OA
ATOM     11  H   UNL     1       2.806   8.678  16.557  0.00  0.00    +0.000 HD
BRANCH   9  12
ATOM     12  C   UNL     1       0.918   9.468  18.029  0.00  0.00    +0.000 C 
BRANCH  12  13
ATOM     13  C   UNL     1       0.560  10.420  19.133  0.00  0.00    +0.000 A 
ATOM     14  C   UNL     1      -0.572  10.279  20.008  0.00  0.00    +0.000 A 
ATOM     15  C   UNL     1      -0.675  11.309  20.916  0.00  0.00    +0.000 A 
ATOM     16  S   UNL     1       0.568  12.463  20.717  0.00  0.00    +0.000 S 
ATOM     17  C   UNL     1       1.246  11.587  19.416  0.00  0.00    +0.000 A 
ENDBRANCH  12  13
ENDBRANCH   9  12
ENDBRANCH   3   8
BRANCH   1  18
ATOM     18  S   UNL     1       4.423   3.316  18.531  0.00  0.00    +0.000 S 
ATOM     19  O   UNL     1       5.226   3.080  19.711  0.00  0.00    +0.000 OA
ATOM     20  O   UNL     1       4.453   2.379  17.426  0.00  0.00    +0.000 OA
BRANCH  18  21
ATOM     21  N   UNL     1       2.772   3.454  19.019  0.00  0.00    +0.000 NA
BRANCH  21  23
ATOM     22  C   UNL     1       0.466   2.451  18.878  0.00  0.00    +0.000 C 
ATOM     23  C   UNL     1       1.839   2.586  18.241  0.00  0.00    +0.000 C 
ENDBRANCH  21  23
BRANCH  21  24
ATOM     24  C   UNL     1       2.587   3.427  20.504  0.00  0.00    +0.000 C 
ATOM     25  C   UNL     1       2.197   4.773  21.094  0.00  0.00    +0.000 C 
ENDBRANCH  21  24
ENDBRANCH  18  21
ENDBRANCH   1  18
TORSDOF 7
ENDMDL
MODEL 8
REMARK VINA RESULT:      -6.7      2.231      4.249
REMARK  Name = 
REMARK  10 active torsions:
REMARK  status: ('A' for Active; 'I' for Inactive)
REMARK    1  A    between atoms: C_1  and  C_2
REMARK    2  A    between atoms: C_2  and  N_3
REMARK    3  A    between atoms: N_3  and  C_4
REMARK    4  A    between atoms: N_3  and  S_6
REMARK    5  A    between atoms: C_4  and  C_5
REMARK    6  A    between atoms: S_6  and  C_9
REMARK    7  A    between atoms: C_11  and  N_12
REMARK    8  A    between atoms: C_13  and  C_15
REMARK    9  A    between atoms: C_15  and  C_16
REMARK   10  A    between atoms: C_23  and  C_24
REMARK                            x       y       z     vdW  Elec       q    Type
REMARK                         _______ _______ _______ _____ _____    ______ ____
ROOT
ATOM      1  C   UNL     1       4.130   4.637  18.912  0.00  0.00    +0.000 A 
ATOM      2  C   UNL     1       3.651   5.736  19.649  0.00  0.00    +0.000 A 
ATOM      3  C   UNL     1       2.325   5.796  20.079  0.00  0.00    +0.000 A 
ATOM      4  C   UNL     1       1.480   4.724  19.780  0.00  0.00    +0.000 A 
ATOM      5  C   UNL     1       1.949   3.627  19.044  0.00  0.00    +0.000 A 
ATOM      6  C   UNL     1       3.279   3.562  18.597  0.00  0.00    +0.000 A 
ATOM      7  C   UNL     1       3.707   2.349  17.821  0.00  0.00    +0.000 C 
ENDROOT
BRANCH   3   8
ATOM      8  N   UNL     1       1.787   6.882  20.807  0.00  0.00    +0.000 N 
ATOM      9  C   UNL     1       1.595   8.170  20.332  0.00  0.00    +0.000 C 
ATOM     10  O   UNL     1       1.806   8.556  19.185  0.00  0.00    +0.000 OA
ATOM     11  H   UNL     1       1.403   6.667  21.719  0.00  0.00    +0.000 HD
BRANCH   9  12
ATOM     12  C   UNL     1       1.065   9.142  21.375  0.00  0.00    +0.000 C 
BRANCH  12  13
ATOM     13  C   UNL     1       0.445  10.367  20.766  0.00  0.00    +0.000 A 
ATOM     14  C   UNL     1      -0.813  10.395  20.071  0.00  0.00    +0.000 A 
ATOM     15  C   UNL     1      -1.131  11.647  19.593  0.00  0.00    +0.000 A 
ATOM     16  S   UNL     1       0.081  12.794  19.955  0.00  0.00    +0.000 S 
ATOM     17  C   UNL     1       1.033  11.618  20.750  0.00  0.00    +0.000 A 
ENDBRANCH  12  13
ENDBRANCH   9  12
ENDBRANCH   3   8
BRANCH   1  18
ATOM     18  S   UNL     1       5.838   4.746  18.379  0.00  0.00    +0.000 S 
ATOM     19  O   UNL     1       6.020   3.773  17.323  0.00  0.00    +0.000 OA
ATOM     20  O   UNL     1       6.715   4.747  19.532  0.00  0.00    +0.000 OA
BRANCH  18  21
ATOM     21  N   UNL     1       5.931   6.324  17.683  0.00  0.00    +0.000 NA
BRANCH  21  23
ATOM     22  C   UNL     1       7.619   8.193  17.645  0.00  0.00    +0.000 C 
ATOM     23  C   UNL     1       7.318   6.740  17.319  0.00  0.00    +0.000 C 
ENDBRANCH  21  23
BRANCH  21  24
ATOM     24  C   UNL     1       4.890   6.576  16.638  0.00  0.00    +0.000 C 
ATOM     25  C   UNL     1       5.296   6.110  15.249  0.00  0.00    +0.000 C 
ENDBRANCH  21  24
ENDBRANCH  18  21
ENDBRANCH   1  18
TORSDOF 7
ENDMDL
MODEL 9
REMARK VINA RESULT:      -6.6      3.070      8.423
REMARK  Name = 
REMARK  10 active torsions:
REMARK  status: ('A' for Active; 'I' for Inactive)
REMARK    1  A    between atoms: C_1  and  C_2
REMARK    2  A    between atoms: C_2  and  N_3
REMARK    3  A    between atoms: N_3  and  C_4
REMARK    4  A    between atoms: N_3  and  S_6
REMARK    5  A    between atoms: C_4  and  C_5
REMARK    6  A    between atoms: S_6  and  C_9
REMARK    7  A    between atoms: C_11  and  N_12
REMARK    8  A    between atoms: C_13  and  C_15
REMARK    9  A    between atoms: C_15  and  C_16
REMARK   10  A    between atoms: C_23  and  C_24
REMARK                            x       y       z     vdW  Elec       q    Type
REMARK                         _______ _______ _______ _____ _____    ______ ____
ROOT
ATOM      1  C   UNL     1      -0.074  11.593  19.770  0.00  0.00    +0.000 A 
ATOM      2  C   UNL     1       0.975  10.789  19.284  0.00  0.00    +0.000 A 
ATOM      3  C   UNL     1       0.752   9.835  18.291  0.00  0.00    +0.000 A 
ATOM      4  C   UNL     1      -0.537   9.707  17.768  0.00  0.00    +0.000 A 
ATOM      5  C   UNL     1      -1.586  10.503  18.249  0.00  0.00    +0.000 A 
ATOM      6  C   UNL     1      -1.376  11.459  19.256  0.00  0.00    +0.000 A 
ATOM      7  C   UNL     1      -2.550  12.278  19.712  0.00  0.00    +0.000 C 
ENDROOT
BRANCH   3   8
ATOM      8  N   UNL     1       1.762   8.990  17.778  0.00  0.00    +0.000 N 
ATOM      9  C   UNL     1       2.401   7.968  18.463  0.00  0.00    +0.000 C 
ATOM     10  O   UNL     1       2.146   7.597  19.607  0.00  0.00    +0.000 OA
ATOM     11  H   UNL     1       1.953   9.066  16.786  0.00  0.00    +0.000 HD
BRANCH   9  12
ATOM     12  C   UNL     1       3.499   7.280  17.668  0.00  0.00    +0.000 C 
BRANCH  12  13
ATOM     13  C   UNL     1       3.739   5.865  18.111  0.00  0.00    +0.000 A 
ATOM     14  C   UNL     1       4.842   5.433  18.926  0.00  0.00    +0.000 A 
ATOM     15  C   UNL     1       4.831   4.076  19.161  0.00  0.00    +0.000 A 
ATOM     16  S   UNL     1       3.514   3.306  18.394  0.00  0.00    +0.000 S 
ATOM     17  C   UNL     1       2.957   4.786  17.746  0.00  0.00    +0.000 A 
ENDBRANCH  12  13
ENDBRANCH   9  12
ENDBRANCH   3   8
BRANCH   1  18
ATOM     18  S   UNL     1       0.365  12.722  21.092  0.00  0.00    +0.000 S 
ATOM     19  O   UNL     1      -0.352  13.957  20.856  0.00  0.00    +0.000 OA
ATOM     20  O   UNL     1       1.802  12.734  21.273  0.00  0.00    +0.000 OA
BRANCH  18  21
ATOM     21  N   UNL     1      -0.306  11.966  22.492  0.00  0.00    +0.000 NA
BRANCH  21  23
ATOM     22  C   UNL     1      -2.701  12.087  23.263  0.00  0.00    +0.000 C 
ATOM     23  C   UNL     1      -1.352  12.783  23.174  0.00  0.00    +0.000 C 
ENDBRANCH  21  23
BRANCH  21  24
ATOM     24  C   UNL     1      -0.653  10.526  22.281  0.00  0.00    +0.000 C 
ATOM     25  C   UNL     1      -0.066   9.598  23.333  0.00  0.00    +0.000 C 
ENDBRANCH  21  24
ENDBRANCH  18  21
ENDBRANCH   1  18
TORSDOF 7
ENDMDL
