MODEL 1
REMARK VINA RESULT:      -8.0      0.000      0.000
REMARK  Name = 
REMARK  8 active torsions:
REMARK  status: ('A' for Active; 'I' for Inactive)
REMARK    1  A    between atoms: C_1  and  C_2
REMARK    2  A    between atoms: C_2  and  C_3
REMARK    3  A    between atoms: C_3  and  N_4
REMARK    4  A    between atoms: N_4  and  C_5
REMARK    5  A    between atoms: C_6  and  C_8
REMARK    6  A    between atoms: N_10  and  C_11
REMARK    7  A    between atoms: C_15  and  C_16
REMARK    8  A    between atoms: C_17  and  C_18
REMARK                            x       y       z     vdW  Elec       q    Type
REMARK                         _______ _______ _______ _____ _____    ______ ____
ROOT
ATOM      1  C   UNL     1       3.883   4.445  19.195  0.00  0.00    +0.000 A 
ATOM      2  C   UNL     1       3.492   3.296  19.901  0.00  0.00    +0.000 A 
ATOM      3  C   UNL     1       2.478   3.338  20.856  0.00  0.00    +0.000 A 
ATOM      4  C   UNL     1       1.851   4.542  21.135  0.00  0.00    +0.000 A 
ATOM      5  C   UNL     1       2.259   5.706  20.479  0.00  0.00    +0.000 A 
ATOM      6  C   UNL     1       3.289   5.666  19.525  0.00  0.00    +0.000 A 
ENDROOT
BRANCH   1   9
ATOM      7  C   UNL     1       6.153   4.799  18.272  0.00  0.00    +0.000 C 
ATOM      8  O   UNL     1       6.658   5.241  19.293  0.00  0.00    +0.000 OA
ATOM      9  N   UNL     1       4.829   4.390  18.144  0.00  0.00    +0.000 N 
ATOM     10  H   UNL     1       4.596   3.900  17.282  0.00  0.00    +0.000 HD
BRANCH   7  13
ATOM     11  N   UNL     1       6.481   5.020  15.759  0.00  0.00    +0.000 N 
ATOM     12  C   UNL     1       5.161   5.632  15.627  0.00  0.00    +0.000 C 
ATOM     13  C   UNL     1       7.015   4.600  16.989  0.00  0.00    +0.000 C 
ATOM     14  O   UNL     1       8.124   4.091  17.124  0.00  0.00    +0.000 OA
BRANCH  11  15
ATOM     15  C   UNL     1       7.241   4.821  14.530  0.00  0.00    +0.000 C 
BRANCH  15  17
ATOM     16  C   UNL     1       7.105   4.103  12.068  0.00  0.00    +0.000 C 
ATOM     17  C   UNL     1       6.497   4.015  13.461  0.00  0.00    +0.000 C 
ENDBRANCH  15  17
ENDBRANCH  11  15
ENDBRANCH   7  13
ENDBRANCH   1   9
BRANCH   5  18
ATOM     18  C   UNL     1       1.563   6.922  20.763  0.00  0.00    +0.000 C 
ATOM     19  C   UNL     1       0.998   7.933  21.074  0.00  0.00    +0.000 C 
BRANCH  19  20
ATOM     20  C   UNL     1       0.322   9.129  21.460  0.00  0.00    +0.000 A 
ATOM     21  C   UNL     1       0.071  10.131  20.536  0.00  0.00    +0.000 A 
ATOM     22  C   UNL     1      -0.635  11.252  20.961  0.00  0.00    +0.000 A 
ATOM     23  C   UNL     1      -1.052  11.331  22.286  0.00  0.00    +0.000 A 
ATOM     24  C   UNL     1      -0.737  10.284  23.139  0.00  0.00    +0.000 A 
ATOM     25  N   UNL     1      -0.059   9.181  22.756  0.00  0.00    +0.000 NA
ENDBRANCH  19  20
ENDBRANCH   5  18
TORSDOF 6
ENDMDL
MODEL 2
REMARK VINA RESULT:      -7.7      0.744      1.084
REMARK  Name = 
REMARK  8 active torsions:
REMARK  status: ('A' for Active; 'I' for Inactive)
REMARK    1  A    between atoms: C_1  and  C_2
REMARK    2  A    between atoms: C_2  and  C_3
REMARK    3  A    between atoms: C_3  and  N_4
REMARK    4  A    between atoms: N_4  and  C_5
REMARK    5  A    between atoms: C_6  and  C_8
REMARK    6  A    between atoms: N_10  and  C_11
REMARK    7  A    between atoms: C_15  and  C_16
REMARK    8  A    between atoms: C_17  and  C_18
REMARK                            x       y       z     vdW  Elec       q    Type
REMARK                         _______ _______ _______ _____ _____    ______ ____
ROOT
ATOM      1  C   UNL     1       4.023   4.063  19.232  0.00  0.00    +0.000 A 
ATOM      2  C   UNL     1       3.600   2.892  19.878  0.00  0.00    +0.000 A 
ATOM      3  C   UNL     1       2.572   2.910  20.819  0.00  0.00    +0.000 A 
ATOM      4  C   UNL     1       1.962   4.111  21.142  0.00  0.00    +0.000 A 
ATOM      5  C   UNL     1       2.401   5.295  20.546  0.00  0.00    +0.000 A 
ATOM      6  C   UNL     1       3.446   5.280  19.607  0.00  0.00    +0.000 A 
ENDROOT
BRANCH   1   9
ATOM      7  C   UNL     1       6.110   4.855  18.161  0.00  0.00    +0.000 C 
ATOM      8  O   UNL     1       6.409   5.676  19.015  0.00  0.00    +0.000 OA
ATOM      9  N   UNL     1       4.984   4.038  18.193  0.00  0.00    +0.000 N 
ATOM     10  H   UNL     1       4.952   3.297  17.495  0.00  0.00    +0.000 HD
BRANCH   7  13
ATOM     11  N   UNL     1       6.585   4.986  15.666  0.00  0.00    +0.000 N 
ATOM     12  C   UNL     1       5.275   5.589  15.434  0.00  0.00    +0.000 C 
ATOM     13  C   UNL     1       7.047   4.613  16.939  0.00  0.00    +0.000 C 
ATOM     14  O   UNL     1       8.146   4.112  17.158  0.00  0.00    +0.000 OA
BRANCH  11  15
ATOM     15  C   UNL     1       7.416   4.745  14.491  0.00  0.00    +0.000 C 
BRANCH  15  17
ATOM     16  C   UNL     1       6.533   3.506  12.423  0.00  0.00    +0.000 C 
ATOM     17  C   UNL     1       6.658   4.831  13.163  0.00  0.00    +0.000 C 
ENDBRANCH  15  17
ENDBRANCH  11  15
ENDBRANCH   7  13
ENDBRANCH   1   9
BRANCH   5  18
ATOM     18  C   UNL     1       1.724   6.510  20.875  0.00  0.00    +0.000 C 
ATOM     19  C   UNL     1       1.187   7.561  21.090  0.00  0.00    +0.000 C 
BRANCH  19  20
ATOM     20  C   UNL     1       0.562   8.820  21.337  0.00  0.00    +0.000 A 
ATOM     21  C   UNL     1      -0.042   9.084  22.556  0.00  0.00    +0.000 A 
ATOM     22  C   UNL     1      -0.592  10.346  22.755  0.00  0.00    +0.000 A 
ATOM     23  C   UNL     1      -0.523  11.287  21.732  0.00  0.00    +0.000 A 
ATOM     24  C   UNL     1       0.088  10.922  20.542  0.00  0.00    +0.000 A 
ATOM     25  N   UNL     1       0.634   9.707  20.320  0.00  0.00    +0.000 NA
ENDBRANCH  19  20
ENDBRANCH   5  18
TORSDOF 6
ENDMDL
MODEL 3
REMARK VINA RESULT:      -7.5      1.212      1.555
REMARK  Name = 
REMARK  8 active torsions:
REMARK  status: ('A' for Active; 'I' for Inactive)
REMARK    1  A    between atoms: C_1  and  C_2
REMARK    2  A    between atoms: C_2  and  C_3
REMARK    3  A    between atoms: C_3  and  N_4
REMARK    4  A    between atoms: N_4  and  C_5
REMARK    5  A    between atoms: C_6  and  C_8
REMARK    6  A    between atoms: N_10  and  C_11
REMARK    7  A    between atoms: C_15  and  C_16
REMARK    8  A    between atoms: C_17  and  C_18
REMARK                            x       y       z     vdW  Elec       q    Type
REMARK                         _______ _______ _______ _____ _____    ______ ____
ROOT
ATOM      1  C   UNL     1       3.543   5.718  18.840  0.00  0.00    +0.000 A 
ATOM      2  C   UNL     1       3.146   4.506  19.428  0.00  0.00    +0.000 A 
ATOM      3  C   UNL     1       2.177   4.465  20.427  0.00  0.00    +0.000 A 
ATOM      4  C   UNL     1       1.599   5.645  20.870  0.00  0.00    +0.000 A 
ATOM      5  C   UNL     1       2.015   6.865  20.332  0.00  0.00    +0.000 A 
ATOM      6  C   UNL     1       3.002   6.909  19.333  0.00  0.00    +0.000 A 
ENDROOT
BRANCH   1   9
ATOM      7  C   UNL     1       5.821   5.644  17.873  0.00  0.00    +0.000 C 
ATOM      8  O   UNL     1       6.421   5.487  18.926  0.00  0.00    +0.000 OA
ATOM      9  N   UNL     1       4.440   5.759  17.746  0.00  0.00    +0.000 N 
ATOM     10  H   UNL     1       4.077   5.728  16.795  0.00  0.00    +0.000 HD
BRANCH   7  13
ATOM     11  N   UNL     1       6.327   4.666  15.580  0.00  0.00    +0.000 N 
ATOM     12  C   UNL     1       5.358   3.597  15.807  0.00  0.00    +0.000 C 
ATOM     13  C   UNL     1       6.597   5.673  16.522  0.00  0.00    +0.000 C 
ATOM     14  O   UNL     1       7.401   6.585  16.350  0.00  0.00    +0.000 OA
BRANCH  11  15
ATOM     15  C   UNL     1       7.056   4.637  14.317  0.00  0.00    +0.000 C 
BRANCH  15  17
ATOM     16  C   UNL     1       7.129   3.745  11.910  0.00  0.00    +0.000 C 
ATOM     17  C   UNL     1       6.320   3.908  13.189  0.00  0.00    +0.000 C 
ENDBRANCH  15  17
ENDBRANCH  11  15
ENDBRANCH   7  13
ENDBRANCH   1   9
BRANCH   5  18
ATOM     18  C   UNL     1       1.372   8.058  20.784  0.00  0.00    +0.000 C 
ATOM     19  C   UNL     1       0.796   9.018  21.216  0.00  0.00    +0.000 C 
BRANCH  19  20
ATOM     20  C   UNL     1       0.098  10.150  21.734  0.00  0.00    +0.000 A 
ATOM     21  C   UNL     1      -0.798  10.011  22.782  0.00  0.00    +0.000 A 
ATOM     22  C   UNL     1      -1.412  11.157  23.276  0.00  0.00    +0.000 A 
ATOM     23  C   UNL     1      -1.113  12.389  22.703  0.00  0.00    +0.000 A 
ATOM     24  C   UNL     1      -0.215  12.424  21.647  0.00  0.00    +0.000 A 
ATOM     25  N   UNL     1       0.401  11.330  21.148  0.00  0.00    +0.000 NA
ENDBRANCH  19  20
ENDBRANCH   5  18
TORSDOF 6
ENDMDL
MODEL 4
REMARK VINA RESULT:      -7.4      1.496      1.706
REMARK  Name = 
REMARK  8 active torsions:
REMARK  status: ('A' for Active; 'I' for Inactive)
REMARK    1  A    between atoms: C_1  and  C_2
REMARK    2  A    between atoms: C_2  and  C_3
REMARK    3  A    between atoms: C_3  and  N_4
REMARK    4  A    between atoms: N_4  and  C_5
REMARK    5  A    between atoms: C_6  and  C_8
REMARK    6  A    between atoms: N_10  and  C_11
REMARK    7  A    between atoms: C_15  and  C_16
REMARK    8  A    between atoms: C_17  and  C_18
REMARK                            x       y       z     vdW  Elec       q    Type
REMARK                         _______ _______ _______ _____ _____    ______ ____
ROOT
ATOM      1  C   UNL     1       3.260   5.421  18.436  0.00  0.00    +0.000 A 
ATOM      2  C   UNL     1       3.231   4.235  19.187  0.00  0.00    +0.000 A 
ATOM      3  C   UNL     1       2.576   4.167  20.415  0.00  0.00    +0.000 A 
ATOM      4  C   UNL     1       1.952   5.295  20.921  0.00  0.00    +0.000 A 
ATOM      5  C   UNL     1       2.011   6.498  20.213  0.00  0.00    +0.000 A 
ATOM      6  C   UNL     1       2.682   6.571  18.981  0.00  0.00    +0.000 A 
ENDROOT
BRANCH   1   9
ATOM      7  C   UNL     1       5.050   6.057  16.848  0.00  0.00    +0.000 C 
ATOM      8  O   UNL     1       5.787   6.587  17.665  0.00  0.00    +0.000 OA
ATOM      9  N   UNL     1       3.822   5.470  17.138  0.00  0.00    +0.000 N 
ATOM     10  H   UNL     1       3.396   4.933  16.385  0.00  0.00    +0.000 HD
BRANCH   7  13
ATOM     11  N   UNL     1       6.135   4.776  14.936  0.00  0.00    +0.000 N 
ATOM     12  C   UNL     1       6.431   3.662  15.833  0.00  0.00    +0.000 C 
ATOM     13  C   UNL     1       5.479   5.946  15.354  0.00  0.00    +0.000 C 
ATOM     14  O   UNL     1       5.213   6.891  14.616  0.00  0.00    +0.000 OA
BRANCH  11  15
ATOM     15  C   UNL     1       6.585   4.647  13.555  0.00  0.00    +0.000 C 
BRANCH  15  17
ATOM     16  C   UNL     1       4.925   3.467  11.989  0.00  0.00    +0.000 C 
ATOM     17  C   UNL     1       6.155   3.342  12.879  0.00  0.00    +0.000 C 
ENDBRANCH  15  17
ENDBRANCH  11  15
ENDBRANCH   7  13
ENDBRANCH   1   9
BRANCH   5  18
ATOM     18  C   UNL     1       1.324   7.632  20.746  0.00  0.00    +0.000 C 
ATOM     19  C   UNL     1       0.813   8.620  21.195  0.00  0.00    +0.000 C 
BRANCH  19  20
ATOM     20  C   UNL     1       0.221   9.800  21.738  0.00  0.00    +0.000 A 
ATOM     21  C   UNL     1       0.473  11.041  21.177  0.00  0.00    +0.000 A 
ATOM     22  C   UNL     1      -0.172  12.149  21.719  0.00  0.00    +0.000 A 
ATOM     23  C   UNL     1      -1.031  11.974  22.800  0.00  0.00    +0.000 A 
ATOM     24  C   UNL     1      -1.204  10.693  23.302  0.00  0.00    +0.000 A 
ATOM     25  N   UNL     1      -0.598   9.598  22.794  0.00  0.00    +0.000 NA
ENDBRANCH  19  20
ENDBRANCH   5  18
TORSDOF 6
ENDMDL
MODEL 5
REMARK VINA RESULT:      -7.3      7.216     10.990
REMARK  Name = 
REMARK  8 active torsions:
REMARK  status: ('A' for Active; 'I' for Inactive)
REMARK    1  A    between atoms: C_1  and  C_2
REMARK    2  A    between atoms: C_2  and  C_3
REMARK    3  A    between atoms: C_3  and  N_4
REMARK    4  A    between atoms: N_4  and  C_5
REMARK    5  A    between atoms: C_6  and  C_8
REMARK    6  A    between atoms: N_10  and  C_11
REMARK    7  A    between atoms: C_15  and  C_16
REMARK    8  A    between atoms: C_17  and  C_18
REMARK                            x       y       z     vdW  Elec       q    Type
REMARK                         _______ _______ _______ _____ _____    ______ ____
ROOT
ATOM      1  C   UNL     1       9.721  11.872  20.936  0.00  0.00    +0.000 A 
ATOM      2  C   UNL     1      10.637  12.560  20.124  0.00  0.00    +0.000 A 
ATOM      3  C   UNL     1      10.902  12.153  18.819  0.00  0.00    +0.000 A 
ATOM      4  C   UNL     1      10.265  11.033  18.309  0.00  0.00    +0.000 A 
ATOM      5  C   UNL     1       9.388  10.305  19.116  0.00  0.00    +0.000 A 
ATOM      6  C   UNL     1       9.129  10.708  20.437  0.00  0.00    +0.000 A 
ENDROOT
BRANCH   1   9
ATOM      7  C   UNL     1       8.374  13.301  22.444  0.00  0.00    +0.000 C 
ATOM      8  O   UNL     1       7.705  13.839  21.575  0.00  0.00    +0.000 OA
ATOM      9  N   UNL     1       9.359  12.344  22.220  0.00  0.00    +0.000 N 
ATOM     10  H   UNL     1       9.721  11.875  23.049  0.00  0.00    +0.000 HD
BRANCH   7  13
ATOM     11  N   UNL     1       7.082  12.951  24.607  0.00  0.00    +0.000 N 
ATOM     12  C   UNL     1       6.230  11.960  23.953  0.00  0.00    +0.000 C 
ATOM     13  C   UNL     1       8.122  13.627  23.947  0.00  0.00    +0.000 C 
ATOM     14  O   UNL     1       8.855  14.456  24.478  0.00  0.00    +0.000 OA
BRANCH  11  15
ATOM     15  C   UNL     1       6.790  13.251  26.004  0.00  0.00    +0.000 C 
BRANCH  15  17
ATOM     16  C   UNL     1       6.523  11.225  27.559  0.00  0.00    +0.000 C 
ATOM     17  C   UNL     1       7.452  12.293  26.998  0.00  0.00    +0.000 C 
ENDBRANCH  15  17
ENDBRANCH  11  15
ENDBRANCH   7  13
ENDBRANCH   1   9
BRANCH   5  18
ATOM     18  C   UNL     1       8.720   9.178  18.546  0.00  0.00    +0.000 C 
ATOM     19  C   UNL     1       8.134   8.215  18.135  0.00  0.00    +0.000 C 
BRANCH  19  20
ATOM     20  C   UNL     1       7.439   7.061  17.664  0.00  0.00    +0.000 A 
ATOM     21  C   UNL     1       7.670   5.816  18.225  0.00  0.00    +0.000 A 
ATOM     22  C   UNL     1       6.926   4.737  17.756  0.00  0.00    +0.000 A 
ATOM     23  C   UNL     1       5.992   4.944  16.745  0.00  0.00    +0.000 A 
ATOM     24  C   UNL     1       5.845   6.225  16.236  0.00  0.00    +0.000 A 
ATOM     25  N   UNL     1       6.548   7.292  16.674  0.00  0.00    +0.000 NA
ENDBRANCH  19  20
ENDBRANCH   5  18
TORSDOF 6
ENDMDL
MODEL 6
REMARK VINA RESULT:      -7.3      4.627      7.803
REMARK  Name = 
REMARK  8 active torsions:
REMARK  status: ('A' for Active; 'I' for Inactive)
REMARK    1  A    between atoms: C_1  and  C_2
REMARK    2  A    between atoms: C_2  and  C_3
REMARK    3  A    between atoms: C_3  and  N_4
REMARK    4  A    between atoms: N_4  and  C_5
REMARK    5  A    between atoms: C_6  and  C_8
REMARK    6  A    between atoms: N_10  and  C_11
REMARK    7  A    between atoms: C_15  and  C_16
REMARK    8  A    between atoms: C_17  and  C_18
REMARK                            x       y       z     vdW  Elec       q    Type
REMARK                         _______ _______ _______ _____ _____    ______ ____
ROOT
ATOM      1  C   UNL     1       5.323   5.672  17.796  0.00  0.00    +0.000 A 
ATOM      2  C   UNL     1       5.701   4.999  16.624  0.00  0.00    +0.000 A 
ATOM      3  C   UNL     1       6.803   5.405  15.873  0.00  0.00    +0.000 A 
ATOM      4  C   UNL     1       7.536   6.510  16.277  0.00  0.00    +0.000 A 
ATOM      5  C   UNL     1       7.147   7.223  17.413  0.00  0.00    +0.000 A 
ATOM      6  C   UNL     1       6.029   6.821  18.164  0.00  0.00    +0.000 A 
ENDROOT
BRANCH   1   9
ATOM      7  C   UNL     1       2.982   5.704  18.601  0.00  0.00    +0.000 C 
ATOM      8  O   UNL     1       2.588   6.597  17.867  0.00  0.00    +0.000 OA
ATOM      9  N   UNL     1       4.279   5.199  18.626  0.00  0.00    +0.000 N 
ATOM     10  H   UNL     1       4.417   4.354  19.177  0.00  0.00    +0.000 HD
BRANCH   7  13
ATOM     11  N   UNL     1       1.608   3.674  19.280  0.00  0.00    +0.000 N 
ATOM     12  C   UNL     1       2.084   2.942  18.109  0.00  0.00    +0.000 C 
ATOM     13  C   UNL     1       1.996   4.991  19.575  0.00  0.00    +0.000 C 
ATOM     14  O   UNL     1       1.615   5.622  20.557  0.00  0.00    +0.000 OA
BRANCH  11  15
ATOM     15  C   UNL     1       0.659   2.983  20.147  0.00  0.00    +0.000 C 
BRANCH  15  17
ATOM     16  C   UNL     1       2.696   2.399  21.598  0.00  0.00    +0.000 C 
ATOM     17  C   UNL     1       1.201   2.682  21.547  0.00  0.00    +0.000 C 
ENDBRANCH  15  17
ENDBRANCH  11  15
ENDBRANCH   7  13
ENDBRANCH   1   9
BRANCH   5  18
ATOM     18  C   UNL     1       7.948   8.333  17.822  0.00  0.00    +0.000 C 
ATOM     19  C   UNL     1       8.584   9.265  18.231  0.00  0.00    +0.000 C 
BRANCH  19  20
ATOM     20  C   UNL     1       9.326  10.379  18.727  0.00  0.00    +0.000 A 
ATOM     21  C   UNL     1       9.985  11.235  17.860  0.00  0.00    +0.000 A 
ATOM     22  C   UNL     1      10.651  12.330  18.400  0.00  0.00    +0.000 A 
ATOM     23  C   UNL     1      10.638  12.522  19.778  0.00  0.00    +0.000 A 
ATOM     24  C   UNL     1       9.964  11.600  20.565  0.00  0.00    +0.000 A 
ATOM     25  N   UNL     1       9.305  10.530  20.070  0.00  0.00    +0.000 NA
ENDBRANCH  19  20
ENDBRANCH   5  18
TORSDOF 6
ENDMDL
MODEL 7
REMARK VINA RESULT:      -7.1      1.513      1.914
REMARK  Name = 
REMARK  8 active torsions:
REMARK  status: ('A' for Active; 'I' for Inactive)
REMARK    1  A    between atoms: C_1  and  C_2
REMARK    2  A    between atoms: C_2  and  C_3
REMARK    3  A    between atoms: C_3  and  N_4
REMARK    4  A    between atoms: N_4  and  C_5
REMARK    5  A    between atoms: C_6  and  C_8
REMARK    6  A    between atoms: N_10  and  C_11
REMARK    7  A    between atoms: C_15  and  C_16
REMARK    8  A    between atoms: C_17  and  C_18
REMARK                            x       y       z     vdW  Elec       q    Type
REMARK                         _______ _______ _______ _____ _____    ______ ____
ROOT
ATOM      1  C   UNL     1       3.316   5.398  18.646  0.00  0.00    +0.000 A 
ATOM      2  C   UNL     1       3.159   4.246  19.432  0.00  0.00    +0.000 A 
ATOM      3  C   UNL     1       2.396   4.258  20.598  0.00  0.00    +0.000 A 
ATOM      4  C   UNL     1       1.791   5.435  21.008  0.00  0.00    +0.000 A 
ATOM      5  C   UNL     1       1.975   6.605  20.266  0.00  0.00    +0.000 A 
ATOM      6  C   UNL     1       2.754   6.596  19.097  0.00  0.00    +0.000 A 
ENDROOT
BRANCH   1   9
ATOM      7  C   UNL     1       4.846   6.375  16.962  0.00  0.00    +0.000 C 
ATOM      8  O   UNL     1       5.121   7.388  17.586  0.00  0.00    +0.000 OA
ATOM      9  N   UNL     1       3.991   5.369  17.403  0.00  0.00    +0.000 N 
ATOM     10  H   UNL     1       3.981   4.517  16.845  0.00  0.00    +0.000 HD
BRANCH   7  13
ATOM     11  N   UNL     1       6.467   5.073  15.496  0.00  0.00    +0.000 N 
ATOM     12  C   UNL     1       6.870   4.260  16.641  0.00  0.00    +0.000 C 
ATOM     13  C   UNL     1       5.508   6.097  15.579  0.00  0.00    +0.000 C 
ATOM     14  O   UNL     1       5.149   6.786  14.629  0.00  0.00    +0.000 OA
BRANCH  11  15
ATOM     15  C   UNL     1       7.136   4.803  14.228  0.00  0.00    +0.000 C 
BRANCH  15  17
ATOM     16  C   UNL     1       6.828   3.824  11.874  0.00  0.00    +0.000 C 
ATOM     17  C   UNL     1       6.397   3.803  13.335  0.00  0.00    +0.000 C 
ENDBRANCH  15  17
ENDBRANCH  11  15
ENDBRANCH   7  13
ENDBRANCH   1   9
BRANCH   5  18
ATOM     18  C   UNL     1       1.305   7.791  20.697  0.00  0.00    +0.000 C 
ATOM     19  C   UNL     1       0.784   8.785  21.121  0.00  0.00    +0.000 C 
BRANCH  19  20
ATOM     20  C   UNL     1       0.166   9.960  21.644  0.00  0.00    +0.000 A 
ATOM     21  C   UNL     1      -0.733   9.881  22.695  0.00  0.00    +0.000 A 
ATOM     22  C   UNL     1      -1.265  11.067  23.192  0.00  0.00    +0.000 A 
ATOM     23  C   UNL     1      -0.887  12.276  22.618  0.00  0.00    +0.000 A 
ATOM     24  C   UNL     1       0.007  12.250  21.559  0.00  0.00    +0.000 A 
ATOM     25  N   UNL     1       0.545  11.118  21.057  0.00  0.00    +0.000 NA
ENDBRANCH  19  20
ENDBRANCH   5  18
TORSDOF 6
ENDMDL
MODEL 8
REMARK VINA RESULT:      -7.1      7.157     10.952
REMARK  Name = 
REMARK  8 active torsions:
REMARK  status: ('A' for Active; 'I' for Inactive)
REMARK    1  A    between atoms: C_1  and  C_2
REMARK    2  A    between atoms: C_2  and  C_3
REMARK    3  A    between atoms: C_3  and  N_4
REMARK    4  A    between atoms: N_4  and  C_5
REMARK    5  A    between atoms: C_6  and  C_8
REMARK    6  A    between atoms: N_10  and  C_11
REMARK    7  A    between atoms: C_15  and  C_16
REMARK    8  A    between atoms: C_17  and  C_18
REMARK                            x       y       z     vdW  Elec       q    Type
REMARK                         _______ _______ _______ _____ _____    ______ ____
ROOT
ATOM      1  C   UNL     1       9.798  11.749  20.626  0.00  0.00    +0.000 A 
ATOM      2  C   UNL     1      10.741  12.394  19.811  0.00  0.00    +0.000 A 
ATOM      3  C   UNL     1      10.939  12.013  18.485  0.00  0.00    +0.000 A 
ATOM      4  C   UNL     1      10.206  10.963  17.958  0.00  0.00    +0.000 A 
ATOM      5  C   UNL     1       9.297  10.276  18.767  0.00  0.00    +0.000 A 
ATOM      6  C   UNL     1       9.106  10.651  20.107  0.00  0.00    +0.000 A 
ENDROOT
BRANCH   1   9
ATOM      7  C   UNL     1       8.542  13.161  22.226  0.00  0.00    +0.000 C 
ATOM      8  O   UNL     1       7.831  13.717  21.403  0.00  0.00    +0.000 OA
ATOM      9  N   UNL     1       9.507  12.202  21.935  0.00  0.00    +0.000 N 
ATOM     10  H   UNL     1       9.909  11.718  22.736  0.00  0.00    +0.000 HD
BRANCH   7  13
ATOM     11  N   UNL     1       7.465  12.681  24.480  0.00  0.00    +0.000 N 
ATOM     12  C   UNL     1       6.678  11.602  23.889  0.00  0.00    +0.000 C 
ATOM     13  C   UNL     1       8.372  13.463  23.745  0.00  0.00    +0.000 C 
ATOM     14  O   UNL     1       9.049  14.369  24.222  0.00  0.00    +0.000 OA
BRANCH  11  15
ATOM     15  C   UNL     1       7.250  12.954  25.897  0.00  0.00    +0.000 C 
BRANCH  15  17
ATOM     16  C   UNL     1       5.799  14.135  27.656  0.00  0.00    +0.000 C 
ATOM     17  C   UNL     1       5.985  13.765  26.190  0.00  0.00    +0.000 C 
ENDBRANCH  15  17
ENDBRANCH  11  15
ENDBRANCH   7  13
ENDBRANCH   1   9
BRANCH   5  18
ATOM     18  C   UNL     1       8.530   9.222  18.180  0.00  0.00    +0.000 C 
ATOM     19  C   UNL     1       7.829   8.360  17.729  0.00  0.00    +0.000 C 
BRANCH  19  20
ATOM     20  C   UNL     1       6.984   7.334  17.208  0.00  0.00    +0.000 A 
ATOM     21  C   UNL     1       5.612   7.382  17.397  0.00  0.00    +0.000 A 
ATOM     22  C   UNL     1       4.837   6.379  16.824  0.00  0.00    +0.000 A 
ATOM     23  C   UNL     1       5.459   5.370  16.096  0.00  0.00    +0.000 A 
ATOM     24  C   UNL     1       6.841   5.400  15.978  0.00  0.00    +0.000 A 
ATOM     25  N   UNL     1       7.620   6.362  16.518  0.00  0.00    +0.000 NA
ENDBRANCH  19  20
ENDBRANCH   5  18
TORSDOF 6
ENDMDL
MODEL 9
REMARK VINA RESULT:      -7.0      2.461      3.042
REMARK  Name = 
REMARK  8 active torsions:
REMARK  status: ('A' for Active; 'I' for Inactive)
REMARK    1  A    between atoms: C_1  and  C_2
REMARK    2  A    between atoms: C_2  and  C_3
REMARK    3  A    between atoms: C_3  and  N_4
REMARK    4  A    between atoms: N_4  and  C_5
REMARK    5  A    between atoms: C_6  and  C_8
REMARK    6  A    between atoms: N_10  and  C_11
REMARK    7  A    between atoms: C_15  and  C_16
REMARK    8  A    between atoms: C_17  and  C_18
REMARK                            x       y       z     vdW  Elec       q    Type
REMARK                         _______ _______ _______ _____ _____    ______ ____
ROOT
ATOM      1  C   UNL     1       4.582   6.007  17.061  0.00  0.00    +0.000 A 
ATOM      2  C   UNL     1       4.695   5.200  18.204  0.00  0.00    +0.000 A 
ATOM      3  C   UNL     1       3.932   5.443  19.344  0.00  0.00    +0.000 A 
ATOM      4  C   UNL     1       3.054   6.514  19.365  0.00  0.00    +0.000 A 
ATOM      5  C   UNL     1       2.963   7.359  18.256  0.00  0.00    +0.000 A 
ATOM      6  C   UNL     1       3.741   7.122  17.110  0.00  0.00    +0.000 A 
ENDROOT
BRANCH   1   9
ATOM      7  C   UNL     1       6.621   5.390  15.798  0.00  0.00    +0.000 C 
ATOM      8  O   UNL     1       7.375   5.336  16.757  0.00  0.00    +0.000 OA
ATOM      9  N   UNL     1       5.266   5.701  15.860  0.00  0.00    +0.000 N 
ATOM     10  H   UNL     1       4.736   5.554  15.003  0.00  0.00    +0.000 HD
BRANCH   7  13
ATOM     11  N   UNL     1       6.405   4.120  13.604  0.00  0.00    +0.000 N 
ATOM     12  C   UNL     1       5.188   3.471  14.084  0.00  0.00    +0.000 C 
ATOM     13  C   UNL     1       7.137   5.044  14.368  0.00  0.00    +0.000 C 
ATOM     14  O   UNL     1       8.157   5.607  13.983  0.00  0.00    +0.000 OA
BRANCH  11  15
ATOM     15  C   UNL     1       6.873   3.743  12.275  0.00  0.00    +0.000 C 
BRANCH  15  17
ATOM     16  C   UNL     1       6.998   1.498  11.033  0.00  0.00    +0.000 C 
ATOM     17  C   UNL     1       6.111   2.567  11.656  0.00  0.00    +0.000 C 
ENDBRANCH  15  17
ENDBRANCH  11  15
ENDBRANCH   7  13
ENDBRANCH   1   9
BRANCH   5  18
ATOM     18  C   UNL     1       2.020   8.431  18.298  0.00  0.00    +0.000 C 
ATOM     19  C   UNL     1       1.270   9.364  18.385  0.00  0.00    +0.000 C 
BRANCH  19  20
ATOM     20  C   UNL     1       0.383  10.475  18.507  0.00  0.00    +0.000 A 
ATOM     21  C   UNL     1      -0.968  10.337  18.233  0.00  0.00    +0.000 A 
ATOM     22  C   UNL     1      -1.790  11.444  18.417  0.00  0.00    +0.000 A 
ATOM     23  C   UNL     1      -1.232  12.640  18.858  0.00  0.00    +0.000 A 
ATOM     24  C   UNL     1       0.134  12.683  19.090  0.00  0.00    +0.000 A 
ATOM     25  N   UNL     1       0.958  11.625  18.925  0.00  0.00    +0.000 NA
ENDBRANCH  19  20
ENDBRANCH   5  18
TORSDOF 6
ENDMDL
