MODEL 1
REMARK VINA RESULT:      -9.0      0.000      0.000
REMARK  Name = 
REMARK  1 active torsions:
REMARK  status: ('A' for Active; 'I' for Inactive)
REMARK    1  A    between atoms: C_13  and  C_14
REMARK                            x       y       z     vdW  Elec       q    Type
REMARK                         _______ _______ _______ _____ _____    ______ ____
ROOT
ATOM      1  O   UNL     1       5.617   5.437  19.764  0.00  0.00    +0.000 OA
ATOM      2  C   UNL     1       5.875   5.477  18.562  0.00  0.00    +0.000 C 
ATOM      3  C   UNL     1       7.326   5.394  18.088  0.00  0.00    +0.000 C 
ATOM      4  C   UNL     1       7.496   4.489  16.875  0.00  0.00    +0.000 C 
ATOM      5  C   UNL     1       6.480   4.832  15.796  0.00  0.00    +0.000 C 
ATOM      6  C   UNL     1       5.057   4.775  16.345  0.00  0.00    +0.000 C 
ATOM      7  N   UNL     1       4.746   3.422  16.824  0.00  0.00    +0.000 N 
ATOM      8  C   UNL     1       3.592   3.228  17.512  0.00  0.00    +0.000 A 
ATOM      9  C   UNL     1       2.826   2.115  17.744  0.00  0.00    +0.000 A 
ATOM     10  C   UNL     1       1.655   2.616  18.350  0.00  0.00    +0.000 A 
ATOM     11  N   UNL     1       1.691   3.939  18.539  0.00  0.00    +0.000 NA
ATOM     12  N   UNL     1       2.928   4.282  18.114  0.00  0.00    +0.000 N 
ATOM     13  C   UNL     1       3.324   5.675  17.846  0.00  0.00    +0.000 C 
ATOM     14  C   UNL     1       4.829   5.788  17.491  0.00  0.00    +0.000 C 
ATOM     15  H   UNL     1       5.131   2.648  16.281  0.00  0.00    +0.000 HD
ENDROOT
BRANCH  13  16
ATOM     16  C   UNL     1       2.619   6.746  18.675  0.00  0.00    +0.000 A 
ATOM     17  C   UNL     1       2.286   6.421  20.012  0.00  0.00    +0.000 A 
ATOM     18  C   UNL     1       1.610   7.313  20.842  0.00  0.00    +0.000 A 
ATOM     19  C   UNL     1       1.264   8.558  20.350  0.00  0.00    +0.000 A 
ATOM     20  F   UNL     1       0.593   9.402  21.157  0.00  0.00    +0.000 F 
ATOM     21  C   UNL     1       1.604   8.926  19.053  0.00  0.00    +0.000 A 
ATOM     22 BR   UNL     1       1.140  10.641  18.401  0.00  0.00    +0.000 Br
ATOM     23  C   UNL     1       2.291   8.029  18.217  0.00  0.00    +0.000 A 
ENDBRANCH  13  16
TORSDOF 1
ENDMDL
MODEL 2
REMARK VINA RESULT:      -9.0      1.084      1.524
REMARK  Name = 
REMARK  1 active torsions:
REMARK  status: ('A' for Active; 'I' for Inactive)
REMARK    1  A    between atoms: C_13  and  C_14
REMARK                            x       y       z     vdW  Elec       q    Type
REMARK                         _______ _______ _______ _____ _____    ______ ____
ROOT
ATOM      1  O   UNL     1       5.550   5.742  19.763  0.00  0.00    +0.000 OA
ATOM      2  C   UNL     1       5.937   5.628  18.601  0.00  0.00    +0.000 C 
ATOM      3  C   UNL     1       7.425   5.438  18.306  0.00  0.00    +0.000 C 
ATOM      4  C   UNL     1       7.681   4.388  17.232  0.00  0.00    +0.000 C 
ATOM      5  C   UNL     1       6.804   4.634  16.014  0.00  0.00    +0.000 C 
ATOM      6  C   UNL     1       5.329   4.693  16.402  0.00  0.00    +0.000 C 
ATOM      7  N   UNL     1       4.904   3.419  16.997  0.00  0.00    +0.000 N 
ATOM      8  C   UNL     1       3.674   3.350  17.569  0.00  0.00    +0.000 A 
ATOM      9  C   UNL     1       2.836   2.301  17.841  0.00  0.00    +0.000 A 
ATOM     10  C   UNL     1       1.632   2.912  18.249  0.00  0.00    +0.000 A 
ATOM     11  N   UNL     1       1.711   4.246  18.286  0.00  0.00    +0.000 NA
ATOM     12  N   UNL     1       3.001   4.492  17.966  0.00  0.00    +0.000 N 
ATOM     13  C   UNL     1       3.490   5.827  17.585  0.00  0.00    +0.000 C 
ATOM     14  C   UNL     1       5.028   5.844  17.391  0.00  0.00    +0.000 C 
ATOM     15  H   UNL     1       5.307   2.573  16.595  0.00  0.00    +0.000 HD
ENDROOT
BRANCH  13  16
ATOM     16  C   UNL     1       2.753   7.015  18.199  0.00  0.00    +0.000 A 
ATOM     17  C   UNL     1       2.493   8.125  17.359  0.00  0.00    +0.000 A 
ATOM     18  C   UNL     1       1.859   9.274  17.830  0.00  0.00    +0.000 A 
ATOM     19  C   UNL     1       1.461   9.327  19.153  0.00  0.00    +0.000 A 
ATOM     20  F   UNL     1       0.868  10.452  19.598  0.00  0.00    +0.000 F 
ATOM     21  C   UNL     1       1.669   8.244  19.998  0.00  0.00    +0.000 A 
ATOM     22 BR   UNL     1       1.101   8.326  21.803  0.00  0.00    +0.000 Br
ATOM     23  C   UNL     1       2.303   7.083  19.524  0.00  0.00    +0.000 A 
ENDBRANCH  13  16
TORSDOF 1
ENDMDL
MODEL 3
REMARK VINA RESULT:      -8.9      2.017      3.689
REMARK  Name = 
REMARK  1 active torsions:
REMARK  status: ('A' for Active; 'I' for Inactive)
REMARK    1  A    between atoms: C_13  and  C_14
REMARK                            x       y       z     vdW  Elec       q    Type
REMARK                         _______ _______ _______ _____ _____    ______ ____
ROOT
ATOM      1  O   UNL     1       1.141   4.347  17.416  0.00  0.00    +0.000 OA
ATOM      2  C   UNL     1       1.879   3.760  18.205  0.00  0.00    +0.000 C 
ATOM      3  C   UNL     1       1.627   2.289  18.539  0.00  0.00    +0.000 C 
ATOM      4  C   UNL     1       2.910   1.470  18.587  0.00  0.00    +0.000 C 
ATOM      5  C   UNL     1       3.961   2.159  19.445  0.00  0.00    +0.000 C 
ATOM      6  C   UNL     1       4.221   3.582  18.957  0.00  0.00    +0.000 C 
ATOM      7  N   UNL     1       4.723   3.568  17.576  0.00  0.00    +0.000 N 
ATOM      8  C   UNL     1       4.835   4.748  16.916  0.00  0.00    +0.000 A 
ATOM      9  C   UNL     1       5.590   5.142  15.843  0.00  0.00    +0.000 A 
ATOM     10  C   UNL     1       5.403   6.538  15.776  0.00  0.00    +0.000 A 
ATOM     11  N   UNL     1       4.553   6.994  16.702  0.00  0.00    +0.000 NA
ATOM     12  N   UNL     1       4.135   5.870  17.324  0.00  0.00    +0.000 N 
ATOM     13  C   UNL     1       3.421   5.886  18.611  0.00  0.00    +0.000 C 
ATOM     14  C   UNL     1       2.955   4.468  19.030  0.00  0.00    +0.000 C 
ATOM     15  H   UNL     1       5.355   2.805  17.331  0.00  0.00    +0.000 HD
ENDROOT
BRANCH  13  16
ATOM     16  C   UNL     1       2.565   7.119  18.891  0.00  0.00    +0.000 A 
ATOM     17  C   UNL     1       2.252   7.957  17.793  0.00  0.00    +0.000 A 
ATOM     18  C   UNL     1       1.508   9.126  17.945  0.00  0.00    +0.000 A 
ATOM     19  C   UNL     1       1.052   9.472  19.203  0.00  0.00    +0.000 A 
ATOM     20  F   UNL     1       0.352  10.615  19.339  0.00  0.00    +0.000 F 
ATOM     21  C   UNL     1       1.310   8.657  20.299  0.00  0.00    +0.000 A 
ATOM     22 BR   UNL     1       0.662   9.137  22.012  0.00  0.00    +0.000 Br
ATOM     23  C   UNL     1       2.055   7.475  20.146  0.00  0.00    +0.000 A 
ENDBRANCH  13  16
TORSDOF 1
ENDMDL
MODEL 4
REMARK VINA RESULT:      -8.5      3.699      5.961
REMARK  Name = 
REMARK  1 active torsions:
REMARK  status: ('A' for Active; 'I' for Inactive)
REMARK    1  A    between atoms: C_13  and  C_14
REMARK                            x       y       z     vdW  Elec       q    Type
REMARK                         _______ _______ _______ _____ _____    ______ ____
ROOT
ATOM      1  O   UNL     1       5.614   4.016  19.505  0.00  0.00    +0.000 OA
ATOM      2  C   UNL     1       4.543   3.421  19.412  0.00  0.00    +0.000 C 
ATOM      3  C   UNL     1       4.165   2.360  20.447  0.00  0.00    +0.000 C 
ATOM      4  C   UNL     1       2.708   2.455  20.880  0.00  0.00    +0.000 C 
ATOM      5  C   UNL     1       1.787   2.539  19.671  0.00  0.00    +0.000 C 
ATOM      6  C   UNL     1       2.180   3.701  18.763  0.00  0.00    +0.000 C 
ATOM      7  N   UNL     1       2.073   4.976  19.484  0.00  0.00    +0.000 N 
ATOM      8  C   UNL     1       2.557   6.097  18.892  0.00  0.00    +0.000 A 
ATOM      9  C   UNL     1       2.288   7.429  19.069  0.00  0.00    +0.000 A 
ATOM     10  C   UNL     1       2.968   8.068  18.011  0.00  0.00    +0.000 A 
ATOM     11  N   UNL     1       3.660   7.216  17.247  0.00  0.00    +0.000 NA
ATOM     12  N   UNL     1       3.481   6.027  17.864  0.00  0.00    +0.000 N 
ATOM     13  C   UNL     1       3.803   4.739  17.227  0.00  0.00    +0.000 C 
ATOM     14  C   UNL     1       3.615   3.550  18.204  0.00  0.00    +0.000 C 
ATOM     15  H   UNL     1       1.297   5.062  20.140  0.00  0.00    +0.000 HD
ENDROOT
BRANCH  13  16
ATOM     16  C   UNL     1       4.938   4.758  16.206  0.00  0.00    +0.000 A 
ATOM     17  C   UNL     1       6.112   5.471  16.552  0.00  0.00    +0.000 A 
ATOM     18  C   UNL     1       7.193   5.582  15.678  0.00  0.00    +0.000 A 
ATOM     19  C   UNL     1       7.122   4.967  14.442  0.00  0.00    +0.000 A 
ATOM     20  F   UNL     1       8.165   5.099  13.600  0.00  0.00    +0.000 F 
ATOM     21  C   UNL     1       6.000   4.230  14.081  0.00  0.00    +0.000 A 
ATOM     22 BR   UNL     1       5.927   3.378  12.391  0.00  0.00    +0.000 Br
ATOM     23  C   UNL     1       4.912   4.113  14.964  0.00  0.00    +0.000 A 
ENDBRANCH  13  16
TORSDOF 1
ENDMDL
MODEL 5
REMARK VINA RESULT:      -8.4      1.541      1.889
REMARK  Name = 
REMARK  1 active torsions:
REMARK  status: ('A' for Active; 'I' for Inactive)
REMARK    1  A    between atoms: C_13  and  C_14
REMARK                            x       y       z     vdW  Elec       q    Type
REMARK                         _______ _______ _______ _____ _____    ______ ____
ROOT
ATOM      1  O   UNL     1       6.045   6.590  18.571  0.00  0.00    +0.000 OA
ATOM      2  C   UNL     1       5.851   5.982  17.521  0.00  0.00    +0.000 C 
ATOM      3  C   UNL     1       7.005   5.758  16.542  0.00  0.00    +0.000 C 
ATOM      4  C   UNL     1       7.016   4.351  15.960  0.00  0.00    +0.000 C 
ATOM      5  C   UNL     1       5.639   3.969  15.437  0.00  0.00    +0.000 C 
ATOM      6  C   UNL     1       4.580   4.119  16.525  0.00  0.00    +0.000 C 
ATOM      7  N   UNL     1       4.878   3.233  17.658  0.00  0.00    +0.000 N 
ATOM      8  C   UNL     1       4.146   3.365  18.794  0.00  0.00    +0.000 A 
ATOM      9  C   UNL     1       3.884   2.511  19.832  0.00  0.00    +0.000 A 
ATOM     10  C   UNL     1       2.898   3.175  20.591  0.00  0.00    +0.000 A 
ATOM     11  N   UNL     1       2.591   4.382  20.105  0.00  0.00    +0.000 NA
ATOM     12  N   UNL     1       3.441   4.525  19.064  0.00  0.00    +0.000 N 
ATOM     13  C   UNL     1       3.278   5.565  18.035  0.00  0.00    +0.000 C 
ATOM     14  C   UNL     1       4.461   5.575  17.033  0.00  0.00    +0.000 C 
ATOM     15  H   UNL     1       5.270   2.320  17.429  0.00  0.00    +0.000 HD
ENDROOT
BRANCH  13  16
ATOM     16  C   UNL     1       2.609   6.861  18.489  0.00  0.00    +0.000 A 
ATOM     17  C   UNL     1       2.390   7.859  17.507  0.00  0.00    +0.000 A 
ATOM     18  C   UNL     1       1.820   9.091  17.822  0.00  0.00    +0.000 A 
ATOM     19  C   UNL     1       1.446   9.343  19.130  0.00  0.00    +0.000 A 
ATOM     20  F   UNL     1       0.916  10.546  19.423  0.00  0.00    +0.000 F 
ATOM     21  C   UNL     1       1.614   8.376  20.113  0.00  0.00    +0.000 A 
ATOM     22 BR   UNL     1       1.080   8.731  21.895  0.00  0.00    +0.000 Br
ATOM     23  C   UNL     1       2.184   7.131  19.796  0.00  0.00    +0.000 A 
ENDBRANCH  13  16
TORSDOF 1
ENDMDL
MODEL 6
REMARK VINA RESULT:      -7.9      1.786      3.374
REMARK  Name = 
REMARK  1 active torsions:
REMARK  status: ('A' for Active; 'I' for Inactive)
REMARK    1  A    between atoms: C_13  and  C_14
REMARK                            x       y       z     vdW  Elec       q    Type
REMARK                         _______ _______ _______ _____ _____    ______ ____
ROOT
ATOM      1  O   UNL     1       1.130   4.215  17.744  0.00  0.00    +0.000 OA
ATOM      2  C   UNL     1       1.942   3.597  18.429  0.00  0.00    +0.000 C 
ATOM      3  C   UNL     1       1.768   2.094  18.654  0.00  0.00    +0.000 C 
ATOM      4  C   UNL     1       3.081   1.329  18.545  0.00  0.00    +0.000 C 
ATOM      5  C   UNL     1       4.164   1.989  19.385  0.00  0.00    +0.000 C 
ATOM      6  C   UNL     1       4.336   3.456  19.003  0.00  0.00    +0.000 C 
ATOM      7  N   UNL     1       4.739   3.577  17.595  0.00  0.00    +0.000 N 
ATOM      8  C   UNL     1       4.761   4.811  17.031  0.00  0.00    +0.000 A 
ATOM      9  C   UNL     1       5.424   5.323  15.946  0.00  0.00    +0.000 A 
ATOM     10  C   UNL     1       5.182   6.711  16.011  0.00  0.00    +0.000 A 
ATOM     11  N   UNL     1       4.383   7.053  17.028  0.00  0.00    +0.000 NA
ATOM     12  N   UNL     1       4.052   5.865  17.579  0.00  0.00    +0.000 N 
ATOM     13  C   UNL     1       3.431   5.745  18.909  0.00  0.00    +0.000 C 
ATOM     14  C   UNL     1       3.047   4.279  19.236  0.00  0.00    +0.000 C 
ATOM     15  H   UNL     1       5.380   2.863  17.244  0.00  0.00    +0.000 HD
ENDROOT
BRANCH  13  16
ATOM     16  C   UNL     1       2.553   6.914  19.349  0.00  0.00    +0.000 A 
ATOM     17  C   UNL     1       1.933   6.821  20.619  0.00  0.00    +0.000 A 
ATOM     18  C   UNL     1       1.084   7.816  21.101  0.00  0.00    +0.000 A 
ATOM     19  C   UNL     1       0.848   8.933  20.321  0.00  0.00    +0.000 A 
ATOM     20  F   UNL     1       0.009   9.876  20.791  0.00  0.00    +0.000 F 
ATOM     21  C   UNL     1       1.466   9.075  19.084  0.00  0.00    +0.000 A 
ATOM     22 BR   UNL     1       1.147  10.620  18.037  0.00  0.00    +0.000 Br
ATOM     23  C   UNL     1       2.327   8.076  18.600  0.00  0.00    +0.000 A 
ENDBRANCH  13  16
TORSDOF 1
ENDMDL
MODEL 7
REMARK VINA RESULT:      -7.7      1.155      1.213
REMARK  Name = 
REMARK  1 active torsions:
REMARK  status: ('A' for Active; 'I' for Inactive)
REMARK    1  A    between atoms: C_13  and  C_14
REMARK                            x       y       z     vdW  Elec       q    Type
REMARK                         _______ _______ _______ _____ _____    ______ ____
ROOT
ATOM      1  O   UNL     1       6.068   6.396  18.612  0.00  0.00    +0.000 OA
ATOM      2  C   UNL     1       5.801   5.896  17.522  0.00  0.00    +0.000 C 
ATOM      3  C   UNL     1       6.873   5.812  16.435  0.00  0.00    +0.000 C 
ATOM      4  C   UNL     1       6.867   4.474  15.707  0.00  0.00    +0.000 C 
ATOM      5  C   UNL     1       5.460   4.107  15.259  0.00  0.00    +0.000 C 
ATOM      6  C   UNL     1       4.491   4.109  16.439  0.00  0.00    +0.000 C 
ATOM      7  N   UNL     1       4.903   3.119  17.443  0.00  0.00    +0.000 N 
ATOM      8  C   UNL     1       4.266   3.109  18.642  0.00  0.00    +0.000 A 
ATOM      9  C   UNL     1       4.110   2.143  19.600  0.00  0.00    +0.000 A 
ATOM     10  C   UNL     1       3.176   2.693  20.503  0.00  0.00    +0.000 A 
ATOM     11  N   UNL     1       2.804   3.935  20.175  0.00  0.00    +0.000 NA
ATOM     12  N   UNL     1       3.560   4.212  19.090  0.00  0.00    +0.000 N 
ATOM     13  C   UNL     1       3.289   5.349  18.195  0.00  0.00    +0.000 C 
ATOM     14  C   UNL     1       4.383   5.500  17.107  0.00  0.00    +0.000 C 
ATOM     15  H   UNL     1       5.295   2.247  17.087  0.00  0.00    +0.000 HD
ENDROOT
BRANCH  13  16
ATOM     16  C   UNL     1       2.632   6.569  18.837  0.00  0.00    +0.000 A 
ATOM     17  C   UNL     1       2.129   6.421  20.153  0.00  0.00    +0.000 A 
ATOM     18  C   UNL     1       1.480   7.460  20.816  0.00  0.00    +0.000 A 
ATOM     19  C   UNL     1       1.331   8.677  20.175  0.00  0.00    +0.000 A 
ATOM     20  F   UNL     1       0.683   9.665  20.820  0.00  0.00    +0.000 F 
ATOM     21  C   UNL     1       1.842   8.870  18.896  0.00  0.00    +0.000 A 
ATOM     22 BR   UNL     1       1.647  10.547  18.040  0.00  0.00    +0.000 Br
ATOM     23  C   UNL     1       2.502   7.824  18.229  0.00  0.00    +0.000 A 
ENDBRANCH  13  16
TORSDOF 1
ENDMDL
MODEL 8
REMARK VINA RESULT:      -7.7      3.501      4.352
REMARK  Name = 
REMARK  1 active torsions:
REMARK  status: ('A' for Active; 'I' for Inactive)
REMARK    1  A    between atoms: C_13  and  C_14
REMARK                            x       y       z     vdW  Elec       q    Type
REMARK                         _______ _______ _______ _____ _____    ______ ____
ROOT
ATOM      1  O   UNL     1       6.787   4.320  19.162  0.00  0.00    +0.000 OA
ATOM      2  C   UNL     1       6.818   5.517  18.885  0.00  0.00    +0.000 C 
ATOM      3  C   UNL     1       7.891   6.417  19.501  0.00  0.00    +0.000 C 
ATOM      4  C   UNL     1       8.487   7.392  18.494  0.00  0.00    +0.000 C 
ATOM      5  C   UNL     1       7.390   8.119  17.730  0.00  0.00    +0.000 C 
ATOM      6  C   UNL     1       6.441   7.130  17.059  0.00  0.00    +0.000 C 
ATOM      7  N   UNL     1       7.168   6.295  16.094  0.00  0.00    +0.000 N 
ATOM      8  C   UNL     1       6.522   5.238  15.538  0.00  0.00    +0.000 A 
ATOM      9  C   UNL     1       6.727   4.531  14.382  0.00  0.00    +0.000 A 
ATOM     10  C   UNL     1       5.597   3.693  14.279  0.00  0.00    +0.000 A 
ATOM     11  N   UNL     1       4.761   3.817  15.316  0.00  0.00    +0.000 NA
ATOM     12  N   UNL     1       5.396   4.692  16.127  0.00  0.00    +0.000 N 
ATOM     13  C   UNL     1       4.729   5.370  17.251  0.00  0.00    +0.000 C 
ATOM     14  C   UNL     1       5.723   6.220  18.083  0.00  0.00    +0.000 C 
ATOM     15  H   UNL     1       7.908   6.755  15.563  0.00  0.00    +0.000 HD
ENDROOT
BRANCH  13  16
ATOM     16  C   UNL     1       3.586   4.606  17.915  0.00  0.00    +0.000 A 
ATOM     17  C   UNL     1       2.403   4.416  17.159  0.00  0.00    +0.000 A 
ATOM     18  C   UNL     1       1.289   3.765  17.683  0.00  0.00    +0.000 A 
ATOM     19  C   UNL     1       1.342   3.277  18.976  0.00  0.00    +0.000 A 
ATOM     20  F   UNL     1       0.250   2.669  19.476  0.00  0.00    +0.000 F 
ATOM     21  C   UNL     1       2.497   3.414  19.736  0.00  0.00    +0.000 A 
ATOM     22 BR   UNL     1       2.560   2.725  21.499  0.00  0.00    +0.000 Br
ATOM     23  C   UNL     1       3.624   4.066  19.207  0.00  0.00    +0.000 A 
ENDBRANCH  13  16
TORSDOF 1
ENDMDL
MODEL 9
REMARK VINA RESULT:      -7.7      4.131      6.657
REMARK  Name = 
REMARK  1 active torsions:
REMARK  status: ('A' for Active; 'I' for Inactive)
REMARK    1  A    between atoms: C_13  and  C_14
REMARK                            x       y       z     vdW  Elec       q    Type
REMARK                         _______ _______ _______ _____ _____    ______ ____
ROOT
ATOM      1  O   UNL     1       4.252   2.480  17.201  0.00  0.00    +0.000 OA
ATOM      2  C   UNL     1       3.532   3.435  17.484  0.00  0.00    +0.000 C 
ATOM      3  C   UNL     1       2.170   3.199  18.139  0.00  0.00    +0.000 C 
ATOM      4  C   UNL     1       1.883   4.184  19.265  0.00  0.00    +0.000 C 
ATOM      5  C   UNL     1       2.149   5.613  18.817  0.00  0.00    +0.000 C 
ATOM      6  C   UNL     1       3.572   5.766  18.287  0.00  0.00    +0.000 C 
ATOM      7  N   UNL     1       4.548   5.448  19.337  0.00  0.00    +0.000 N 
ATOM      8  C   UNL     1       5.859   5.352  18.996  0.00  0.00    +0.000 A 
ATOM      9  C   UNL     1       7.016   5.465  19.721  0.00  0.00    +0.000 A 
ATOM     10  C   UNL     1       8.038   5.466  18.749  0.00  0.00    +0.000 A 
ATOM     11  N   UNL     1       7.575   5.313  17.505  0.00  0.00    +0.000 NA
ATOM     12  N   UNL     1       6.246   5.140  17.685  0.00  0.00    +0.000 N 
ATOM     13  C   UNL     1       5.271   5.232  16.586  0.00  0.00    +0.000 C 
ATOM     14  C   UNL     1       3.838   4.870  17.054  0.00  0.00    +0.000 C 
ATOM     15  H   UNL     1       4.306   5.739  20.285  0.00  0.00    +0.000 HD
ENDROOT
BRANCH  13  16
ATOM     16  C   UNL     1       5.779   4.837  15.201  0.00  0.00    +0.000 A 
ATOM     17  C   UNL     1       7.123   5.152  14.885  0.00  0.00    +0.000 A 
ATOM     18  C   UNL     1       7.675   4.868  13.637  0.00  0.00    +0.000 A 
ATOM     19  C   UNL     1       6.890   4.249  12.682  0.00  0.00    +0.000 A 
ATOM     20  F   UNL     1       7.430   3.999  11.474  0.00  0.00    +0.000 F 
ATOM     21  C   UNL     1       5.577   3.893  12.967  0.00  0.00    +0.000 A 
ATOM     22 BR   UNL     1       4.522   3.029  11.653  0.00  0.00    +0.000 Br
ATOM     23  C   UNL     1       5.021   4.174  14.227  0.00  0.00    +0.000 A 
ENDBRANCH  13  16
TORSDOF 1
ENDMDL
