MODEL 1
REMARK VINA RESULT:      -7.2      0.000      0.000
REMARK  Name = 
REMARK  4 active torsions:
REMARK  status: ('A' for Active; 'I' for Inactive)
REMARK    1  A    between atoms: C_1  and  C_2
REMARK    2  A    between atoms: N_4  and  C_5
REMARK    3  A    between atoms: C_5  and  C_6
REMARK    4  A    between atoms: C_6  and  C_7
REMARK                            x       y       z     vdW  Elec       q    Type
REMARK                         _______ _______ _______ _____ _____    ______ ____
ROOT
ATOM      1  C   UNL     1       4.885   5.097  17.596  0.00  0.00    +0.000 C 
ATOM      2  C   UNL     1       4.696   6.528  17.044  0.00  0.00    +0.000 C 
ATOM      3  O   UNL     1       5.312   7.046  16.126  0.00  0.00    +0.000 OA
ATOM      4  N   UNL     1       3.698   7.141  17.793  0.00  0.00    +0.000 N 
ATOM      5  C   UNL     1       3.186   6.282  18.750  0.00  0.00    +0.000 A 
ATOM      6  C   UNL     1       2.192   6.549  19.670  0.00  0.00    +0.000 A 
ATOM      7  C   UNL     1       1.826   5.518  20.541  0.00  0.00    +0.000 A 
ATOM      8  C   UNL     1       2.439   4.257  20.442  0.00  0.00    +0.000 A 
ATOM      9 BR   UNL     1       1.927   2.878  21.634  0.00  0.00    +0.000 Br
ATOM     10  C   UNL     1       3.425   4.004  19.491  0.00  0.00    +0.000 A 
ATOM     11  C   UNL     1       3.822   5.044  18.665  0.00  0.00    +0.000 A 
ATOM     12  H   UNL     1       3.399   8.091  17.632  0.00  0.00    +0.000 HD
ENDROOT
BRANCH   1  13
ATOM     13  C   UNL     1       6.323   4.949  18.108  0.00  0.00    +0.000 C 
BRANCH  13  14
ATOM     14  C   UNL     1       7.294   4.464  17.038  0.00  0.00    +0.000 C 
BRANCH  14  18
ATOM     15  C   UNL     1       6.138   3.801  13.506  0.00  0.00    +0.000 C 
ATOM     16  C   UNL     1       6.888   4.489  14.610  0.00  0.00    +0.000 C 
ATOM     17  O   UNL     1       7.672   5.410  14.406  0.00  0.00    +0.000 OA
ATOM     18  N   UNL     1       6.615   3.973  15.860  0.00  0.00    +0.000 N 
ATOM     19  H   UNL     1       5.928   3.234  15.958  0.00  0.00    +0.000 HD
ENDBRANCH  14  18
ENDBRANCH  13  14
ENDBRANCH   1  13
TORSDOF 3
ENDMDL
MODEL 2
REMARK VINA RESULT:      -7.1      2.269      2.977
REMARK  Name = 
REMARK  4 active torsions:
REMARK  status: ('A' for Active; 'I' for Inactive)
REMARK    1  A    between atoms: C_1  and  C_2
REMARK    2  A    between atoms: N_4  and  C_5
REMARK    3  A    between atoms: C_5  and  C_6
REMARK    4  A    between atoms: C_6  and  C_7
REMARK                            x       y       z     vdW  Elec       q    Type
REMARK                         _______ _______ _______ _____ _____    ______ ____
ROOT
ATOM      1  C   UNL     1       5.417   4.996  15.962  0.00  0.00    +0.000 C 
ATOM      2  C   UNL     1       6.571   5.770  16.637  0.00  0.00    +0.000 C 
ATOM      3  O   UNL     1       7.487   6.352  16.078  0.00  0.00    +0.000 OA
ATOM      4  N   UNL     1       6.394   5.679  18.013  0.00  0.00    +0.000 N 
ATOM      5  C   UNL     1       5.250   4.964  18.327  0.00  0.00    +0.000 A 
ATOM      6  C   UNL     1       4.765   4.671  19.586  0.00  0.00    +0.000 A 
ATOM      7  C   UNL     1       3.577   3.938  19.664  0.00  0.00    +0.000 A 
ATOM      8  C   UNL     1       2.903   3.554  18.492  0.00  0.00    +0.000 A 
ATOM      9 BR   UNL     1       1.297   2.560  18.623  0.00  0.00    +0.000 Br
ATOM     10  C   UNL     1       3.401   3.880  17.231  0.00  0.00    +0.000 A 
ATOM     11  C   UNL     1       4.607   4.560  17.158  0.00  0.00    +0.000 A 
ATOM     12  H   UNL     1       7.029   6.096  18.675  0.00  0.00    +0.000 HD
ENDROOT
BRANCH   1  13
ATOM     13  C   UNL     1       6.008   3.850  15.131  0.00  0.00    +0.000 C 
BRANCH  13  14
ATOM     14  C   UNL     1       5.937   4.099  13.629  0.00  0.00    +0.000 C 
BRANCH  14  18
ATOM     15  C   UNL     1       6.278   1.343  11.072  0.00  0.00    +0.000 C 
ATOM     16  C   UNL     1       5.631   2.494  11.788  0.00  0.00    +0.000 C 
ATOM     17  O   UNL     1       4.559   2.975  11.438  0.00  0.00    +0.000 OA
ATOM     18  N   UNL     1       6.369   2.954  12.860  0.00  0.00    +0.000 N 
ATOM     19  H   UNL     1       7.230   2.484  13.114  0.00  0.00    +0.000 HD
ENDBRANCH  14  18
ENDBRANCH  13  14
ENDBRANCH   1  13
TORSDOF 3
ENDMDL
MODEL 3
REMARK VINA RESULT:      -6.9      2.564      3.318
REMARK  Name = 
REMARK  4 active torsions:
REMARK  status: ('A' for Active; 'I' for Inactive)
REMARK    1  A    between atoms: C_1  and  C_2
REMARK    2  A    between atoms: N_4  and  C_5
REMARK    3  A    between atoms: C_5  and  C_6
REMARK    4  A    between atoms: C_6  and  C_7
REMARK                            x       y       z     vdW  Elec       q    Type
REMARK                         _______ _______ _______ _____ _____    ______ ____
ROOT
ATOM      1  C   UNL     1       6.712   5.861  16.689  0.00  0.00    +0.000 C 
ATOM      2  C   UNL     1       7.276   4.638  17.446  0.00  0.00    +0.000 C 
ATOM      3  O   UNL     1       8.338   4.073  17.236  0.00  0.00    +0.000 OA
ATOM      4  N   UNL     1       6.347   4.276  18.416  0.00  0.00    +0.000 N 
ATOM      5  C   UNL     1       5.255   5.127  18.409  0.00  0.00    +0.000 A 
ATOM      6  C   UNL     1       4.143   5.068  19.225  0.00  0.00    +0.000 A 
ATOM      7  C   UNL     1       3.159   6.046  19.045  0.00  0.00    +0.000 A 
ATOM      8  C   UNL     1       3.334   7.058  18.086  0.00  0.00    +0.000 A 
ATOM      9 BR   UNL     1       1.987   8.369  17.859  0.00  0.00    +0.000 Br
ATOM     10  C   UNL     1       4.476   7.109  17.288  0.00  0.00    +0.000 A 
ATOM     11  C   UNL     1       5.423   6.107  17.433  0.00  0.00    +0.000 A 
ATOM     12  H   UNL     1       6.482   3.494  19.037  0.00  0.00    +0.000 HD
ENDROOT
BRANCH   1  13
ATOM     13  C   UNL     1       6.542   5.493  15.209  0.00  0.00    +0.000 C 
BRANCH  13  14
ATOM     14  C   UNL     1       6.158   4.033  14.995  0.00  0.00    +0.000 C 
BRANCH  14  18
ATOM     15  C   UNL     1       4.549   3.341  11.651  0.00  0.00    +0.000 C 
ATOM     16  C   UNL     1       5.667   3.547  12.631  0.00  0.00    +0.000 C 
ATOM     17  O   UNL     1       6.849   3.430  12.325  0.00  0.00    +0.000 OA
ATOM     18  N   UNL     1       5.228   3.864  13.901  0.00  0.00    +0.000 N 
ATOM     19  H   UNL     1       4.236   3.979  14.074  0.00  0.00    +0.000 HD
ENDBRANCH  14  18
ENDBRANCH  13  14
ENDBRANCH   1  13
TORSDOF 3
ENDMDL
MODEL 4
REMARK VINA RESULT:      -6.8      2.153      2.736
REMARK  Name = 
REMARK  4 active torsions:
REMARK  status: ('A' for Active; 'I' for Inactive)
REMARK    1  A    between atoms: C_1  and  C_2
REMARK    2  A    between atoms: N_4  and  C_5
REMARK    3  A    between atoms: C_5  and  C_6
REMARK    4  A    between atoms: C_6  and  C_7
REMARK                            x       y       z     vdW  Elec       q    Type
REMARK                         _______ _______ _______ _____ _____    ______ ____
ROOT
ATOM      1  C   UNL     1       5.395   6.128  16.348  0.00  0.00    +0.000 C 
ATOM      2  C   UNL     1       6.818   6.230  16.943  0.00  0.00    +0.000 C 
ATOM      3  O   UNL     1       7.739   6.912  16.523  0.00  0.00    +0.000 OA
ATOM      4  N   UNL     1       6.876   5.388  18.048  0.00  0.00    +0.000 N 
ATOM      5  C   UNL     1       5.659   4.766  18.272  0.00  0.00    +0.000 A 
ATOM      6  C   UNL     1       5.350   3.866  19.271  0.00  0.00    +0.000 A 
ATOM      7  C   UNL     1       4.043   3.370  19.310  0.00  0.00    +0.000 A 
ATOM      8  C   UNL     1       3.090   3.811  18.376  0.00  0.00    +0.000 A 
ATOM      9 BR   UNL     1       1.327   3.123  18.448  0.00  0.00    +0.000 Br
ATOM     10  C   UNL     1       3.420   4.738  17.389  0.00  0.00    +0.000 A 
ATOM     11  C   UNL     1       4.730   5.186  17.321  0.00  0.00    +0.000 A 
ATOM     12  H   UNL     1       7.709   5.270  18.603  0.00  0.00    +0.000 HD
ENDROOT
BRANCH   1  13
ATOM     13  C   UNL     1       5.495   5.604  14.910  0.00  0.00    +0.000 C 
BRANCH  13  14
ATOM     14  C   UNL     1       6.456   4.430  14.764  0.00  0.00    +0.000 C 
BRANCH  14  18
ATOM     15  C   UNL     1       5.888   2.345  11.669  0.00  0.00    +0.000 C 
ATOM     16  C   UNL     1       6.423   3.480  12.493  0.00  0.00    +0.000 C 
ATOM     17  O   UNL     1       7.178   4.333  12.038  0.00  0.00    +0.000 OA
ATOM     18  N   UNL     1       5.991   3.454  13.804  0.00  0.00    +0.000 N 
ATOM     19  H   UNL     1       5.339   2.739  14.102  0.00  0.00    +0.000 HD
ENDBRANCH  14  18
ENDBRANCH  13  14
ENDBRANCH   1  13
TORSDOF 3
ENDMDL
MODEL 5
REMARK VINA RESULT:      -6.8      3.627      6.061
REMARK  Name = 
REMARK  4 active torsions:
REMARK  status: ('A' for Active; 'I' for Inactive)
REMARK    1  A    between atoms: C_1  and  C_2
REMARK    2  A    between atoms: N_4  and  C_5
REMARK    3  A    between atoms: C_5  and  C_6
REMARK    4  A    between atoms: C_6  and  C_7
REMARK                            x       y       z     vdW  Elec       q    Type
REMARK                         _______ _______ _______ _____ _____    ______ ____
ROOT
ATOM      1  C   UNL     1       4.002   4.223  17.853  0.00  0.00    +0.000 C 
ATOM      2  C   UNL     1       4.711   4.912  19.040  0.00  0.00    +0.000 C 
ATOM      3  O   UNL     1       4.284   5.034  20.178  0.00  0.00    +0.000 OA
ATOM      4  N   UNL     1       5.934   5.391  18.582  0.00  0.00    +0.000 N 
ATOM      5  C   UNL     1       6.129   5.077  17.248  0.00  0.00    +0.000 A 
ATOM      6  C   UNL     1       7.221   5.394  16.464  0.00  0.00    +0.000 A 
ATOM      7  C   UNL     1       7.206   4.962  15.135  0.00  0.00    +0.000 A 
ATOM      8  C   UNL     1       6.125   4.207  14.646  0.00  0.00    +0.000 A 
ATOM      9 BR   UNL     1       6.128   3.636  12.841  0.00  0.00    +0.000 Br
ATOM     10  C   UNL     1       5.044   3.881  15.463  0.00  0.00    +0.000 A 
ATOM     11  C   UNL     1       5.038   4.357  16.765  0.00  0.00    +0.000 A 
ATOM     12  H   UNL     1       6.580   5.892  19.171  0.00  0.00    +0.000 HD
ENDROOT
BRANCH   1  13
ATOM     13  C   UNL     1       2.679   4.949  17.577  0.00  0.00    +0.000 C 
BRANCH  13  14
ATOM     14  C   UNL     1       1.453   4.129  17.963  0.00  0.00    +0.000 C 
BRANCH  14  18
ATOM     15  C   UNL     1       1.403   2.798  21.495  0.00  0.00    +0.000 C 
ATOM     16  C   UNL     1       1.506   2.745  19.998  0.00  0.00    +0.000 C 
ATOM     17  O   UNL     1       1.741   1.709  19.385  0.00  0.00    +0.000 OA
ATOM     18  N   UNL     1       1.324   3.972  19.394  0.00  0.00    +0.000 N 
ATOM     19  H   UNL     1       1.097   4.781  19.961  0.00  0.00    +0.000 HD
ENDBRANCH  14  18
ENDBRANCH  13  14
ENDBRANCH   1  13
TORSDOF 3
ENDMDL
MODEL 6
REMARK VINA RESULT:      -6.7      3.070      4.279
REMARK  Name = 
REMARK  4 active torsions:
REMARK  status: ('A' for Active; 'I' for Inactive)
REMARK    1  A    between atoms: C_1  and  C_2
REMARK    2  A    between atoms: N_4  and  C_5
REMARK    3  A    between atoms: C_5  and  C_6
REMARK    4  A    between atoms: C_6  and  C_7
REMARK                            x       y       z     vdW  Elec       q    Type
REMARK                         _______ _______ _______ _____ _____    ______ ____
ROOT
ATOM      1  C   UNL     1       6.542   5.436  17.800  0.00  0.00    +0.000 C 
ATOM      2  C   UNL     1       6.843   4.536  16.581  0.00  0.00    +0.000 C 
ATOM      3  O   UNL     1       7.888   4.482  15.951  0.00  0.00    +0.000 OA
ATOM      4  N   UNL     1       5.698   3.795  16.309  0.00  0.00    +0.000 N 
ATOM      5  C   UNL     1       4.690   4.075  17.216  0.00  0.00    +0.000 A 
ATOM      6  C   UNL     1       3.421   3.534  17.251  0.00  0.00    +0.000 A 
ATOM      7  C   UNL     1       2.566   3.961  18.271  0.00  0.00    +0.000 A 
ATOM      8  C   UNL     1       3.015   4.883  19.233  0.00  0.00    +0.000 A 
ATOM      9 BR   UNL     1       1.838   5.448  20.604  0.00  0.00    +0.000 Br
ATOM     10  C   UNL     1       4.309   5.399  19.190  0.00  0.00    +0.000 A 
ATOM     11  C   UNL     1       5.135   5.014  18.145  0.00  0.00    +0.000 A 
ATOM     12  H   UNL     1       5.640   3.138  15.547  0.00  0.00    +0.000 HD
ENDROOT
BRANCH   1  13
ATOM     13  C   UNL     1       6.690   6.904  17.381  0.00  0.00    +0.000 C 
BRANCH  13  14
ATOM     14  C   UNL     1       7.871   7.602  18.046  0.00  0.00    +0.000 C 
BRANCH  14  18
ATOM     15  C   UNL     1       8.737  11.271  17.855  0.00  0.00    +0.000 C 
ATOM     16  C   UNL     1       8.704   9.886  18.434  0.00  0.00    +0.000 C 
ATOM     17  O   UNL     1       9.292   9.584  19.467  0.00  0.00    +0.000 OA
ATOM     18  N   UNL     1       7.962   8.998  17.681  0.00  0.00    +0.000 N 
ATOM     19  H   UNL     1       7.473   9.326  16.857  0.00  0.00    +0.000 HD
ENDBRANCH  14  18
ENDBRANCH  13  14
ENDBRANCH   1  13
TORSDOF 3
ENDMDL
MODEL 7
REMARK VINA RESULT:      -6.7      2.435      3.063
REMARK  Name = 
REMARK  4 active torsions:
REMARK  status: ('A' for Active; 'I' for Inactive)
REMARK    1  A    between atoms: C_1  and  C_2
REMARK    2  A    between atoms: N_4  and  C_5
REMARK    3  A    between atoms: C_5  and  C_6
REMARK    4  A    between atoms: C_6  and  C_7
REMARK                            x       y       z     vdW  Elec       q    Type
REMARK                         _______ _______ _______ _____ _____    ______ ____
ROOT
ATOM      1  C   UNL     1       5.434   4.448  16.627  0.00  0.00    +0.000 C 
ATOM      2  C   UNL     1       6.719   4.679  17.452  0.00  0.00    +0.000 C 
ATOM      3  O   UNL     1       7.775   5.141  17.049  0.00  0.00    +0.000 OA
ATOM      4  N   UNL     1       6.470   4.251  18.752  0.00  0.00    +0.000 N 
ATOM      5  C   UNL     1       5.170   3.794  18.891  0.00  0.00    +0.000 A 
ATOM      6  C   UNL     1       4.576   3.292  20.031  0.00  0.00    +0.000 A 
ATOM      7  C   UNL     1       3.238   2.896  19.940  0.00  0.00    +0.000 A 
ATOM      8  C   UNL     1       2.536   3.044  18.731  0.00  0.00    +0.000 A 
ATOM      9 BR   UNL     1       0.726   2.498  18.632  0.00  0.00    +0.000 Br
ATOM     10  C   UNL     1       3.151   3.573  17.598  0.00  0.00    +0.000 A 
ATOM     11  C   UNL     1       4.493   3.915  17.678  0.00  0.00    +0.000 A 
ATOM     12  H   UNL     1       7.163   4.288  19.482  0.00  0.00    +0.000 HD
ENDROOT
BRANCH   1  13
ATOM     13  C   UNL     1       5.746   3.472  15.485  0.00  0.00    +0.000 C 
BRANCH  13  14
ATOM     14  C   UNL     1       6.107   4.171  14.180  0.00  0.00    +0.000 C 
BRANCH  14  18
ATOM     15  C   UNL     1       4.112   3.123  11.151  0.00  0.00    +0.000 C 
ATOM     16  C   UNL     1       5.312   3.231  12.048  0.00  0.00    +0.000 C 
ATOM     17  O   UNL     1       6.375   2.671  11.805  0.00  0.00    +0.000 OA
ATOM     18  N   UNL     1       5.088   4.006  13.167  0.00  0.00    +0.000 N 
ATOM     19  H   UNL     1       4.194   4.469  13.286  0.00  0.00    +0.000 HD
ENDBRANCH  14  18
ENDBRANCH  13  14
ENDBRANCH   1  13
TORSDOF 3
ENDMDL
MODEL 8
REMARK VINA RESULT:      -6.7      3.479      5.731
REMARK  Name = 
REMARK  4 active torsions:
REMARK  status: ('A' for Active; 'I' for Inactive)
REMARK    1  A    between atoms: C_1  and  C_2
REMARK    2  A    between atoms: N_4  and  C_5
REMARK    3  A    between atoms: C_5  and  C_6
REMARK    4  A    between atoms: C_6  and  C_7
REMARK                            x       y       z     vdW  Elec       q    Type
REMARK                         _______ _______ _______ _____ _____    ______ ____
ROOT
ATOM      1  C   UNL     1       3.793   5.346  17.154  0.00  0.00    +0.000 C 
ATOM      2  C   UNL     1       3.878   3.809  17.284  0.00  0.00    +0.000 C 
ATOM      3  O   UNL     1       2.972   3.008  17.116  0.00  0.00    +0.000 OA
ATOM      4  N   UNL     1       5.183   3.487  17.643  0.00  0.00    +0.000 N 
ATOM      5  C   UNL     1       5.973   4.620  17.739  0.00  0.00    +0.000 A 
ATOM      6  C   UNL     1       7.310   4.682  18.077  0.00  0.00    +0.000 A 
ATOM      7  C   UNL     1       7.910   5.945  18.102  0.00  0.00    +0.000 A 
ATOM      8  C   UNL     1       7.168   7.088  17.759  0.00  0.00    +0.000 A 
ATOM      9 BR   UNL     1       8.003   8.787  17.802  0.00  0.00    +0.000 Br
ATOM     10  C   UNL     1       5.824   6.998  17.400  0.00  0.00    +0.000 A 
ATOM     11  C   UNL     1       5.220   5.751  17.430  0.00  0.00    +0.000 A 
ATOM     12  H   UNL     1       5.489   2.539  17.801  0.00  0.00    +0.000 HD
ENDROOT
BRANCH   1  13
ATOM     13  C   UNL     1       2.766   5.872  18.166  0.00  0.00    +0.000 C 
BRANCH  13  14
ATOM     14  C   UNL     1       3.216   5.715  19.614  0.00  0.00    +0.000 C 
BRANCH  14  18
ATOM     15  C   UNL     1       1.582   2.904  21.531  0.00  0.00    +0.000 C 
ATOM     16  C   UNL     1       2.604   3.570  20.657  0.00  0.00    +0.000 C 
ATOM     17  O   UNL     1       3.603   2.991  20.243  0.00  0.00    +0.000 OA
ATOM     18  N   UNL     1       2.312   4.891  20.385  0.00  0.00    +0.000 N 
ATOM     19  H   UNL     1       1.450   5.296  20.732  0.00  0.00    +0.000 HD
ENDBRANCH  14  18
ENDBRANCH  13  14
ENDBRANCH   1  13
TORSDOF 3
ENDMDL
MODEL 9
REMARK VINA RESULT:      -6.6      1.554      1.744
REMARK  Name = 
REMARK  4 active torsions:
REMARK  status: ('A' for Active; 'I' for Inactive)
REMARK    1  A    between atoms: C_1  and  C_2
REMARK    2  A    between atoms: N_4  and  C_5
REMARK    3  A    between atoms: C_5  and  C_6
REMARK    4  A    between atoms: C_6  and  C_7
REMARK                            x       y       z     vdW  Elec       q    Type
REMARK                         _______ _______ _______ _____ _____    ______ ____
ROOT
ATOM      1  C   UNL     1       4.730   5.134  16.335  0.00  0.00    +0.000 C 
ATOM      2  C   UNL     1       5.197   6.551  16.736  0.00  0.00    +0.000 C 
ATOM      3  O   UNL     1       6.042   7.230  16.174  0.00  0.00    +0.000 OA
ATOM      4  N   UNL     1       4.489   6.923  17.873  0.00  0.00    +0.000 N 
ATOM      5  C   UNL     1       3.593   5.938  18.254  0.00  0.00    +0.000 A 
ATOM      6  C   UNL     1       2.732   5.960  19.333  0.00  0.00    +0.000 A 
ATOM      7  C   UNL     1       1.904   4.849  19.520  0.00  0.00    +0.000 A 
ATOM      8  C   UNL     1       1.943   3.777  18.612  0.00  0.00    +0.000 A 
ATOM      9 BR   UNL     1       0.813   2.282  18.887  0.00  0.00    +0.000 Br
ATOM     10  C   UNL     1       2.805   3.786  17.517  0.00  0.00    +0.000 A 
ATOM     11  C   UNL     1       3.662   4.866  17.366  0.00  0.00    +0.000 A 
ATOM     12  H   UNL     1       4.624   7.808  18.337  0.00  0.00    +0.000 HD
ENDROOT
BRANCH   1  13
ATOM     13  C   UNL     1       5.932   4.182  16.389  0.00  0.00    +0.000 C 
BRANCH  13  14
ATOM     14  C   UNL     1       6.717   4.132  15.084  0.00  0.00    +0.000 C 
BRANCH  14  18
ATOM     15  C   UNL     1       5.510   2.781  11.772  0.00  0.00    +0.000 C 
ATOM     16  C   UNL     1       6.318   3.635  12.706  0.00  0.00    +0.000 C 
ATOM     17  O   UNL     1       7.184   4.412  12.315  0.00  0.00    +0.000 OA
ATOM     18  N   UNL     1       5.997   3.445  14.035  0.00  0.00    +0.000 N 
ATOM     19  H   UNL     1       5.246   2.813  14.283  0.00  0.00    +0.000 HD
ENDBRANCH  14  18
ENDBRANCH  13  14
ENDBRANCH   1  13
TORSDOF 3
ENDMDL
