MODEL 1
REMARK VINA RESULT:      -6.7      0.000      0.000
REMARK  Name = 
REMARK  5 active torsions:
REMARK  status: ('A' for Active; 'I' for Inactive)
REMARK    1  A    between atoms: C_1  and  N_2
REMARK    2  A    between atoms: C_3  and  C_4
REMARK    3  A    between atoms: C_4  and  C_6
REMARK    4  A    between atoms: C_12  and  N_13
REMARK    5  A    between atoms: C_14  and  C_16
REMARK                            x       y       z     vdW  Elec       q    Type
REMARK                         _______ _______ _______ _____ _____    ______ ____
ROOT
ATOM      1  C   UNL     1      -1.458  10.907  23.240  0.00  0.00    +0.000 C 
ATOM      2  N   UNL     1      -2.295  11.786  22.390  0.00  0.00    +0.000 N 
ATOM      3  C   UNL     1      -1.590  12.547  21.382  0.00  0.00    +0.000 C 
ATOM      4  C   UNL     1      -1.052  13.739  21.751  0.00  0.00    +0.000 C 
ATOM      5  C   UNL     1      -1.380  14.407  23.054  0.00  0.00    +0.000 A 
ATOM      6  C   UNL     1      -0.634  15.486  23.559  0.00  0.00    +0.000 A 
ATOM      7  C   UNL     1      -1.002  16.131  24.750  0.00  0.00    +0.000 A 
ATOM      8  C   UNL     1      -2.114  15.707  25.475  0.00  0.00    +0.000 A 
ATOM      9  C   UNL     1      -2.860  14.635  25.014  0.00  0.00    +0.000 A 
ATOM     10  C   UNL     1      -2.487  14.018  23.817  0.00  0.00    +0.000 A 
ATOM     11  S   UNL     1      -3.465  12.703  23.209  0.00  0.00    +0.000 S 
ATOM     12  O   UNL     1      -4.378  13.302  22.261  0.00  0.00    +0.000 OA
ATOM     13  O   UNL     1      -3.943  11.933  24.339  0.00  0.00    +0.000 OA
ENDROOT
BRANCH   4  14
ATOM     14  N   UNL     1      -0.245  14.471  20.896  0.00  0.00    +0.000 N 
ATOM     15  C   UNL     1       1.136  14.275  20.814  0.00  0.00    +0.000 C 
ATOM     16  O   UNL     1       1.764  13.540  21.563  0.00  0.00    +0.000 OA
ATOM     17  H   UNL     1      -0.642  15.298  20.486  0.00  0.00    +0.000 HD
BRANCH  15  18
ATOM     18  C   UNL     1       1.821  15.117  19.781  0.00  0.00    +0.000 A 
ATOM     19  C   UNL     1       1.834  16.515  19.953  0.00  0.00    +0.000 A 
ATOM     20  C   UNL     1       2.340  17.353  18.958  0.00  0.00    +0.000 A 
ATOM     21  C   UNL     1       2.864  16.807  17.793  0.00  0.00    +0.000 A 
ATOM     22  C   UNL     1       2.916  15.421  17.638  0.00  0.00    +0.000 A 
ATOM     23  C   UNL     1       2.403  14.569  18.631  0.00  0.00    +0.000 A 
ATOM     24 BR   UNL     1       2.526  12.706  18.285  0.00  0.00    +0.000 Br
ENDBRANCH  15  18
ENDBRANCH   4  14
BRANCH   3  25
ATOM     25  C   UNL     1      -1.595  11.999  19.962  0.00  0.00    +0.000 C 
ATOM     26  O   UNL     1      -2.411  12.319  19.103  0.00  0.00    +0.000 OA
BRANCH  25  27
ATOM     27  C   UNL     1      -0.591  10.960  19.602  0.00  0.00    +0.000 A 
ATOM     28  C   UNL     1       0.305  10.450  20.548  0.00  0.00    +0.000 A 
ATOM     29  C   UNL     1       1.305   9.555  20.178  0.00  0.00    +0.000 A 
ATOM     30  C   UNL     1       1.360   9.092  18.868  0.00  0.00    +0.000 A 
ATOM     31  C   UNL     1       0.404   9.509  17.941  0.00  0.00    +0.000 A 
ATOM     32  C   UNL     1      -0.572  10.444  18.303  0.00  0.00    +0.000 A 
ENDBRANCH  25  27
ENDBRANCH   3  25
TORSDOF 4
ENDMDL
MODEL 2
REMARK VINA RESULT:      -6.6      2.884      5.745
REMARK  Name = 
REMARK  5 active torsions:
REMARK  status: ('A' for Active; 'I' for Inactive)
REMARK    1  A    between atoms: C_1  and  N_2
REMARK    2  A    between atoms: C_3  and  C_4
REMARK    3  A    between atoms: C_4  and  C_6
REMARK    4  A    between atoms: C_12  and  N_13
REMARK    5  A    between atoms: C_14  and  C_16
REMARK                            x       y       z     vdW  Elec       q    Type
REMARK                         _______ _______ _______ _____ _____    ______ ____
ROOT
ATOM      1  C   UNL     1      -1.292  16.603  21.951  0.00  0.00    +0.000 C 
ATOM      2  N   UNL     1      -0.754  15.222  21.936  0.00  0.00    +0.000 N 
ATOM      3  C   UNL     1      -1.003  14.461  20.731  0.00  0.00    +0.000 C 
ATOM      4  C   UNL     1      -2.184  13.796  20.636  0.00  0.00    +0.000 C 
ATOM      5  C   UNL     1      -3.102  13.604  21.807  0.00  0.00    +0.000 A 
ATOM      6  C   UNL     1      -4.429  13.164  21.662  0.00  0.00    +0.000 A 
ATOM      7  C   UNL     1      -5.246  12.933  22.780  0.00  0.00    +0.000 A 
ATOM      8  C   UNL     1      -4.764  13.150  24.070  0.00  0.00    +0.000 A 
ATOM      9  C   UNL     1      -3.465  13.600  24.246  0.00  0.00    +0.000 A 
ATOM     10  C   UNL     1      -2.664  13.806  23.120  0.00  0.00    +0.000 A 
ATOM     11  S   UNL     1      -1.009  14.318  23.350  0.00  0.00    +0.000 S 
ATOM     12  O   UNL     1      -0.218  13.108  23.314  0.00  0.00    +0.000 OA
ATOM     13  O   UNL     1      -0.966  15.219  24.484  0.00  0.00    +0.000 OA
ENDROOT
BRANCH   4  14
ATOM     14  N   UNL     1      -2.568  13.156  19.468  0.00  0.00    +0.000 N 
ATOM     15  C   UNL     1      -2.316  11.802  19.235  0.00  0.00    +0.000 C 
ATOM     16  O   UNL     1      -1.639  11.100  19.973  0.00  0.00    +0.000 OA
ATOM     17  H   UNL     1      -2.844  13.737  18.696  0.00  0.00    +0.000 HD
BRANCH  15  18
ATOM     18  C   UNL     1      -2.869  11.282  17.944  0.00  0.00    +0.000 A 
ATOM     19  C   UNL     1      -2.001  10.608  17.063  0.00  0.00    +0.000 A 
ATOM     20  C   UNL     1      -2.431  10.221  15.792  0.00  0.00    +0.000 A 
ATOM     21  C   UNL     1      -3.738  10.477  15.396  0.00  0.00    +0.000 A 
ATOM     22  C   UNL     1      -4.626  11.085  16.283  0.00  0.00    +0.000 A 
ATOM     23  C   UNL     1      -4.202  11.484  17.561  0.00  0.00    +0.000 A 
ATOM     24 BR   UNL     1      -5.510  12.311  18.661  0.00  0.00    +0.000 Br
ENDBRANCH  15  18
ENDBRANCH   4  14
BRANCH   3  25
ATOM     25  C   UNL     1       0.123  14.382  19.709  0.00  0.00    +0.000 C 
ATOM     26  O   UNL     1       0.819  13.388  19.527  0.00  0.00    +0.000 OA
BRANCH  25  27
ATOM     27  C   UNL     1       0.451  15.603  18.923  0.00  0.00    +0.000 A 
ATOM     28  C   UNL     1       1.772  15.930  18.597  0.00  0.00    +0.000 A 
ATOM     29  C   UNL     1       2.076  17.124  17.951  0.00  0.00    +0.000 A 
ATOM     30  C   UNL     1       1.046  17.964  17.544  0.00  0.00    +0.000 A 
ATOM     31  C   UNL     1      -0.282  17.596  17.765  0.00  0.00    +0.000 A 
ATOM     32  C   UNL     1      -0.584  16.417  18.455  0.00  0.00    +0.000 A 
ENDBRANCH  25  27
ENDBRANCH   3  25
TORSDOF 4
ENDMDL
MODEL 3
REMARK VINA RESULT:      -6.5      2.672      6.041
REMARK  Name = 
REMARK  5 active torsions:
REMARK  status: ('A' for Active; 'I' for Inactive)
REMARK    1  A    between atoms: C_1  and  N_2
REMARK    2  A    between atoms: C_3  and  C_4
REMARK    3  A    between atoms: C_4  and  C_6
REMARK    4  A    between atoms: C_12  and  N_13
REMARK    5  A    between atoms: C_14  and  C_16
REMARK                            x       y       z     vdW  Elec       q    Type
REMARK                         _______ _______ _______ _____ _____    ______ ____
ROOT
ATOM      1  C   UNL     1      -0.367  15.396  19.136  0.00  0.00    +0.000 C 
ATOM      2  N   UNL     1       0.762  15.104  20.050  0.00  0.00    +0.000 N 
ATOM      3  C   UNL     1       1.422  13.833  19.852  0.00  0.00    +0.000 C 
ATOM      4  C   UNL     1       0.894  12.743  20.467  0.00  0.00    +0.000 C 
ATOM      5  C   UNL     1      -0.160  12.844  21.531  0.00  0.00    +0.000 A 
ATOM      6  C   UNL     1      -0.897  11.732  21.972  0.00  0.00    +0.000 A 
ATOM      7  C   UNL     1      -1.832  11.845  23.013  0.00  0.00    +0.000 A 
ATOM      8  C   UNL     1      -2.066  13.073  23.629  0.00  0.00    +0.000 A 
ATOM      9  C   UNL     1      -1.368  14.193  23.205  0.00  0.00    +0.000 A 
ATOM     10  C   UNL     1      -0.429  14.054  22.180  0.00  0.00    +0.000 A 
ATOM     11  S   UNL     1       0.491  15.457  21.689  0.00  0.00    +0.000 S 
ATOM     12  O   UNL     1       1.735  15.385  22.423  0.00  0.00    +0.000 OA
ATOM     13  O   UNL     1      -0.372  16.618  21.771  0.00  0.00    +0.000 OA
ENDROOT
BRANCH   4  14
ATOM     14  N   UNL     1       1.374  11.466  20.226  0.00  0.00    +0.000 N 
ATOM     15  C   UNL     1       0.831  10.631  19.247  0.00  0.00    +0.000 C 
ATOM     16  O   UNL     1      -0.177  10.898  18.607  0.00  0.00    +0.000 OA
ATOM     17  H   UNL     1       1.984  11.067  20.918  0.00  0.00    +0.000 HD
BRANCH  15  18
ATOM     18  C   UNL     1       1.532   9.316  19.095  0.00  0.00    +0.000 A 
ATOM     19  C   UNL     1       2.170   9.030  17.873  0.00  0.00    +0.000 A 
ATOM     20  C   UNL     1       2.722   7.770  17.630  0.00  0.00    +0.000 A 
ATOM     21  C   UNL     1       2.668   6.791  18.614  0.00  0.00    +0.000 A 
ATOM     22  C   UNL     1       2.097   7.082  19.854  0.00  0.00    +0.000 A 
ATOM     23  C   UNL     1       1.533   8.344  20.104  0.00  0.00    +0.000 A 
ATOM     24 BR   UNL     1       0.778   8.600  21.828  0.00  0.00    +0.000 Br
ENDBRANCH  15  18
ENDBRANCH   4  14
BRANCH   3  25
ATOM     25  C   UNL     1       2.717  13.836  19.051  0.00  0.00    +0.000 C 
ATOM     26  O   UNL     1       2.987  13.020  18.174  0.00  0.00    +0.000 OA
BRANCH  25  27
ATOM     27  C   UNL     1       3.756  14.846  19.391  0.00  0.00    +0.000 A 
ATOM     28  C   UNL     1       4.467  14.788  20.596  0.00  0.00    +0.000 A 
ATOM     29  C   UNL     1       5.362  15.792  20.949  0.00  0.00    +0.000 A 
ATOM     30  C   UNL     1       5.622  16.824  20.054  0.00  0.00    +0.000 A 
ATOM     31  C   UNL     1       5.003  16.834  18.804  0.00  0.00    +0.000 A 
ATOM     32  C   UNL     1       4.068  15.848  18.469  0.00  0.00    +0.000 A 
ENDBRANCH  25  27
ENDBRANCH   3  25
TORSDOF 4
ENDMDL
MODEL 4
REMARK VINA RESULT:      -6.5      6.665     10.074
REMARK  Name = 
REMARK  5 active torsions:
REMARK  status: ('A' for Active; 'I' for Inactive)
REMARK    1  A    between atoms: C_1  and  N_2
REMARK    2  A    between atoms: C_3  and  C_4
REMARK    3  A    between atoms: C_4  and  C_6
REMARK    4  A    between atoms: C_12  and  N_13
REMARK    5  A    between atoms: C_14  and  C_16
REMARK                            x       y       z     vdW  Elec       q    Type
REMARK                         _______ _______ _______ _____ _____    ______ ____
ROOT
ATOM      1  C   UNL     1       5.297   4.062  15.712  0.00  0.00    +0.000 C 
ATOM      2  N   UNL     1       5.021   4.232  17.158  0.00  0.00    +0.000 N 
ATOM      3  C   UNL     1       3.877   5.053  17.489  0.00  0.00    +0.000 C 
ATOM      4  C   UNL     1       4.063   6.397  17.562  0.00  0.00    +0.000 C 
ATOM      5  C   UNL     1       5.425   7.027  17.578  0.00  0.00    +0.000 A 
ATOM      6  C   UNL     1       5.622   8.404  17.380  0.00  0.00    +0.000 A 
ATOM      7  C   UNL     1       6.902   8.976  17.463  0.00  0.00    +0.000 A 
ATOM      8  C   UNL     1       8.018   8.185  17.729  0.00  0.00    +0.000 A 
ATOM      9  C   UNL     1       7.859   6.821  17.911  0.00  0.00    +0.000 A 
ATOM     10  C   UNL     1       6.575   6.276  17.843  0.00  0.00    +0.000 A 
ATOM     11  S   UNL     1       6.373   4.563  18.131  0.00  0.00    +0.000 S 
ATOM     12  O   UNL     1       6.018   4.442  19.528  0.00  0.00    +0.000 OA
ATOM     13  O   UNL     1       7.518   3.871  17.576  0.00  0.00    +0.000 OA
ENDROOT
BRANCH   4  14
ATOM     14  N   UNL     1       3.002   7.271  17.737  0.00  0.00    +0.000 N 
ATOM     15  C   UNL     1       2.482   7.581  18.996  0.00  0.00    +0.000 C 
ATOM     16  O   UNL     1       2.828   7.026  20.029  0.00  0.00    +0.000 OA
ATOM     17  H   UNL     1       2.470   7.516  16.920  0.00  0.00    +0.000 HD
BRANCH  15  18
ATOM     18  C   UNL     1       1.382   8.597  18.979  0.00  0.00    +0.000 A 
ATOM     19  C   UNL     1       0.869   9.014  17.735  0.00  0.00    +0.000 A 
ATOM     20  C   UNL     1      -0.060  10.053  17.656  0.00  0.00    +0.000 A 
ATOM     21  C   UNL     1      -0.510  10.669  18.818  0.00  0.00    +0.000 A 
ATOM     22  C   UNL     1      -0.060  10.222  20.060  0.00  0.00    +0.000 A 
ATOM     23  C   UNL     1       0.881   9.182  20.149  0.00  0.00    +0.000 A 
ATOM     24 BR   UNL     1       1.417   8.682  21.901  0.00  0.00    +0.000 Br
ENDBRANCH  15  18
ENDBRANCH   4  14
BRANCH   3  25
ATOM     25  C   UNL     1       2.578   4.336  17.830  0.00  0.00    +0.000 C 
ATOM     26  O   UNL     1       1.617   4.254  17.071  0.00  0.00    +0.000 OA
BRANCH  25  27
ATOM     27  C   UNL     1       2.429   3.754  19.192  0.00  0.00    +0.000 A 
ATOM     28  C   UNL     1       3.422   2.943  19.753  0.00  0.00    +0.000 A 
ATOM     29  C   UNL     1       3.229   2.322  20.983  0.00  0.00    +0.000 A 
ATOM     30  C   UNL     1       2.070   2.579  21.707  0.00  0.00    +0.000 A 
ATOM     31  C   UNL     1       1.121   3.472  21.207  0.00  0.00    +0.000 A 
ATOM     32  C   UNL     1       1.296   4.061  19.950  0.00  0.00    +0.000 A 
ENDBRANCH  25  27
ENDBRANCH   3  25
TORSDOF 4
ENDMDL
MODEL 5
REMARK VINA RESULT:      -6.5      3.206      5.770
REMARK  Name = 
REMARK  5 active torsions:
REMARK  status: ('A' for Active; 'I' for Inactive)
REMARK    1  A    between atoms: C_1  and  N_2
REMARK    2  A    between atoms: C_3  and  C_4
REMARK    3  A    between atoms: C_4  and  C_6
REMARK    4  A    between atoms: C_12  and  N_13
REMARK    5  A    between atoms: C_14  and  C_16
REMARK                            x       y       z     vdW  Elec       q    Type
REMARK                         _______ _______ _______ _____ _____    ______ ____
ROOT
ATOM      1  C   UNL     1       2.232  13.273  17.826  0.00  0.00    +0.000 C 
ATOM      2  N   UNL     1       1.620  12.595  18.992  0.00  0.00    +0.000 N 
ATOM      3  C   UNL     1       0.223  12.245  18.857  0.00  0.00    +0.000 C 
ATOM      4  C   UNL     1      -0.700  13.192  19.166  0.00  0.00    +0.000 C 
ATOM      5  C   UNL     1      -0.348  14.465  19.880  0.00  0.00    +0.000 A 
ATOM      6  C   UNL     1      -1.230  15.555  19.960  0.00  0.00    +0.000 A 
ATOM      7  C   UNL     1      -0.897  16.709  20.687  0.00  0.00    +0.000 A 
ATOM      8  C   UNL     1       0.330  16.809  21.340  0.00  0.00    +0.000 A 
ATOM      9  C   UNL     1       1.230  15.758  21.265  0.00  0.00    +0.000 A 
ATOM     10  C   UNL     1       0.871  14.612  20.551  0.00  0.00    +0.000 A 
ATOM     11  S   UNL     1       1.986  13.266  20.509  0.00  0.00    +0.000 S 
ATOM     12  O   UNL     1       1.558  12.372  21.562  0.00  0.00    +0.000 OA
ATOM     13  O   UNL     1       3.334  13.794  20.463  0.00  0.00    +0.000 OA
ENDROOT
BRANCH   4  14
ATOM     14  N   UNL     1      -2.052  12.996  18.937  0.00  0.00    +0.000 N 
ATOM     15  C   UNL     1      -2.920  12.517  19.921  0.00  0.00    +0.000 C 
ATOM     16  O   UNL     1      -2.551  12.120  21.018  0.00  0.00    +0.000 OA
ATOM     17  H   UNL     1      -2.361  13.000  17.980  0.00  0.00    +0.000 HD
BRANCH  15  18
ATOM     18  C   UNL     1      -4.355  12.437  19.498  0.00  0.00    +0.000 A 
ATOM     19  C   UNL     1      -4.714  11.501  18.509  0.00  0.00    +0.000 A 
ATOM     20  C   UNL     1      -6.006  11.476  17.983  0.00  0.00    +0.000 A 
ATOM     21  C   UNL     1      -6.964  12.365  18.456  0.00  0.00    +0.000 A 
ATOM     22  C   UNL     1      -6.639  13.254  19.482  0.00  0.00    +0.000 A 
ATOM     23  C   UNL     1      -5.339  13.291  20.012  0.00  0.00    +0.000 A 
ATOM     24 BR   UNL     1      -5.031  14.558  21.394  0.00  0.00    +0.000 Br
ENDBRANCH  15  18
ENDBRANCH   4  14
BRANCH   3  25
ATOM     25  C   UNL     1      -0.103  10.807  18.476  0.00  0.00    +0.000 C 
ATOM     26  O   UNL     1      -0.935  10.490  17.630  0.00  0.00    +0.000 OA
BRANCH  25  27
ATOM     27  C   UNL     1       0.575   9.708  19.216  0.00  0.00    +0.000 A 
ATOM     28  C   UNL     1       1.602   8.957  18.632  0.00  0.00    +0.000 A 
ATOM     29  C   UNL     1       2.159   7.868  19.295  0.00  0.00    +0.000 A 
ATOM     30  C   UNL     1       1.754   7.575  20.592  0.00  0.00    +0.000 A 
ATOM     31  C   UNL     1       0.810   8.384  21.227  0.00  0.00    +0.000 A 
ATOM     32  C   UNL     1       0.217   9.450  20.542  0.00  0.00    +0.000 A 
ENDBRANCH  25  27
ENDBRANCH   3  25
TORSDOF 4
ENDMDL
MODEL 6
REMARK VINA RESULT:      -6.4      2.470      6.006
REMARK  Name = 
REMARK  5 active torsions:
REMARK  status: ('A' for Active; 'I' for Inactive)
REMARK    1  A    between atoms: C_1  and  N_2
REMARK    2  A    between atoms: C_3  and  C_4
REMARK    3  A    between atoms: C_4  and  C_6
REMARK    4  A    between atoms: C_12  and  N_13
REMARK    5  A    between atoms: C_14  and  C_16
REMARK                            x       y       z     vdW  Elec       q    Type
REMARK                         _______ _______ _______ _____ _____    ______ ____
ROOT
ATOM      1  C   UNL     1       0.814  15.871  22.739  0.00  0.00    +0.000 C 
ATOM      2  N   UNL     1      -0.110  15.255  21.759  0.00  0.00    +0.000 N 
ATOM      3  C   UNL     1       0.112  13.854  21.477  0.00  0.00    +0.000 C 
ATOM      4  C   UNL     1       1.027  13.537  20.524  0.00  0.00    +0.000 C 
ATOM      5  C   UNL     1       1.607  14.556  19.587  0.00  0.00    +0.000 A 
ATOM      6  C   UNL     1       2.737  14.296  18.793  0.00  0.00    +0.000 A 
ATOM      7  C   UNL     1       3.219  15.248  17.880  0.00  0.00    +0.000 A 
ATOM      8  C   UNL     1       2.597  16.487  17.748  0.00  0.00    +0.000 A 
ATOM      9  C   UNL     1       1.490  16.781  18.530  0.00  0.00    +0.000 A 
ATOM     10  C   UNL     1       1.015  15.814  19.418  0.00  0.00    +0.000 A 
ATOM     11  S   UNL     1      -0.414  16.168  20.360  0.00  0.00    +0.000 S 
ATOM     12  O   UNL     1      -1.518  15.593  19.624  0.00  0.00    +0.000 OA
ATOM     13  O   UNL     1      -0.388  17.572  20.714  0.00  0.00    +0.000 OA
ENDROOT
BRANCH   4  14
ATOM     14  N   UNL     1       1.405  12.226  20.283  0.00  0.00    +0.000 N 
ATOM     15  C   UNL     1       0.758  11.417  19.346  0.00  0.00    +0.000 C 
ATOM     16  O   UNL     1      -0.260  11.745  18.752  0.00  0.00    +0.000 OA
ATOM     17  H   UNL     1       2.021  11.797  20.950  0.00  0.00    +0.000 HD
BRANCH  15  18
ATOM     18  C   UNL     1       1.359  10.054  19.184  0.00  0.00    +0.000 A 
ATOM     19  C   UNL     1       2.065   9.766  18.000  0.00  0.00    +0.000 A 
ATOM     20  C   UNL     1       2.529   8.476  17.739  0.00  0.00    +0.000 A 
ATOM     21  C   UNL     1       2.319   7.464  18.668  0.00  0.00    +0.000 A 
ATOM     22  C   UNL     1       1.678   7.750  19.874  0.00  0.00    +0.000 A 
ATOM     23  C   UNL     1       1.201   9.044  20.142  0.00  0.00    +0.000 A 
ATOM     24 BR   UNL     1       0.337   9.291  21.815  0.00  0.00    +0.000 Br
ENDBRANCH  15  18
ENDBRANCH   4  14
BRANCH   3  25
ATOM     25  C   UNL     1      -0.773  12.846  22.199  0.00  0.00    +0.000 C 
ATOM     26  O   UNL     1      -0.357  12.014  23.000  0.00  0.00    +0.000 OA
BRANCH  25  27
ATOM     27  C   UNL     1      -2.225  12.817  21.871  0.00  0.00    +0.000 A 
ATOM     28  C   UNL     1      -2.674  12.641  20.557  0.00  0.00    +0.000 A 
ATOM     29  C   UNL     1      -4.028  12.717  20.247  0.00  0.00    +0.000 A 
ATOM     30  C   UNL     1      -4.957  12.882  21.268  0.00  0.00    +0.000 A 
ATOM     31  C   UNL     1      -4.529  12.948  22.595  0.00  0.00    +0.000 A 
ATOM     32  C   UNL     1      -3.164  12.918  22.900  0.00  0.00    +0.000 A 
ENDBRANCH  25  27
ENDBRANCH   3  25
TORSDOF 4
ENDMDL
MODEL 7
REMARK VINA RESULT:      -6.4      1.138      1.589
REMARK  Name = 
REMARK  5 active torsions:
REMARK  status: ('A' for Active; 'I' for Inactive)
REMARK    1  A    between atoms: C_1  and  N_2
REMARK    2  A    between atoms: C_3  and  C_4
REMARK    3  A    between atoms: C_4  and  C_6
REMARK    4  A    between atoms: C_12  and  N_13
REMARK    5  A    between atoms: C_14  and  C_16
REMARK                            x       y       z     vdW  Elec       q    Type
REMARK                         _______ _______ _______ _____ _____    ______ ____
ROOT
ATOM      1  C   UNL     1      -1.399  10.840  23.288  0.00  0.00    +0.000 C 
ATOM      2  N   UNL     1      -2.179  11.699  22.367  0.00  0.00    +0.000 N 
ATOM      3  C   UNL     1      -1.413  12.414  21.371  0.00  0.00    +0.000 C 
ATOM      4  C   UNL     1      -0.876  13.612  21.724  0.00  0.00    +0.000 C 
ATOM      5  C   UNL     1      -1.259  14.330  22.985  0.00  0.00    +0.000 A 
ATOM      6  C   UNL     1      -0.523  15.416  23.488  0.00  0.00    +0.000 A 
ATOM      7  C   UNL     1      -0.940  16.109  24.636  0.00  0.00    +0.000 A 
ATOM      8  C   UNL     1      -2.093  15.725  25.318  0.00  0.00    +0.000 A 
ATOM      9  C   UNL     1      -2.832  14.647  24.857  0.00  0.00    +0.000 A 
ATOM     10  C   UNL     1      -2.409  13.984  23.703  0.00  0.00    +0.000 A 
ATOM     11  S   UNL     1      -3.375  12.661  23.093  0.00  0.00    +0.000 S 
ATOM     12  O   UNL     1      -4.230  13.238  22.079  0.00  0.00    +0.000 OA
ATOM     13  O   UNL     1      -3.921  11.938  24.223  0.00  0.00    +0.000 OA
ENDROOT
BRANCH   4  14
ATOM     14  N   UNL     1      -0.016  14.301  20.885  0.00  0.00    +0.000 N 
ATOM     15  C   UNL     1       1.353  14.028  20.822  0.00  0.00    +0.000 C 
ATOM     16  O   UNL     1       1.927  13.253  21.575  0.00  0.00    +0.000 OA
ATOM     17  H   UNL     1      -0.358  15.153  20.476  0.00  0.00    +0.000 HD
BRANCH  15  18
ATOM     18  C   UNL     1       2.100  14.835  19.806  0.00  0.00    +0.000 A 
ATOM     19  C   UNL     1       2.382  14.250  18.556  0.00  0.00    +0.000 A 
ATOM     20  C   UNL     1       3.188  14.906  17.624  0.00  0.00    +0.000 A 
ATOM     21  C   UNL     1       3.700  16.164  17.916  0.00  0.00    +0.000 A 
ATOM     22  C   UNL     1       3.376  16.783  19.124  0.00  0.00    +0.000 A 
ATOM     23  C   UNL     1       2.571  16.128  20.071  0.00  0.00    +0.000 A 
ATOM     24 BR   UNL     1       2.219  17.079  21.677  0.00  0.00    +0.000 Br
ENDBRANCH  15  18
ENDBRANCH   4  14
BRANCH   3  25
ATOM     25  C   UNL     1      -1.354  11.816  19.971  0.00  0.00    +0.000 C 
ATOM     26  O   UNL     1      -2.191  12.024  19.098  0.00  0.00    +0.000 OA
BRANCH  25  27
ATOM     27  C   UNL     1      -0.253  10.865  19.655  0.00  0.00    +0.000 A 
ATOM     28  C   UNL     1       0.559  11.036  18.528  0.00  0.00    +0.000 A 
ATOM     29  C   UNL     1       1.518  10.088  18.186  0.00  0.00    +0.000 A 
ATOM     30  C   UNL     1       1.734   8.999  19.023  0.00  0.00    +0.000 A 
ATOM     31  C   UNL     1       1.007   8.876  20.207  0.00  0.00    +0.000 A 
ATOM     32  C   UNL     1       0.012   9.806  20.526  0.00  0.00    +0.000 A 
ENDBRANCH  25  27
ENDBRANCH   3  25
TORSDOF 4
ENDMDL
MODEL 8
REMARK VINA RESULT:      -6.4      3.471      6.284
REMARK  Name = 
REMARK  5 active torsions:
REMARK  status: ('A' for Active; 'I' for Inactive)
REMARK    1  A    between atoms: C_1  and  N_2
REMARK    2  A    between atoms: C_3  and  C_4
REMARK    3  A    between atoms: C_4  and  C_6
REMARK    4  A    between atoms: C_12  and  N_13
REMARK    5  A    between atoms: C_14  and  C_16
REMARK                            x       y       z     vdW  Elec       q    Type
REMARK                         _______ _______ _______ _____ _____    ______ ____
ROOT
ATOM      1  C   UNL     1       0.004  13.720  18.205  0.00  0.00    +0.000 C 
ATOM      2  N   UNL     1       0.136  12.751  19.318  0.00  0.00    +0.000 N 
ATOM      3  C   UNL     1      -1.103  12.240  19.861  0.00  0.00    +0.000 C 
ATOM      4  C   UNL     1      -1.720  12.971  20.826  0.00  0.00    +0.000 C 
ATOM      5  C   UNL     1      -1.052  14.118  21.525  0.00  0.00    +0.000 A 
ATOM      6  C   UNL     1      -1.761  15.038  22.316  0.00  0.00    +0.000 A 
ATOM      7  C   UNL     1      -1.100  16.065  23.008  0.00  0.00    +0.000 A 
ATOM      8  C   UNL     1       0.283  16.210  22.917  0.00  0.00    +0.000 A 
ATOM      9  C   UNL     1       1.010  15.330  22.131  0.00  0.00    +0.000 A 
ATOM     10  C   UNL     1       0.334  14.304  21.465  0.00  0.00    +0.000 A 
ATOM     11  S   UNL     1       1.262  13.162  20.521  0.00  0.00    +0.000 S 
ATOM     12  O   UNL     1       1.490  12.030  21.393  0.00  0.00    +0.000 OA
ATOM     13  O   UNL     1       2.359  13.873  19.898  0.00  0.00    +0.000 OA
ENDROOT
BRANCH   4  14
ATOM     14  N   UNL     1      -2.975  12.634  21.306  0.00  0.00    +0.000 N 
ATOM     15  C   UNL     1      -4.142  13.263  20.866  0.00  0.00    +0.000 C 
ATOM     16  O   UNL     1      -4.152  14.233  20.121  0.00  0.00    +0.000 OA
ATOM     17  H   UNL     1      -3.012  12.072  22.138  0.00  0.00    +0.000 HD
BRANCH  15  18
ATOM     18  C   UNL     1      -5.404  12.710  21.454  0.00  0.00    +0.000 A 
ATOM     19  C   UNL     1      -6.213  11.881  20.654  0.00  0.00    +0.000 A 
ATOM     20  C   UNL     1      -7.462  11.448  21.104  0.00  0.00    +0.000 A 
ATOM     21  C   UNL     1      -7.906  11.815  22.369  0.00  0.00    +0.000 A 
ATOM     22  C   UNL     1      -7.086  12.582  23.198  0.00  0.00    +0.000 A 
ATOM     23  C   UNL     1      -5.831  13.027  22.750  0.00  0.00    +0.000 A 
ATOM     24 BR   UNL     1      -4.825  14.074  23.974  0.00  0.00    +0.000 Br
ENDBRANCH  15  18
ENDBRANCH   4  14
BRANCH   3  25
ATOM     25  C   UNL     1      -1.565  10.871  19.380  0.00  0.00    +0.000 C 
ATOM     26  O   UNL     1      -1.292   9.815  19.942  0.00  0.00    +0.000 OA
BRANCH  25  27
ATOM     27  C   UNL     1      -2.341  10.793  18.112  0.00  0.00    +0.000 A 
ATOM     28  C   UNL     1      -1.881  10.053  17.017  0.00  0.00    +0.000 A 
ATOM     29  C   UNL     1      -2.563  10.069  15.804  0.00  0.00    +0.000 A 
ATOM     30  C   UNL     1      -3.766  10.757  15.703  0.00  0.00    +0.000 A 
ATOM     31  C   UNL     1      -4.292  11.408  16.821  0.00  0.00    +0.000 A 
ATOM     32  C   UNL     1      -3.583  11.429  18.026  0.00  0.00    +0.000 A 
ENDBRANCH  25  27
ENDBRANCH   3  25
TORSDOF 4
ENDMDL
MODEL 9
REMARK VINA RESULT:      -6.3      3.612      7.167
REMARK  Name = 
REMARK  5 active torsions:
REMARK  status: ('A' for Active; 'I' for Inactive)
REMARK    1  A    between atoms: C_1  and  N_2
REMARK    2  A    between atoms: C_3  and  C_4
REMARK    3  A    between atoms: C_4  and  C_6
REMARK    4  A    between atoms: C_12  and  N_13
REMARK    5  A    between atoms: C_14  and  C_16
REMARK                            x       y       z     vdW  Elec       q    Type
REMARK                         _______ _______ _______ _____ _____    ______ ____
ROOT
ATOM      1  C   UNL     1      -1.064  11.145  22.896  0.00  0.00    +0.000 C 
ATOM      2  N   UNL     1      -0.661  12.319  22.087  0.00  0.00    +0.000 N 
ATOM      3  C   UNL     1      -1.741  13.085  21.505  0.00  0.00    +0.000 C 
ATOM      4  C   UNL     1      -2.236  12.672  20.308  0.00  0.00    +0.000 C 
ATOM      5  C   UNL     1      -1.550  11.642  19.459  0.00  0.00    +0.000 A 
ATOM      6  C   UNL     1      -2.182  11.019  18.370  0.00  0.00    +0.000 A 
ATOM      7  C   UNL     1      -1.494  10.105  17.555  0.00  0.00    +0.000 A 
ATOM      8  C   UNL     1      -0.165   9.779  17.817  0.00  0.00    +0.000 A 
ATOM      9  C   UNL     1       0.481  10.363  18.894  0.00  0.00    +0.000 A 
ATOM     10  C   UNL     1      -0.216  11.284  19.681  0.00  0.00    +0.000 A 
ATOM     11  S   UNL     1       0.621  12.061  21.004  0.00  0.00    +0.000 S 
ATOM     12  O   UNL     1       1.089  13.325  20.481  0.00  0.00    +0.000 OA
ATOM     13  O   UNL     1       1.531  11.100  21.593  0.00  0.00    +0.000 OA
ENDROOT
BRANCH   4  14
ATOM     14  N   UNL     1      -3.357  13.258  19.742  0.00  0.00    +0.000 N 
ATOM     15  C   UNL     1      -4.656  12.853  20.055  0.00  0.00    +0.000 C 
ATOM     16  O   UNL     1      -4.917  11.883  20.753  0.00  0.00    +0.000 OA
ATOM     17  H   UNL     1      -3.212  13.838  18.934  0.00  0.00    +0.000 HD
BRANCH  15  18
ATOM     18  C   UNL     1      -5.733  13.654  19.389  0.00  0.00    +0.000 A 
ATOM     19  C   UNL     1      -6.263  14.767  20.071  0.00  0.00    +0.000 A 
ATOM     20  C   UNL     1      -7.356  15.467  19.557  0.00  0.00    +0.000 A 
ATOM     21  C   UNL     1      -7.916  15.083  18.344  0.00  0.00    +0.000 A 
ATOM     22  C   UNL     1      -7.359  14.023  17.627  0.00  0.00    +0.000 A 
ATOM     23  C   UNL     1      -6.263  13.309  18.140  0.00  0.00    +0.000 A 
ATOM     24 BR   UNL     1      -5.614  11.882  17.068  0.00  0.00    +0.000 Br
ENDBRANCH  15  18
ENDBRANCH   4  14
BRANCH   3  25
ATOM     25  C   UNL     1      -2.169  14.353  22.230  0.00  0.00    +0.000 C 
ATOM     26  O   UNL     1      -1.462  15.349  22.353  0.00  0.00    +0.000 OA
BRANCH  25  27
ATOM     27  C   UNL     1      -3.502  14.373  22.893  0.00  0.00    +0.000 A 
ATOM     28  C   UNL     1      -4.004  13.249  23.559  0.00  0.00    +0.000 A 
ATOM     29  C   UNL     1      -5.291  13.245  24.087  0.00  0.00    +0.000 A 
ATOM     30  C   UNL     1      -6.059  14.403  24.031  0.00  0.00    +0.000 A 
ATOM     31  C   UNL     1      -5.528  15.564  23.467  0.00  0.00    +0.000 A 
ATOM     32  C   UNL     1      -4.251  15.552  22.896  0.00  0.00    +0.000 A 
ENDBRANCH  25  27
ENDBRANCH   3  25
TORSDOF 4
ENDMDL
