MODEL 1
REMARK VINA RESULT:      -6.8      0.000      0.000
REMARK  Name = 
REMARK  9 active torsions:
REMARK  status: ('A' for Active; 'I' for Inactive)
REMARK    1  A    between atoms: C_1  and  S_2
REMARK    2  A    between atoms: S_2  and  C_5
REMARK    3  A    between atoms: C_5  and  C_6
REMARK    4  A    between atoms: C_6  and  N_7
REMARK    5  A    between atoms: N_7  and  C_8
REMARK    6  A    between atoms: N_7  and  C_12
REMARK    7  A    between atoms: C_8  and  C_9
REMARK    8  A    between atoms: C_9  and  C_10
REMARK    9  A    between atoms: C_10  and  O_11
REMARK                            x       y       z     vdW  Elec       q    Type
REMARK                         _______ _______ _______ _____ _____    ______ ____
ROOT
ATOM      1  N   UNL     1       3.122   4.725  17.488  0.00  0.00    +0.000 NA
ENDROOT
BRANCH   1   2
ATOM      2  C   UNL     1       3.237   5.628  18.698  0.00  0.00    +0.000 C 
ATOM      3  C   UNL     1       2.451   5.087  19.926  0.00  0.00    +0.000 C 
ATOM      4  C   UNL     1       2.003   6.240  20.806  0.00  0.00    +0.000 C 
ATOM      5  C   UNL     1       1.886   7.321  19.797  0.00  0.00    +0.000 A 
ATOM      6  C   UNL     1       1.236   8.531  20.003  0.00  0.00    +0.000 A 
ATOM      7  C   UNL     1       1.322   9.508  19.018  0.00  0.00    +0.000 A 
ATOM      8  C   UNL     1       2.098   9.277  17.882  0.00  0.00    +0.000 A 
ATOM      9  C   UNL     1       2.770   8.061  17.706  0.00  0.00    +0.000 A 
ATOM     10  C   UNL     1       2.613   7.031  18.628  0.00  0.00    +0.000 A 
ENDBRANCH   1   2
BRANCH   1  11
ATOM     11  C   UNL     1       4.481   4.494  16.910  0.00  0.00    +0.000 C 
BRANCH  11  12
ATOM     12  C   UNL     1       5.682   5.113  17.627  0.00  0.00    +0.000 C 
BRANCH  12  14
ATOM     13  C   UNL     1       6.517   4.126  15.157  0.00  0.00    +0.000 C 
ATOM     14  S   UNL     1       7.124   5.022  16.563  0.00  0.00    +0.000 S 
ATOM     15  O   UNL     1       8.112   4.189  17.221  0.00  0.00    +0.000 OA
ATOM     16  O   UNL     1       7.460   6.359  16.113  0.00  0.00    +0.000 OA
ENDBRANCH  12  14
ENDBRANCH  11  12
ENDBRANCH   1  11
BRANCH   1  17
ATOM     17  C   UNL     1       2.502   3.392  17.769  0.00  0.00    +0.000 C 
BRANCH  17  18
ATOM     18  C   UNL     1       3.417   2.157  17.831  0.00  0.00    +0.000 C 
BRANCH  18  19
ATOM     19  C   UNL     1       3.732   1.715  19.253  0.00  0.00    +0.000 C 
BRANCH  19  20
ATOM     20  O   UNL     1       5.022   2.206  19.625  0.00  0.00    +0.000 OA
ATOM     21  H   UNL     1       5.400   1.592  20.279  0.00  0.00    +0.000 HD
ENDBRANCH  19  20
ENDBRANCH  18  19
ENDBRANCH  17  18
ENDBRANCH   1  17
TORSDOF 8
ENDMDL
MODEL 2
REMARK VINA RESULT:      -6.6      2.498      4.386
REMARK  Name = 
REMARK  9 active torsions:
REMARK  status: ('A' for Active; 'I' for Inactive)
REMARK    1  A    between atoms: C_1  and  S_2
REMARK    2  A    between atoms: S_2  and  C_5
REMARK    3  A    between atoms: C_5  and  C_6
REMARK    4  A    between atoms: C_6  and  N_7
REMARK    5  A    between atoms: N_7  and  C_8
REMARK    6  A    between atoms: N_7  and  C_12
REMARK    7  A    between atoms: C_8  and  C_9
REMARK    8  A    between atoms: C_9  and  C_10
REMARK    9  A    between atoms: C_10  and  O_11
REMARK                            x       y       z     vdW  Elec       q    Type
REMARK                         _______ _______ _______ _____ _____    ______ ____
ROOT
ATOM      1  N   UNL     1       6.010   4.466  18.666  0.00  0.00    +0.000 NA
ENDROOT
BRANCH   1   2
ATOM      2  C   UNL     1       4.524   4.554  18.383  0.00  0.00    +0.000 C 
ATOM      3  C   UNL     1       4.014   6.020  18.307  0.00  0.00    +0.000 C 
ATOM      4  C   UNL     1       2.556   6.087  18.723  0.00  0.00    +0.000 C 
ATOM      5  C   UNL     1       2.485   4.929  19.649  0.00  0.00    +0.000 A 
ATOM      6  C   UNL     1       1.448   4.689  20.541  0.00  0.00    +0.000 A 
ATOM      7  C   UNL     1       1.445   3.494  21.250  0.00  0.00    +0.000 A 
ATOM      8  C   UNL     1       2.440   2.547  21.011  0.00  0.00    +0.000 A 
ATOM      9  C   UNL     1       3.462   2.795  20.086  0.00  0.00    +0.000 A 
ATOM     10  C   UNL     1       3.544   4.026  19.443  0.00  0.00    +0.000 A 
ENDBRANCH   1   2
BRANCH   1  11
ATOM     11  C   UNL     1       6.742   4.197  17.391  0.00  0.00    +0.000 C 
BRANCH  11  12
ATOM     12  C   UNL     1       5.931   3.733  16.180  0.00  0.00    +0.000 C 
BRANCH  12  14
ATOM     13  C   UNL     1       5.218   6.164  15.015  0.00  0.00    +0.000 C 
ATOM     14  S   UNL     1       6.306   4.784  14.773  0.00  0.00    +0.000 S 
ATOM     15  O   UNL     1       5.878   4.092  13.573  0.00  0.00    +0.000 OA
ATOM     16  O   UNL     1       7.665   5.274  14.904  0.00  0.00    +0.000 OA
ENDBRANCH  12  14
ENDBRANCH  11  12
ENDBRANCH   1  11
BRANCH   1  17
ATOM     17  C   UNL     1       6.593   5.695  19.288  0.00  0.00    +0.000 C 
BRANCH  17  18
ATOM     18  C   UNL     1       7.960   6.191  18.789  0.00  0.00    +0.000 C 
BRANCH  18  19
ATOM     19  C   UNL     1       7.914   7.601  18.216  0.00  0.00    +0.000 C 
BRANCH  19  20
ATOM     20  O   UNL     1       7.737   7.528  16.798  0.00  0.00    +0.000 OA
ATOM     21  H   UNL     1       8.609   7.642  16.381  0.00  0.00    +0.000 HD
ENDBRANCH  19  20
ENDBRANCH  18  19
ENDBRANCH  17  18
ENDBRANCH   1  17
TORSDOF 8
ENDMDL
MODEL 3
REMARK VINA RESULT:      -6.6      2.133      3.822
REMARK  Name = 
REMARK  9 active torsions:
REMARK  status: ('A' for Active; 'I' for Inactive)
REMARK    1  A    between atoms: C_1  and  S_2
REMARK    2  A    between atoms: S_2  and  C_5
REMARK    3  A    between atoms: C_5  and  C_6
REMARK    4  A    between atoms: C_6  and  N_7
REMARK    5  A    between atoms: N_7  and  C_8
REMARK    6  A    between atoms: N_7  and  C_12
REMARK    7  A    between atoms: C_8  and  C_9
REMARK    8  A    between atoms: C_9  and  C_10
REMARK    9  A    between atoms: C_10  and  O_11
REMARK                            x       y       z     vdW  Elec       q    Type
REMARK                         _______ _______ _______ _____ _____    ______ ____
ROOT
ATOM      1  N   UNL     1       4.816   5.439  17.599  0.00  0.00    +0.000 NA
ENDROOT
BRANCH   1   2
ATOM      2  C   UNL     1       3.371   5.666  17.991  0.00  0.00    +0.000 C 
ATOM      3  C   UNL     1       3.228   6.530  19.276  0.00  0.00    +0.000 C 
ATOM      4  C   UNL     1       1.948   6.168  20.007  0.00  0.00    +0.000 C 
ATOM      5  C   UNL     1       1.792   4.751  19.594  0.00  0.00    +0.000 A 
ATOM      6  C   UNL     1       0.935   3.838  20.197  0.00  0.00    +0.000 A 
ATOM      7  C   UNL     1       0.790   2.582  19.620  0.00  0.00    +0.000 A 
ATOM      8  C   UNL     1       1.454   2.288  18.430  0.00  0.00    +0.000 A 
ATOM      9  C   UNL     1       2.291   3.231  17.821  0.00  0.00    +0.000 A 
ATOM     10  C   UNL     1       2.533   4.456  18.435  0.00  0.00    +0.000 A 
ENDBRANCH   1   2
BRANCH   1  11
ATOM     11  C   UNL     1       5.148   6.289  16.415  0.00  0.00    +0.000 C 
BRANCH  11  12
ATOM     12  C   UNL     1       5.098   5.644  15.029  0.00  0.00    +0.000 C 
BRANCH  12  14
ATOM     13  C   UNL     1       6.352   4.011  13.150  0.00  0.00    +0.000 C 
ATOM     14  S   UNL     1       6.485   4.520  14.844  0.00  0.00    +0.000 S 
ATOM     15  O   UNL     1       6.231   3.358  15.673  0.00  0.00    +0.000 OA
ATOM     16  O   UNL     1       7.718   5.272  14.976  0.00  0.00    +0.000 OA
ENDBRANCH  12  14
ENDBRANCH  11  12
ENDBRANCH   1  11
BRANCH   1  17
ATOM     17  C   UNL     1       5.804   5.741  18.681  0.00  0.00    +0.000 C 
BRANCH  17  18
ATOM     18  C   UNL     1       7.189   5.075  18.616  0.00  0.00    +0.000 C 
BRANCH  18  19
ATOM     19  C   UNL     1       8.247   5.811  19.427  0.00  0.00    +0.000 C 
BRANCH  19  20
ATOM     20  O   UNL     1       8.252   5.303  20.764  0.00  0.00    +0.000 OA
ATOM     21  H   UNL     1       8.182   4.333  20.717  0.00  0.00    +0.000 HD
ENDBRANCH  19  20
ENDBRANCH  18  19
ENDBRANCH  17  18
ENDBRANCH   1  17
TORSDOF 8
ENDMDL
MODEL 4
REMARK VINA RESULT:      -6.5      1.893      3.942
REMARK  Name = 
REMARK  9 active torsions:
REMARK  status: ('A' for Active; 'I' for Inactive)
REMARK    1  A    between atoms: C_1  and  S_2
REMARK    2  A    between atoms: S_2  and  C_5
REMARK    3  A    between atoms: C_5  and  C_6
REMARK    4  A    between atoms: C_6  and  N_7
REMARK    5  A    between atoms: N_7  and  C_8
REMARK    6  A    between atoms: N_7  and  C_12
REMARK    7  A    between atoms: C_8  and  C_9
REMARK    8  A    between atoms: C_9  and  C_10
REMARK    9  A    between atoms: C_10  and  O_11
REMARK                            x       y       z     vdW  Elec       q    Type
REMARK                         _______ _______ _______ _____ _____    ______ ____
ROOT
ATOM      1  N   UNL     1       4.211   5.461  17.112  0.00  0.00    +0.000 NA
ENDROOT
BRANCH   1   2
ATOM      2  C   UNL     1       2.873   5.632  17.800  0.00  0.00    +0.000 C 
ATOM      3  C   UNL     1       2.916   6.685  18.943  0.00  0.00    +0.000 C 
ATOM      4  C   UNL     1       1.882   6.347  20.002  0.00  0.00    +0.000 C 
ATOM      5  C   UNL     1       1.808   4.873  19.847  0.00  0.00    +0.000 A 
ATOM      6  C   UNL     1       1.221   4.008  20.762  0.00  0.00    +0.000 A 
ATOM      7  C   UNL     1       1.101   2.665  20.424  0.00  0.00    +0.000 A 
ATOM      8  C   UNL     1       1.515   2.230  19.166  0.00  0.00    +0.000 A 
ATOM      9  C   UNL     1       2.078   3.123  18.246  0.00  0.00    +0.000 A 
ATOM     10  C   UNL     1       2.304   4.449  18.601  0.00  0.00    +0.000 A 
ENDBRANCH   1   2
BRANCH   1  11
ATOM     11  C   UNL     1       5.287   6.043  17.971  0.00  0.00    +0.000 C 
BRANCH  11  12
ATOM     12  C   UNL     1       5.900   5.157  19.056  0.00  0.00    +0.000 C 
BRANCH  12  14
ATOM     13  C   UNL     1       7.916   6.959  18.377  0.00  0.00    +0.000 C 
ATOM     14  S   UNL     1       7.687   5.323  19.024  0.00  0.00    +0.000 S 
ATOM     15  O   UNL     1       8.204   4.387  18.045  0.00  0.00    +0.000 OA
ATOM     16  O   UNL     1       8.183   5.322  20.387  0.00  0.00    +0.000 OA
ENDBRANCH  12  14
ENDBRANCH  11  12
ENDBRANCH   1  11
BRANCH   1  17
ATOM     17  C   UNL     1       4.573   4.041  16.810  0.00  0.00    +0.000 C 
BRANCH  17  18
ATOM     18  C   UNL     1       5.667   3.770  15.765  0.00  0.00    +0.000 C 
BRANCH  18  19
ATOM     19  C   UNL     1       5.598   4.706  14.565  0.00  0.00    +0.000 C 
BRANCH  19  20
ATOM     20  O   UNL     1       6.445   5.835  14.799  0.00  0.00    +0.000 OA
ATOM     21  H   UNL     1       6.281   6.483  14.091  0.00  0.00    +0.000 HD
ENDBRANCH  19  20
ENDBRANCH  18  19
ENDBRANCH  17  18
ENDBRANCH   1  17
TORSDOF 8
ENDMDL
MODEL 5
REMARK VINA RESULT:      -6.5      2.135      4.512
REMARK  Name = 
REMARK  9 active torsions:
REMARK  status: ('A' for Active; 'I' for Inactive)
REMARK    1  A    between atoms: C_1  and  S_2
REMARK    2  A    between atoms: S_2  and  C_5
REMARK    3  A    between atoms: C_5  and  C_6
REMARK    4  A    between atoms: C_6  and  N_7
REMARK    5  A    between atoms: N_7  and  C_8
REMARK    6  A    between atoms: N_7  and  C_12
REMARK    7  A    between atoms: C_8  and  C_9
REMARK    8  A    between atoms: C_9  and  C_10
REMARK    9  A    between atoms: C_10  and  O_11
REMARK                            x       y       z     vdW  Elec       q    Type
REMARK                         _______ _______ _______ _____ _____    ______ ____
ROOT
ATOM      1  N   UNL     1       4.500   5.514  18.201  0.00  0.00    +0.000 NA
ENDROOT
BRANCH   1   2
ATOM      2  C   UNL     1       4.090   4.068  18.380  0.00  0.00    +0.000 C 
ATOM      3  C   UNL     1       3.245   3.533  17.189  0.00  0.00    +0.000 C 
ATOM      4  C   UNL     1       2.309   2.437  17.666  0.00  0.00    +0.000 C 
ATOM      5  C   UNL     1       2.110   2.847  19.078  0.00  0.00    +0.000 A 
ATOM      6  C   UNL     1       1.113   2.356  19.913  0.00  0.00    +0.000 A 
ATOM      7  C   UNL     1       1.129   2.726  21.253  0.00  0.00    +0.000 A 
ATOM      8  C   UNL     1       2.164   3.525  21.737  0.00  0.00    +0.000 A 
ATOM      9  C   UNL     1       3.175   3.986  20.886  0.00  0.00    +0.000 A 
ATOM     10  C   UNL     1       3.123   3.715  19.522  0.00  0.00    +0.000 A 
ENDBRANCH   1   2
BRANCH   1  11
ATOM     11  C   UNL     1       4.758   5.781  16.753  0.00  0.00    +0.000 C 
BRANCH  11  12
ATOM     12  C   UNL     1       6.126   6.335  16.356  0.00  0.00    +0.000 C 
BRANCH  12  14
ATOM     13  C   UNL     1       5.929   3.840  15.127  0.00  0.00    +0.000 C 
ATOM     14  S   UNL     1       7.138   5.007  15.694  0.00  0.00    +0.000 S 
ATOM     15  O   UNL     1       7.852   4.398  16.799  0.00  0.00    +0.000 OA
ATOM     16  O   UNL     1       7.850   5.496  14.529  0.00  0.00    +0.000 OA
ENDBRANCH  12  14
ENDBRANCH  11  12
ENDBRANCH   1  11
BRANCH   1  17
ATOM     17  C   UNL     1       3.490   6.506  18.685  0.00  0.00    +0.000 C 
BRANCH  17  18
ATOM     18  C   UNL     1       2.764   7.379  17.649  0.00  0.00    +0.000 C 
BRANCH  18  19
ATOM     19  C   UNL     1       2.002   8.541  18.270  0.00  0.00    +0.000 C 
BRANCH  19  20
ATOM     20  O   UNL     1       2.021   9.652  17.370  0.00  0.00    +0.000 OA
ATOM     21  H   UNL     1       1.797  10.453  17.877  0.00  0.00    +0.000 HD
ENDBRANCH  19  20
ENDBRANCH  18  19
ENDBRANCH  17  18
ENDBRANCH   1  17
TORSDOF 8
ENDMDL
MODEL 6
REMARK VINA RESULT:      -6.5      2.144      4.431
REMARK  Name = 
REMARK  9 active torsions:
REMARK  status: ('A' for Active; 'I' for Inactive)
REMARK    1  A    between atoms: C_1  and  S_2
REMARK    2  A    between atoms: S_2  and  C_5
REMARK    3  A    between atoms: C_5  and  C_6
REMARK    4  A    between atoms: C_6  and  N_7
REMARK    5  A    between atoms: N_7  and  C_8
REMARK    6  A    between atoms: N_7  and  C_12
REMARK    7  A    between atoms: C_8  and  C_9
REMARK    8  A    between atoms: C_9  and  C_10
REMARK    9  A    between atoms: C_10  and  O_11
REMARK                            x       y       z     vdW  Elec       q    Type
REMARK                         _______ _______ _______ _____ _____    ______ ____
ROOT
ATOM      1  N   UNL     1       4.141   6.036  18.285  0.00  0.00    +0.000 NA
ENDROOT
BRANCH   1   2
ATOM      2  C   UNL     1       3.943   4.539  18.396  0.00  0.00    +0.000 C 
ATOM      3  C   UNL     1       3.195   3.941  17.171  0.00  0.00    +0.000 C 
ATOM      4  C   UNL     1       2.422   2.702  17.586  0.00  0.00    +0.000 C 
ATOM      5  C   UNL     1       2.153   3.016  19.011  0.00  0.00    +0.000 A 
ATOM      6  C   UNL     1       1.230   2.352  19.809  0.00  0.00    +0.000 A 
ATOM      7  C   UNL     1       1.179   2.660  21.164  0.00  0.00    +0.000 A 
ATOM      8  C   UNL     1       2.083   3.577  21.698  0.00  0.00    +0.000 A 
ATOM      9  C   UNL     1       3.026   4.216  20.882  0.00  0.00    +0.000 A 
ATOM     10  C   UNL     1       3.026   4.001  19.507  0.00  0.00    +0.000 A 
ENDBRANCH   1   2
BRANCH   1  11
ATOM     11  C   UNL     1       5.428   6.314  17.577  0.00  0.00    +0.000 C 
BRANCH  11  12
ATOM     12  C   UNL     1       5.482   6.082  16.067  0.00  0.00    +0.000 C 
BRANCH  12  14
ATOM     13  C   UNL     1       7.498   4.585  17.279  0.00  0.00    +0.000 C 
ATOM     14  S   UNL     1       6.754   4.871  15.694  0.00  0.00    +0.000 S 
ATOM     15  O   UNL     1       7.746   5.511  14.852  0.00  0.00    +0.000 OA
ATOM     16  O   UNL     1       6.117   3.634  15.284  0.00  0.00    +0.000 OA
ENDBRANCH  12  14
ENDBRANCH  11  12
ENDBRANCH   1  11
BRANCH   1  17
ATOM     17  C   UNL     1       3.046   6.752  17.560  0.00  0.00    +0.000 C 
BRANCH  17  18
ATOM     18  C   UNL     1       2.750   8.213  17.938  0.00  0.00    +0.000 C 
BRANCH  18  19
ATOM     19  C   UNL     1       1.836   8.346  19.149  0.00  0.00    +0.000 C 
BRANCH  19  20
ATOM     20  O   UNL     1       2.308   7.490  20.192  0.00  0.00    +0.000 OA
ATOM     21  H   UNL     1       2.058   6.577  19.967  0.00  0.00    +0.000 HD
ENDBRANCH  19  20
ENDBRANCH  18  19
ENDBRANCH  17  18
ENDBRANCH   1  17
TORSDOF 8
ENDMDL
MODEL 7
REMARK VINA RESULT:      -6.5      1.036      1.433
REMARK  Name = 
REMARK  9 active torsions:
REMARK  status: ('A' for Active; 'I' for Inactive)
REMARK    1  A    between atoms: C_1  and  S_2
REMARK    2  A    between atoms: S_2  and  C_5
REMARK    3  A    between atoms: C_5  and  C_6
REMARK    4  A    between atoms: C_6  and  N_7
REMARK    5  A    between atoms: N_7  and  C_8
REMARK    6  A    between atoms: N_7  and  C_12
REMARK    7  A    between atoms: C_8  and  C_9
REMARK    8  A    between atoms: C_9  and  C_10
REMARK    9  A    between atoms: C_10  and  O_11
REMARK                            x       y       z     vdW  Elec       q    Type
REMARK                         _______ _______ _______ _____ _____    ______ ____
ROOT
ATOM      1  N   UNL     1       3.034   5.246  17.705  0.00  0.00    +0.000 NA
ENDROOT
BRANCH   1   2
ATOM      2  C   UNL     1       3.068   6.197  18.883  0.00  0.00    +0.000 C 
ATOM      3  C   UNL     1       2.219   5.694  20.084  0.00  0.00    +0.000 C 
ATOM      4  C   UNL     1       1.707   6.874  20.891  0.00  0.00    +0.000 C 
ATOM      5  C   UNL     1       1.636   7.913  19.834  0.00  0.00    +0.000 A 
ATOM      6  C   UNL     1       0.960   9.121  19.954  0.00  0.00    +0.000 A 
ATOM      7  C   UNL     1       1.092  10.060  18.937  0.00  0.00    +0.000 A 
ATOM      8  C   UNL     1       1.935   9.795  17.858  0.00  0.00    +0.000 A 
ATOM      9  C   UNL     1       2.630   8.583  17.769  0.00  0.00    +0.000 A 
ATOM     10  C   UNL     1       2.433   7.588  18.721  0.00  0.00    +0.000 A 
ENDBRANCH   1   2
BRANCH   1  11
ATOM     11  C   UNL     1       4.426   4.809  17.381  0.00  0.00    +0.000 C 
BRANCH  11  12
ATOM     12  C   UNL     1       5.244   5.668  16.416  0.00  0.00    +0.000 C 
BRANCH  12  14
ATOM     13  C   UNL     1       6.772   5.468  18.740  0.00  0.00    +0.000 C 
ATOM     14  S   UNL     1       6.939   5.770  16.999  0.00  0.00    +0.000 S 
ATOM     15  O   UNL     1       7.386   7.139  16.832  0.00  0.00    +0.000 OA
ATOM     16  O   UNL     1       7.695   4.667  16.438  0.00  0.00    +0.000 OA
ENDBRANCH  12  14
ENDBRANCH  11  12
ENDBRANCH   1  11
BRANCH   1  17
ATOM     17  C   UNL     1       2.199   4.024  17.922  0.00  0.00    +0.000 C 
BRANCH  17  18
ATOM     18  C   UNL     1       2.774   2.660  17.505  0.00  0.00    +0.000 C 
BRANCH  18  19
ATOM     19  C   UNL     1       3.053   1.740  18.685  0.00  0.00    +0.000 C 
BRANCH  19  20
ATOM     20  O   UNL     1       3.990   0.735  18.288  0.00  0.00    +0.000 OA
ATOM     21  H   UNL     1       4.783   1.183  17.944  0.00  0.00    +0.000 HD
ENDBRANCH  19  20
ENDBRANCH  18  19
ENDBRANCH  17  18
ENDBRANCH   1  17
TORSDOF 8
ENDMDL
MODEL 8
REMARK VINA RESULT:      -6.5      2.773      4.227
REMARK  Name = 
REMARK  9 active torsions:
REMARK  status: ('A' for Active; 'I' for Inactive)
REMARK    1  A    between atoms: C_1  and  S_2
REMARK    2  A    between atoms: S_2  and  C_5
REMARK    3  A    between atoms: C_5  and  C_6
REMARK    4  A    between atoms: C_6  and  N_7
REMARK    5  A    between atoms: N_7  and  C_8
REMARK    6  A    between atoms: N_7  and  C_12
REMARK    7  A    between atoms: C_8  and  C_9
REMARK    8  A    between atoms: C_9  and  C_10
REMARK    9  A    between atoms: C_10  and  O_11
REMARK                            x       y       z     vdW  Elec       q    Type
REMARK                         _______ _______ _______ _____ _____    ______ ____
ROOT
ATOM      1  N   UNL     1       5.688   4.192  18.569  0.00  0.00    +0.000 NA
ENDROOT
BRANCH   1   2
ATOM      2  C   UNL     1       4.263   3.770  18.277  0.00  0.00    +0.000 C 
ATOM      3  C   UNL     1       3.427   4.900  17.613  0.00  0.00    +0.000 C 
ATOM      4  C   UNL     1       1.960   4.740  17.968  0.00  0.00    +0.000 C 
ATOM      5  C   UNL     1       2.072   4.064  19.284  0.00  0.00    +0.000 A 
ATOM      6  C   UNL     1       1.035   3.930  20.199  0.00  0.00    +0.000 A 
ATOM      7  C   UNL     1       1.244   3.153  21.332  0.00  0.00    +0.000 A 
ATOM      8  C   UNL     1       2.457   2.485  21.496  0.00  0.00    +0.000 A 
ATOM      9  C   UNL     1       3.480   2.608  20.549  0.00  0.00    +0.000 A 
ATOM     10  C   UNL     1       3.332   3.463  19.461  0.00  0.00    +0.000 A 
ENDBRANCH   1   2
BRANCH   1  11
ATOM     11  C   UNL     1       6.530   3.966  17.355  0.00  0.00    +0.000 C 
BRANCH  11  12
ATOM     12  C   UNL     1       5.820   3.704  16.026  0.00  0.00    +0.000 C 
BRANCH  12  14
ATOM     13  C   UNL     1       6.275   4.003  13.291  0.00  0.00    +0.000 C 
ATOM     14  S   UNL     1       6.362   4.911  14.812  0.00  0.00    +0.000 S 
ATOM     15  O   UNL     1       7.758   5.206  15.068  0.00  0.00    +0.000 OA
ATOM     16  O   UNL     1       5.379   5.976  14.740  0.00  0.00    +0.000 OA
ENDBRANCH  12  14
ENDBRANCH  11  12
ENDBRANCH   1  11
BRANCH   1  17
ATOM     17  C   UNL     1       5.836   5.622  18.980  0.00  0.00    +0.000 C 
BRANCH  17  18
ATOM     18  C   UNL     1       7.063   6.404  18.484  0.00  0.00    +0.000 C 
BRANCH  18  19
ATOM     19  C   UNL     1       8.313   6.152  19.317  0.00  0.00    +0.000 C 
BRANCH  19  20
ATOM     20  O   UNL     1       7.949   5.456  20.513  0.00  0.00    +0.000 OA
ATOM     21  H   UNL     1       8.388   4.587  20.499  0.00  0.00    +0.000 HD
ENDBRANCH  19  20
ENDBRANCH  18  19
ENDBRANCH  17  18
ENDBRANCH   1  17
TORSDOF 8
ENDMDL
MODEL 9
REMARK VINA RESULT:      -6.5      2.596      4.162
REMARK  Name = 
REMARK  9 active torsions:
REMARK  status: ('A' for Active; 'I' for Inactive)
REMARK    1  A    between atoms: C_1  and  S_2
REMARK    2  A    between atoms: S_2  and  C_5
REMARK    3  A    between atoms: C_5  and  C_6
REMARK    4  A    between atoms: C_6  and  N_7
REMARK    5  A    between atoms: N_7  and  C_8
REMARK    6  A    between atoms: N_7  and  C_12
REMARK    7  A    between atoms: C_8  and  C_9
REMARK    8  A    between atoms: C_9  and  C_10
REMARK    9  A    between atoms: C_10  and  O_11
REMARK                            x       y       z     vdW  Elec       q    Type
REMARK                         _______ _______ _______ _____ _____    ______ ____
ROOT
ATOM      1  N   UNL     1       5.305   4.328  17.505  0.00  0.00    +0.000 NA
ENDROOT
BRANCH   1   2
ATOM      2  C   UNL     1       4.559   3.474  18.508  0.00  0.00    +0.000 C 
ATOM      3  C   UNL     1       3.864   2.247  17.852  0.00  0.00    +0.000 C 
ATOM      4  C   UNL     1       2.635   1.856  18.652  0.00  0.00    +0.000 C 
ATOM      5  C   UNL     1       2.261   3.169  19.234  0.00  0.00    +0.000 A 
ATOM      6  C   UNL     1       1.039   3.453  19.829  0.00  0.00    +0.000 A 
ATOM      7  C   UNL     1       0.875   4.684  20.455  0.00  0.00    +0.000 A 
ATOM      8  C   UNL     1       1.947   5.573  20.520  0.00  0.00    +0.000 A 
ATOM      9  C   UNL     1       3.181   5.257  19.938  0.00  0.00    +0.000 A 
ATOM     10  C   UNL     1       3.336   4.077  19.218  0.00  0.00    +0.000 A 
ENDBRANCH   1   2
BRANCH   1  11
ATOM     11  C   UNL     1       6.724   4.486  17.947  0.00  0.00    +0.000 C 
BRANCH  11  12
ATOM     12  C   UNL     1       7.127   5.799  18.617  0.00  0.00    +0.000 C 
BRANCH  12  14
ATOM     13  C   UNL     1       8.133   8.365  18.189  0.00  0.00    +0.000 C 
ATOM     14  S   UNL     1       7.169   7.108  17.389  0.00  0.00    +0.000 S 
ATOM     15  O   UNL     1       5.821   7.620  17.236  0.00  0.00    +0.000 OA
ATOM     16  O   UNL     1       7.924   6.648  16.239  0.00  0.00    +0.000 OA
ENDBRANCH  12  14
ENDBRANCH  11  12
ENDBRANCH   1  11
BRANCH   1  17
ATOM     17  C   UNL     1       5.309   3.782  16.112  0.00  0.00    +0.000 C 
BRANCH  17  18
ATOM     18  C   UNL     1       5.501   4.761  14.942  0.00  0.00    +0.000 C 
BRANCH  18  19
ATOM     19  C   UNL     1       6.585   4.324  13.966  0.00  0.00    +0.000 C 
BRANCH  19  20
ATOM     20  O   UNL     1       7.596   5.334  13.901  0.00  0.00    +0.000 OA
ATOM     21  H   UNL     1       7.297   6.092  14.435  0.00  0.00    +0.000 HD
ENDBRANCH  19  20
ENDBRANCH  18  19
ENDBRANCH  17  18
ENDBRANCH   1  17
TORSDOF 8
ENDMDL
