MODEL 1
REMARK VINA RESULT:      -8.2      0.000      0.000
REMARK  Name = 
REMARK  9 active torsions:
REMARK  status: ('A' for Active; 'I' for Inactive)
REMARK    1  A    between atoms: C_1  and  C_2
REMARK    2  A    between atoms: C_2  and  C_3
REMARK    3  A    between atoms: C_2  and  C_4
REMARK    4  A    between atoms: C_2  and  C_5
REMARK    5  A    between atoms: C_12  and  N_13
REMARK    6  A    between atoms: N_13  and  C_14
REMARK    7  A    between atoms: C_14  and  C_15
REMARK    8  A    between atoms: C_17  and  O_18
REMARK    9  A    between atoms: C_19  and  C_20
REMARK                            x       y       z     vdW  Elec       q    Type
REMARK                         _______ _______ _______ _____ _____    ______ ____
ROOT
ATOM      1  C   UNL     1      -3.313  12.926  21.536  0.00  0.00    +0.000 A 
ATOM      2  C   UNL     1      -4.614  13.211  21.092  0.00  0.00    +0.000 A 
ATOM      3  C   UNL     1      -5.036  12.839  19.810  0.00  0.00    +0.000 A 
ATOM      4  C   UNL     1      -4.161  12.178  18.944  0.00  0.00    +0.000 A 
ATOM      5  C   UNL     1      -2.860  11.865  19.348  0.00  0.00    +0.000 A 
ATOM      6  C   UNL     1      -2.470  12.224  20.650  0.00  0.00    +0.000 A 
ATOM      7  C   UNL     1      -1.984  11.110  18.427  0.00  0.00    +0.000 C 
ATOM      8  C   UNL     1      -0.645  11.037  18.562  0.00  0.00    +0.000 C 
ATOM      9  C   UNL     1      -2.603  10.493  17.217  0.00  0.00    +0.000 C 
ATOM     10  O   UNL     1      -2.169   9.492  16.658  0.00  0.00    +0.000 OA
ATOM     11  N   UNL     1      -3.739  11.129  16.784  0.00  0.00    +0.000 N 
ATOM     12  C   UNL     1      -4.633  11.778  17.598  0.00  0.00    +0.000 C 
ATOM     13  O   UNL     1      -5.793  11.966  17.246  0.00  0.00    +0.000 OA
ATOM     14  H   UNL     1      -4.144  10.748  15.941  0.00  0.00    +0.000 HD
ENDROOT
BRANCH   1  16
ATOM     15  C   UNL     1      -3.630  12.427  23.960  0.00  0.00    +0.000 C 
ATOM     16  C   UNL     1      -2.834  13.282  22.956  0.00  0.00    +0.000 C 
ATOM     17  C   UNL     1      -3.037  14.770  23.315  0.00  0.00    +0.000 C 
ATOM     18  C   UNL     1      -1.322  12.997  23.140  0.00  0.00    +0.000 C 
ENDBRANCH   1  16
BRANCH   8  19
ATOM     19  N   UNL     1       0.280  10.393  17.776  0.00  0.00    +0.000 N 
ATOM     20  H   UNL     1      -0.102   9.766  17.058  0.00  0.00    +0.000 HD
BRANCH  19  21
ATOM     21  C   UNL     1       1.718  10.320  17.986  0.00  0.00    +0.000 C 
BRANCH  21  22
ATOM     22  C   UNL     1       2.152   8.897  18.286  0.00  0.00    +0.000 A 
ATOM     23  C   UNL     1       1.785   8.290  19.485  0.00  0.00    +0.000 A 
ATOM     24  C   UNL     1       2.283   7.020  19.775  0.00  0.00    +0.000 A 
ATOM     25  C   UNL     1       3.127   6.364  18.875  0.00  0.00    +0.000 A 
ATOM     26  C   UNL     1       3.376   7.023  17.678  0.00  0.00    +0.000 A 
ATOM     27  N   UNL     1       2.914   8.263  17.361  0.00  0.00    +0.000 NA
BRANCH  25  28
ATOM     28  C   UNL     1       3.783   5.097  19.150  0.00  0.00    +0.000 A 
ATOM     29  C   UNL     1       3.257   3.783  19.312  0.00  0.00    +0.000 A 
ATOM     30  C   UNL     1       4.331   2.941  19.458  0.00  0.00    +0.000 A 
ATOM     31  O   UNL     1       5.492   3.636  19.396  0.00  0.00    +0.000 OA
ATOM     32  C   UNL     1       5.160   4.937  19.206  0.00  0.00    +0.000 A 
ENDBRANCH  25  28
BRANCH  24  33
ATOM     33  O   UNL     1       1.939   6.425  20.960  0.00  0.00    +0.000 OA
ATOM     34  H   UNL     1       1.133   6.837  21.311  0.00  0.00    +0.000 HD
ENDBRANCH  24  33
ENDBRANCH  21  22
ENDBRANCH  19  21
ENDBRANCH   8  19
TORSDOF 6
ENDMDL
MODEL 2
REMARK VINA RESULT:      -8.1      2.646      4.096
REMARK  Name = 
REMARK  9 active torsions:
REMARK  status: ('A' for Active; 'I' for Inactive)
REMARK    1  A    between atoms: C_1  and  C_2
REMARK    2  A    between atoms: C_2  and  C_3
REMARK    3  A    between atoms: C_2  and  C_4
REMARK    4  A    between atoms: C_2  and  C_5
REMARK    5  A    between atoms: C_12  and  N_13
REMARK    6  A    between atoms: N_13  and  C_14
REMARK    7  A    between atoms: C_14  and  C_15
REMARK    8  A    between atoms: C_17  and  O_18
REMARK    9  A    between atoms: C_19  and  C_20
REMARK                            x       y       z     vdW  Elec       q    Type
REMARK                         _______ _______ _______ _____ _____    ______ ____
ROOT
ATOM      1  C   UNL     1      -4.518  12.163  19.224  0.00  0.00    +0.000 A 
ATOM      2  C   UNL     1      -5.060  12.697  20.404  0.00  0.00    +0.000 A 
ATOM      3  C   UNL     1      -4.248  12.971  21.510  0.00  0.00    +0.000 A 
ATOM      4  C   UNL     1      -2.876  12.712  21.460  0.00  0.00    +0.000 A 
ATOM      5  C   UNL     1      -2.292  12.189  20.301  0.00  0.00    +0.000 A 
ATOM      6  C   UNL     1      -3.124  11.949  19.195  0.00  0.00    +0.000 A 
ATOM      7  C   UNL     1      -0.828  11.987  20.264  0.00  0.00    +0.000 C 
ATOM      8  C   UNL     1      -0.206  11.207  19.358  0.00  0.00    +0.000 C 
ATOM      9  C   UNL     1      -0.009  12.584  21.360  0.00  0.00    +0.000 C 
ATOM     10  O   UNL     1       1.163  12.922  21.234  0.00  0.00    +0.000 OA
ATOM     11  N   UNL     1      -0.689  12.756  22.537  0.00  0.00    +0.000 N 
ATOM     12  C   UNL     1      -2.032  13.025  22.635  0.00  0.00    +0.000 C 
ATOM     13  O   UNL     1      -2.502  13.559  23.635  0.00  0.00    +0.000 OA
ATOM     14  H   UNL     1      -0.135  13.119  23.300  0.00  0.00    +0.000 HD
ENDROOT
BRANCH   1  16
ATOM     15  C   UNL     1      -6.404  10.799  18.325  0.00  0.00    +0.000 C 
ATOM     16  C   UNL     1      -5.378  11.892  17.975  0.00  0.00    +0.000 C 
ATOM     17  C   UNL     1      -4.555  11.414  16.758  0.00  0.00    +0.000 C 
ATOM     18  C   UNL     1      -6.134  13.162  17.511  0.00  0.00    +0.000 C 
ENDBRANCH   1  16
BRANCH   8  19
ATOM     19  N   UNL     1       1.131  10.920  19.223  0.00  0.00    +0.000 N 
ATOM     20  H   UNL     1       1.776  11.537  19.731  0.00  0.00    +0.000 HD
BRANCH  19  21
ATOM     21  C   UNL     1       1.744   9.999  18.276  0.00  0.00    +0.000 C 
BRANCH  21  22
ATOM     22  C   UNL     1       1.882   8.613  18.878  0.00  0.00    +0.000 A 
ATOM     23  C   UNL     1       2.349   7.554  18.103  0.00  0.00    +0.000 A 
ATOM     24  C   UNL     1       2.368   6.274  18.654  0.00  0.00    +0.000 A 
ATOM     25  C   UNL     1       1.936   6.058  19.966  0.00  0.00    +0.000 A 
ATOM     26  C   UNL     1       1.556   7.187  20.679  0.00  0.00    +0.000 A 
ATOM     27  N   UNL     1       1.518   8.450  20.174  0.00  0.00    +0.000 NA
BRANCH  25  28
ATOM     28  C   UNL     1       1.811   4.745  20.576  0.00  0.00    +0.000 A 
ATOM     29  C   UNL     1       0.943   3.654  20.284  0.00  0.00    +0.000 A 
ATOM     30  C   UNL     1       1.316   2.619  21.105  0.00  0.00    +0.000 A 
ATOM     31  O   UNL     1       2.359   2.986  21.887  0.00  0.00    +0.000 OA
ATOM     32  C   UNL     1       2.660   4.268  21.564  0.00  0.00    +0.000 A 
ENDBRANCH  25  28
BRANCH  24  33
ATOM     33  O   UNL     1       2.811   5.227  17.890  0.00  0.00    +0.000 OA
ATOM     34  H   UNL     1       2.650   4.391  18.357  0.00  0.00    +0.000 HD
ENDBRANCH  24  33
ENDBRANCH  21  22
ENDBRANCH  19  21
ENDBRANCH   8  19
TORSDOF 6
ENDMDL
MODEL 3
REMARK VINA RESULT:      -8.0      2.334      3.774
REMARK  Name = 
REMARK  9 active torsions:
REMARK  status: ('A' for Active; 'I' for Inactive)
REMARK    1  A    between atoms: C_1  and  C_2
REMARK    2  A    between atoms: C_2  and  C_3
REMARK    3  A    between atoms: C_2  and  C_4
REMARK    4  A    between atoms: C_2  and  C_5
REMARK    5  A    between atoms: C_12  and  N_13
REMARK    6  A    between atoms: N_13  and  C_14
REMARK    7  A    between atoms: C_14  and  C_15
REMARK    8  A    between atoms: C_17  and  O_18
REMARK    9  A    between atoms: C_19  and  C_20
REMARK                            x       y       z     vdW  Elec       q    Type
REMARK                         _______ _______ _______ _____ _____    ______ ____
ROOT
ATOM      1  C   UNL     1      -4.967  12.389  19.564  0.00  0.00    +0.000 A 
ATOM      2  C   UNL     1      -5.529  12.918  20.737  0.00  0.00    +0.000 A 
ATOM      3  C   UNL     1      -4.744  13.146  21.872  0.00  0.00    +0.000 A 
ATOM      4  C   UNL     1      -3.380  12.844  21.860  0.00  0.00    +0.000 A 
ATOM      5  C   UNL     1      -2.776  12.325  20.711  0.00  0.00    +0.000 A 
ATOM      6  C   UNL     1      -3.580  12.132  19.574  0.00  0.00    +0.000 A 
ATOM      7  C   UNL     1      -1.319  12.076  20.715  0.00  0.00    +0.000 C 
ATOM      8  C   UNL     1      -0.693  11.294  19.813  0.00  0.00    +0.000 C 
ATOM      9  C   UNL     1      -0.516  12.626  21.847  0.00  0.00    +0.000 C 
ATOM     10  O   UNL     1       0.669  12.930  21.764  0.00  0.00    +0.000 OA
ATOM     11  N   UNL     1      -1.228  12.798  23.006  0.00  0.00    +0.000 N 
ATOM     12  C   UNL     1      -2.564  13.109  23.067  0.00  0.00    +0.000 C 
ATOM     13  O   UNL     1      -3.048  13.639  24.061  0.00  0.00    +0.000 OA
ATOM     14  H   UNL     1      -0.687  13.130  23.792  0.00  0.00    +0.000 HD
ENDROOT
BRANCH   1  16
ATOM     15  C   UNL     1      -6.552  13.473  17.971  0.00  0.00    +0.000 C 
ATOM     16  C   UNL     1      -5.794  12.169  18.283  0.00  0.00    +0.000 C 
ATOM     17  C   UNL     1      -6.826  11.026  18.410  0.00  0.00    +0.000 C 
ATOM     18  C   UNL     1      -4.897  11.807  17.074  0.00  0.00    +0.000 C 
ENDBRANCH   1  16
BRANCH   8  19
ATOM     19  N   UNL     1       0.638  10.966  19.714  0.00  0.00    +0.000 N 
ATOM     20  H   UNL     1       1.206  11.141  20.553  0.00  0.00    +0.000 HD
BRANCH  19  21
ATOM     21  C   UNL     1       1.374  10.621  18.507  0.00  0.00    +0.000 C 
BRANCH  21  22
ATOM     22  C   UNL     1       1.872   9.188  18.566  0.00  0.00    +0.000 A 
ATOM     23  C   UNL     1       1.667   8.420  19.709  0.00  0.00    +0.000 A 
ATOM     24  C   UNL     1       2.225   7.144  19.770  0.00  0.00    +0.000 A 
ATOM     25  C   UNL     1       2.967   6.639  18.699  0.00  0.00    +0.000 A 
ATOM     26  C   UNL     1       3.054   7.455  17.577  0.00  0.00    +0.000 A 
ATOM     27  N   UNL     1       2.530   8.707  17.482  0.00  0.00    +0.000 NA
BRANCH  25  28
ATOM     28  C   UNL     1       3.680   5.373  18.726  0.00  0.00    +0.000 A 
ATOM     29  C   UNL     1       3.409   4.130  18.086  0.00  0.00    +0.000 A 
ATOM     30  C   UNL     1       4.459   3.296  18.378  0.00  0.00    +0.000 A 
ATOM     31  O   UNL     1       5.370   3.932  19.152  0.00  0.00    +0.000 OA
ATOM     32  C   UNL     1       4.900   5.188  19.359  0.00  0.00    +0.000 A 
ENDBRANCH  25  28
BRANCH  24  33
ATOM     33  O   UNL     1       2.040   6.390  20.899  0.00  0.00    +0.000 OA
ATOM     34  H   UNL     1       1.167   6.579  21.279  0.00  0.00    +0.000 HD
ENDBRANCH  24  33
ENDBRANCH  21  22
ENDBRANCH  19  21
ENDBRANCH   8  19
TORSDOF 6
ENDMDL
MODEL 4
REMARK VINA RESULT:      -7.8      1.560      2.076
REMARK  Name = 
REMARK  9 active torsions:
REMARK  status: ('A' for Active; 'I' for Inactive)
REMARK    1  A    between atoms: C_1  and  C_2
REMARK    2  A    between atoms: C_2  and  C_3
REMARK    3  A    between atoms: C_2  and  C_4
REMARK    4  A    between atoms: C_2  and  C_5
REMARK    5  A    between atoms: C_12  and  N_13
REMARK    6  A    between atoms: N_13  and  C_14
REMARK    7  A    between atoms: C_14  and  C_15
REMARK    8  A    between atoms: C_17  and  O_18
REMARK    9  A    between atoms: C_19  and  C_20
REMARK                            x       y       z     vdW  Elec       q    Type
REMARK                         _______ _______ _______ _____ _____    ______ ____
ROOT
ATOM      1  C   UNL     1      -5.263  13.270  22.022  0.00  0.00    +0.000 A 
ATOM      2  C   UNL     1      -6.445  13.324  21.268  0.00  0.00    +0.000 A 
ATOM      3  C   UNL     1      -6.449  12.987  19.910  0.00  0.00    +0.000 A 
ATOM      4  C   UNL     1      -5.267  12.595  19.276  0.00  0.00    +0.000 A 
ATOM      5  C   UNL     1      -4.068  12.519  19.991  0.00  0.00    +0.000 A 
ATOM      6  C   UNL     1      -4.096  12.834  21.361  0.00  0.00    +0.000 A 
ATOM      7  C   UNL     1      -2.850  12.040  19.303  0.00  0.00    +0.000 C 
ATOM      8  C   UNL     1      -1.602  12.228  19.776  0.00  0.00    +0.000 C 
ATOM      9  C   UNL     1      -3.005  11.418  17.954  0.00  0.00    +0.000 C 
ATOM     10  O   UNL     1      -2.239  10.579  17.493  0.00  0.00    +0.000 OA
ATOM     11  N   UNL     1      -4.110  11.846  17.265  0.00  0.00    +0.000 N 
ATOM     12  C   UNL     1      -5.296  12.227  17.842  0.00  0.00    +0.000 C 
ATOM     13  O   UNL     1      -6.347  12.206  17.210  0.00  0.00    +0.000 OA
ATOM     14  H   UNL     1      -4.204  11.466  16.334  0.00  0.00    +0.000 HD
ENDROOT
BRANCH   1  16
ATOM     15  C   UNL     1      -4.467  12.464  24.245  0.00  0.00    +0.000 C 
ATOM     16  C   UNL     1      -5.234  13.591  23.529  0.00  0.00    +0.000 C 
ATOM     17  C   UNL     1      -6.641  13.697  24.158  0.00  0.00    +0.000 C 
ATOM     18  C   UNL     1      -4.531  14.940  23.816  0.00  0.00    +0.000 C 
ENDBRANCH   1  16
BRANCH   8  19
ATOM     19  N   UNL     1      -0.396  11.856  19.233  0.00  0.00    +0.000 N 
ATOM     20  H   UNL     1      -0.388  11.709  18.217  0.00  0.00    +0.000 HD
BRANCH  19  21
ATOM     21  C   UNL     1       0.799  11.430  19.947  0.00  0.00    +0.000 C 
BRANCH  21  22
ATOM     22  C   UNL     1       1.255  10.061  19.476  0.00  0.00    +0.000 A 
ATOM     23  C   UNL     1       1.348   9.004  20.378  0.00  0.00    +0.000 A 
ATOM     24  C   UNL     1       1.866   7.788  19.936  0.00  0.00    +0.000 A 
ATOM     25  C   UNL     1       2.275   7.628  18.609  0.00  0.00    +0.000 A 
ATOM     26  C   UNL     1       2.076   8.719  17.772  0.00  0.00    +0.000 A 
ATOM     27  N   UNL     1       1.580   9.923  18.167  0.00  0.00    +0.000 NA
BRANCH  25  28
ATOM     28  C   UNL     1       2.934   6.439  18.097  0.00  0.00    +0.000 A 
ATOM     29  C   UNL     1       4.293   6.195  17.748  0.00  0.00    +0.000 A 
ATOM     30  C   UNL     1       4.385   4.868  17.411  0.00  0.00    +0.000 A 
ATOM     31  O   UNL     1       3.179   4.264  17.527  0.00  0.00    +0.000 OA
ATOM     32  C   UNL     1       2.304   5.212  17.945  0.00  0.00    +0.000 A 
ENDBRANCH  25  28
BRANCH  24  33
ATOM     33  O   UNL     1       1.976   6.749  20.823  0.00  0.00    +0.000 OA
ATOM     34  H   UNL     1       2.503   6.037  20.428  0.00  0.00    +0.000 HD
ENDBRANCH  24  33
ENDBRANCH  21  22
ENDBRANCH  19  21
ENDBRANCH   8  19
TORSDOF 6
ENDMDL
MODEL 5
REMARK VINA RESULT:      -7.8      1.116      1.419
REMARK  Name = 
REMARK  9 active torsions:
REMARK  status: ('A' for Active; 'I' for Inactive)
REMARK    1  A    between atoms: C_1  and  C_2
REMARK    2  A    between atoms: C_2  and  C_3
REMARK    3  A    between atoms: C_2  and  C_4
REMARK    4  A    between atoms: C_2  and  C_5
REMARK    5  A    between atoms: C_12  and  N_13
REMARK    6  A    between atoms: N_13  and  C_14
REMARK    7  A    between atoms: C_14  and  C_15
REMARK    8  A    between atoms: C_17  and  O_18
REMARK    9  A    between atoms: C_19  and  C_20
REMARK                            x       y       z     vdW  Elec       q    Type
REMARK                         _______ _______ _______ _____ _____    ______ ____
ROOT
ATOM      1  C   UNL     1      -4.483  13.294  21.958  0.00  0.00    +0.000 A 
ATOM      2  C   UNL     1      -5.812  13.343  21.508  0.00  0.00    +0.000 A 
ATOM      3  C   UNL     1      -6.153  12.906  20.223  0.00  0.00    +0.000 A 
ATOM      4  C   UNL     1      -5.170  12.416  19.359  0.00  0.00    +0.000 A 
ATOM      5  C   UNL     1      -3.835  12.341  19.770  0.00  0.00    +0.000 A 
ATOM      6  C   UNL     1      -3.522  12.759  21.075  0.00  0.00    +0.000 A 
ATOM      7  C   UNL     1      -2.834  11.760  18.851  0.00  0.00    +0.000 C 
ATOM      8  C   UNL     1      -1.504  11.928  18.993  0.00  0.00    +0.000 C 
ATOM      9  C   UNL     1      -3.326  11.047  17.635  0.00  0.00    +0.000 C 
ATOM     10  O   UNL     1      -2.716  10.143  17.075  0.00  0.00    +0.000 OA
ATOM     11  N   UNL     1      -4.555  11.470  17.198  0.00  0.00    +0.000 N 
ATOM     12  C   UNL     1      -5.556  11.944  18.010  0.00  0.00    +0.000 C 
ATOM     13  O   UNL     1      -6.729  11.922  17.652  0.00  0.00    +0.000 OA
ATOM     14  H   UNL     1      -4.881  11.026  16.352  0.00  0.00    +0.000 HD
ENDROOT
BRANCH   1  16
ATOM     15  C   UNL     1      -4.445  12.582  24.349  0.00  0.00    +0.000 C 
ATOM     16  C   UNL     1      -4.082  13.724  23.382  0.00  0.00    +0.000 C 
ATOM     17  C   UNL     1      -4.796  15.009  23.857  0.00  0.00    +0.000 C 
ATOM     18  C   UNL     1      -2.563  14.011  23.490  0.00  0.00    +0.000 C 
ENDBRANCH   1  16
BRANCH   8  19
ATOM     19  N   UNL     1      -0.475  11.464  18.209  0.00  0.00    +0.000 N 
ATOM     20  H   UNL     1      -0.752  10.970  17.353  0.00  0.00    +0.000 HD
BRANCH  19  21
ATOM     21  C   UNL     1       0.936  11.392  18.559  0.00  0.00    +0.000 C 
BRANCH  21  22
ATOM     22  C   UNL     1       1.389   9.950  18.695  0.00  0.00    +0.000 A 
ATOM     23  C   UNL     1       1.198   9.265  19.893  0.00  0.00    +0.000 A 
ATOM     24  C   UNL     1       1.715   7.976  20.020  0.00  0.00    +0.000 A 
ATOM     25  C   UNL     1       2.404   7.378  18.962  0.00  0.00    +0.000 A 
ATOM     26  C   UNL     1       2.480   8.116  17.787  0.00  0.00    +0.000 A 
ATOM     27  N   UNL     1       1.994   9.376  17.626  0.00  0.00    +0.000 NA
BRANCH  25  28
ATOM     28  C   UNL     1       3.076   6.093  19.050  0.00  0.00    +0.000 A 
ATOM     29  C   UNL     1       4.446   5.737  18.891  0.00  0.00    +0.000 A 
ATOM     30  C   UNL     1       4.544   4.399  19.177  0.00  0.00    +0.000 A 
ATOM     31  O   UNL     1       3.332   3.893  19.507  0.00  0.00    +0.000 OA
ATOM     32  C   UNL     1       2.446   4.917  19.434  0.00  0.00    +0.000 A 
ENDBRANCH  25  28
BRANCH  24  33
ATOM     33  O   UNL     1       1.544   7.304  21.202  0.00  0.00    +0.000 OA
ATOM     34  H   UNL     1       2.323   7.432  21.766  0.00  0.00    +0.000 HD
ENDBRANCH  24  33
ENDBRANCH  21  22
ENDBRANCH  19  21
ENDBRANCH   8  19
TORSDOF 6
ENDMDL
MODEL 6
REMARK VINA RESULT:      -7.8      2.557      4.079
REMARK  Name = 
REMARK  9 active torsions:
REMARK  status: ('A' for Active; 'I' for Inactive)
REMARK    1  A    between atoms: C_1  and  C_2
REMARK    2  A    between atoms: C_2  and  C_3
REMARK    3  A    between atoms: C_2  and  C_4
REMARK    4  A    between atoms: C_2  and  C_5
REMARK    5  A    between atoms: C_12  and  N_13
REMARK    6  A    between atoms: N_13  and  C_14
REMARK    7  A    between atoms: C_14  and  C_15
REMARK    8  A    between atoms: C_17  and  O_18
REMARK    9  A    between atoms: C_19  and  C_20
REMARK                            x       y       z     vdW  Elec       q    Type
REMARK                         _______ _______ _______ _____ _____    ______ ____
ROOT
ATOM      1  C   UNL     1      -4.409  12.178  19.098  0.00  0.00    +0.000 A 
ATOM      2  C   UNL     1      -4.759  13.084  20.112  0.00  0.00    +0.000 A 
ATOM      3  C   UNL     1      -3.851  13.421  21.121  0.00  0.00    +0.000 A 
ATOM      4  C   UNL     1      -2.574  12.853  21.141  0.00  0.00    +0.000 A 
ATOM      5  C   UNL     1      -2.180  11.954  20.145  0.00  0.00    +0.000 A 
ATOM      6  C   UNL     1      -3.100  11.654  19.126  0.00  0.00    +0.000 A 
ATOM      7  C   UNL     1      -0.801  11.422  20.164  0.00  0.00    +0.000 C 
ATOM      8  C   UNL     1      -0.413  10.330  19.475  0.00  0.00    +0.000 C 
ATOM      9  C   UNL     1       0.185  12.059  21.086  0.00  0.00    +0.000 C 
ATOM     10  O   UNL     1       1.395  12.085  20.886  0.00  0.00    +0.000 OA
ATOM     11  N   UNL     1      -0.380  12.655  22.184  0.00  0.00    +0.000 N 
ATOM     12  C   UNL     1      -1.623  13.236  22.209  0.00  0.00    +0.000 C 
ATOM     13  O   UNL     1      -1.912  14.084  23.047  0.00  0.00    +0.000 OA
ATOM     14  H   UNL     1       0.280  13.052  22.838  0.00  0.00    +0.000 HD
ENDROOT
BRANCH   1  16
ATOM     15  C   UNL     1      -6.119  13.102  17.533  0.00  0.00    +0.000 C 
ATOM     16  C   UNL     1      -5.370  11.821  17.948  0.00  0.00    +0.000 C 
ATOM     17  C   UNL     1      -6.415  10.750  18.333  0.00  0.00    +0.000 C 
ATOM     18  C   UNL     1      -4.612  11.260  16.719  0.00  0.00    +0.000 C 
ENDBRANCH   1  16
BRANCH   8  19
ATOM     19  N   UNL     1       0.819   9.724  19.419  0.00  0.00    +0.000 N 
ATOM     20  H   UNL     1       1.450  10.059  18.682  0.00  0.00    +0.000 HD
BRANCH  19  21
ATOM     21  C   UNL     1       1.244   8.522  20.123  0.00  0.00    +0.000 C 
BRANCH  21  22
ATOM     22  C   UNL     1       2.212   7.713  19.280  0.00  0.00    +0.000 A 
ATOM     23  C   UNL     1       2.603   6.440  19.689  0.00  0.00    +0.000 A 
ATOM     24  C   UNL     1       3.571   5.764  18.947  0.00  0.00    +0.000 A 
ATOM     25  C   UNL     1       4.131   6.347  17.808  0.00  0.00    +0.000 A 
ATOM     26  C   UNL     1       3.624   7.589  17.444  0.00  0.00    +0.000 A 
ATOM     27  N   UNL     1       2.686   8.282  18.145  0.00  0.00    +0.000 NA
BRANCH  25  28
ATOM     28  C   UNL     1       5.225   5.766  17.049  0.00  0.00    +0.000 A 
ATOM     29  C   UNL     1       5.318   4.546  16.321  0.00  0.00    +0.000 A 
ATOM     30  C   UNL     1       6.548   4.537  15.714  0.00  0.00    +0.000 A 
ATOM     31  O   UNL     1       7.231   5.669  16.009  0.00  0.00    +0.000 OA
ATOM     32  C   UNL     1       6.430   6.412  16.813  0.00  0.00    +0.000 A 
ENDBRANCH  25  28
BRANCH  24  33
ATOM     33  O   UNL     1       3.971   4.518  19.354  0.00  0.00    +0.000 OA
ATOM     34  H   UNL     1       4.490   4.096  18.651  0.00  0.00    +0.000 HD
ENDBRANCH  24  33
ENDBRANCH  21  22
ENDBRANCH  19  21
ENDBRANCH   8  19
TORSDOF 6
ENDMDL
MODEL 7
REMARK VINA RESULT:      -7.8      2.535      3.974
REMARK  Name = 
REMARK  9 active torsions:
REMARK  status: ('A' for Active; 'I' for Inactive)
REMARK    1  A    between atoms: C_1  and  C_2
REMARK    2  A    between atoms: C_2  and  C_3
REMARK    3  A    between atoms: C_2  and  C_4
REMARK    4  A    between atoms: C_2  and  C_5
REMARK    5  A    between atoms: C_12  and  N_13
REMARK    6  A    between atoms: N_13  and  C_14
REMARK    7  A    between atoms: C_14  and  C_15
REMARK    8  A    between atoms: C_17  and  O_18
REMARK    9  A    between atoms: C_19  and  C_20
REMARK                            x       y       z     vdW  Elec       q    Type
REMARK                         _______ _______ _______ _____ _____    ______ ____
ROOT
ATOM      1  C   UNL     1      -4.338  12.137  19.051  0.00  0.00    +0.000 A 
ATOM      2  C   UNL     1      -4.746  13.069  20.018  0.00  0.00    +0.000 A 
ATOM      3  C   UNL     1      -3.891  13.451  21.057  0.00  0.00    +0.000 A 
ATOM      4  C   UNL     1      -2.609  12.903  21.154  0.00  0.00    +0.000 A 
ATOM      5  C   UNL     1      -2.157  11.979  20.208  0.00  0.00    +0.000 A 
ATOM      6  C   UNL     1      -3.024  11.633  19.157  0.00  0.00    +0.000 A 
ATOM      7  C   UNL     1      -0.773  11.468  20.307  0.00  0.00    +0.000 C 
ATOM      8  C   UNL     1      -0.338  10.361  19.673  0.00  0.00    +0.000 C 
ATOM      9  C   UNL     1       0.160  12.149  21.253  0.00  0.00    +0.000 C 
ATOM     10  O   UNL     1       1.377  12.186  21.109  0.00  0.00    +0.000 OA
ATOM     11  N   UNL     1      -0.463  12.770  22.304  0.00  0.00    +0.000 N 
ATOM     12  C   UNL     1      -1.714  13.334  22.252  0.00  0.00    +0.000 C 
ATOM     13  O   UNL     1      -2.053  14.202  23.049  0.00  0.00    +0.000 OA
ATOM     14  H   UNL     1       0.159  13.198  22.975  0.00  0.00    +0.000 HD
ENDROOT
BRANCH   1  16
ATOM     15  C   UNL     1      -6.207  10.637  18.358  0.00  0.00    +0.000 C 
ATOM     16  C   UNL     1      -5.238  11.730  17.870  0.00  0.00    +0.000 C 
ATOM     17  C   UNL     1      -4.450  11.177  16.661  0.00  0.00    +0.000 C 
ATOM     18  C   UNL     1      -6.061  12.929  17.334  0.00  0.00    +0.000 C 
ENDBRANCH   1  16
BRANCH   8  19
ATOM     19  N   UNL     1       0.902   9.771  19.693  0.00  0.00    +0.000 N 
ATOM     20  H   UNL     1       1.342   9.686  20.617  0.00  0.00    +0.000 HD
BRANCH  19  21
ATOM     21  C   UNL     1       1.753   9.466  18.552  0.00  0.00    +0.000 C 
BRANCH  21  22
ATOM     22  C   UNL     1       2.290   8.049  18.639  0.00  0.00    +0.000 A 
ATOM     23  C   UNL     1       3.159   7.567  17.663  0.00  0.00    +0.000 A 
ATOM     24  C   UNL     1       3.554   6.231  17.715  0.00  0.00    +0.000 A 
ATOM     25  C   UNL     1       3.094   5.392  18.733  0.00  0.00    +0.000 A 
ATOM     26  C   UNL     1       2.287   5.985  19.697  0.00  0.00    +0.000 A 
ATOM     27  N   UNL     1       1.876   7.282  19.677  0.00  0.00    +0.000 NA
BRANCH  25  28
ATOM     28  C   UNL     1       3.358   3.965  18.794  0.00  0.00    +0.000 A 
ATOM     29  C   UNL     1       2.914   2.892  17.969  0.00  0.00    +0.000 A 
ATOM     30  C   UNL     1       3.544   1.759  18.419  0.00  0.00    +0.000 A 
ATOM     31  O   UNL     1       4.353   2.048  19.465  0.00  0.00    +0.000 OA
ATOM     32  C   UNL     1       4.244   3.381  19.689  0.00  0.00    +0.000 A 
ENDBRANCH  25  28
BRANCH  24  33
ATOM     33  O   UNL     1       4.396   5.748  16.748  0.00  0.00    +0.000 OA
ATOM     34  H   UNL     1       4.586   6.447  16.102  0.00  0.00    +0.000 HD
ENDBRANCH  24  33
ENDBRANCH  21  22
ENDBRANCH  19  21
ENDBRANCH   8  19
TORSDOF 6
ENDMDL
MODEL 8
REMARK VINA RESULT:      -7.8      3.035     10.307
REMARK  Name = 
REMARK  9 active torsions:
REMARK  status: ('A' for Active; 'I' for Inactive)
REMARK    1  A    between atoms: C_1  and  C_2
REMARK    2  A    between atoms: C_2  and  C_3
REMARK    3  A    between atoms: C_2  and  C_4
REMARK    4  A    between atoms: C_2  and  C_5
REMARK    5  A    between atoms: C_12  and  N_13
REMARK    6  A    between atoms: N_13  and  C_14
REMARK    7  A    between atoms: C_14  and  C_15
REMARK    8  A    between atoms: C_17  and  O_18
REMARK    9  A    between atoms: C_19  and  C_20
REMARK                            x       y       z     vdW  Elec       q    Type
REMARK                         _______ _______ _______ _____ _____    ______ ____
ROOT
ATOM      1  C   UNL     1       4.896   4.563  16.757  0.00  0.00    +0.000 A 
ATOM      2  C   UNL     1       5.009   3.255  17.255  0.00  0.00    +0.000 A 
ATOM      3  C   UNL     1       4.342   2.869  18.423  0.00  0.00    +0.000 A 
ATOM      4  C   UNL     1       3.552   3.787  19.121  0.00  0.00    +0.000 A 
ATOM      5  C   UNL     1       3.404   5.097  18.656  0.00  0.00    +0.000 A 
ATOM      6  C   UNL     1       4.061   5.452  17.465  0.00  0.00    +0.000 A 
ATOM      7  C   UNL     1       2.511   6.021  19.386  0.00  0.00    +0.000 C 
ATOM      8  C   UNL     1       2.539   7.360  19.237  0.00  0.00    +0.000 C 
ATOM      9  C   UNL     1       1.611   5.449  20.431  0.00  0.00    +0.000 C 
ATOM     10  O   UNL     1       0.535   5.940  20.755  0.00  0.00    +0.000 OA
ATOM     11  N   UNL     1       2.076   4.288  20.995  0.00  0.00    +0.000 N 
ATOM     12  C   UNL     1       2.842   3.352  20.346  0.00  0.00    +0.000 C 
ATOM     13  O   UNL     1       2.887   2.189  20.732  0.00  0.00    +0.000 OA
ATOM     14  H   UNL     1       1.497   3.914  21.734  0.00  0.00    +0.000 HD
ENDROOT
BRANCH   1  16
ATOM     15  C   UNL     1       5.257   6.494  15.219  0.00  0.00    +0.000 C 
ATOM     16  C   UNL     1       5.581   5.006  15.451  0.00  0.00    +0.000 C 
ATOM     17  C   UNL     1       5.113   4.208  14.213  0.00  0.00    +0.000 C 
ATOM     18  C   UNL     1       7.119   4.832  15.519  0.00  0.00    +0.000 C 
ENDBRANCH   1  16
BRANCH   8  19
ATOM     19  N   UNL     1       1.786   8.326  19.861  0.00  0.00    +0.000 N 
ATOM     20  H   UNL     1       1.544   8.141  20.842  0.00  0.00    +0.000 HD
BRANCH  19  21
ATOM     21  C   UNL     1       1.108   9.454  19.239  0.00  0.00    +0.000 C 
BRANCH  21  22
ATOM     22  C   UNL     1       0.418  10.315  20.282  0.00  0.00    +0.000 A 
ATOM     23  C   UNL     1       0.212   9.827  21.570  0.00  0.00    +0.000 A 
ATOM     24  C   UNL     1      -0.513  10.602  22.474  0.00  0.00    +0.000 A 
ATOM     25  C   UNL     1      -1.017  11.850  22.098  0.00  0.00    +0.000 A 
ATOM     26  C   UNL     1      -0.698  12.277  20.815  0.00  0.00    +0.000 A 
ATOM     27  N   UNL     1       0.001  11.548  19.903  0.00  0.00    +0.000 NA
BRANCH  25  28
ATOM     28  C   UNL     1      -1.881  12.665  22.934  0.00  0.00    +0.000 A 
ATOM     29  C   UNL     1      -3.225  12.471  23.366  0.00  0.00    +0.000 A 
ATOM     30  C   UNL     1      -3.520  13.502  24.221  0.00  0.00    +0.000 A 
ATOM     31  O   UNL     1      -2.454  14.326  24.358  0.00  0.00    +0.000 OA
ATOM     32  C   UNL     1      -1.464  13.818  23.583  0.00  0.00    +0.000 A 
ENDBRANCH  25  28
BRANCH  24  33
ATOM     33  O   UNL     1      -0.732  10.120  23.738  0.00  0.00    +0.000 OA
ATOM     34  H   UNL     1      -1.624   9.740  23.793  0.00  0.00    +0.000 HD
ENDBRANCH  24  33
ENDBRANCH  21  22
ENDBRANCH  19  21
ENDBRANCH   8  19
TORSDOF 6
ENDMDL
MODEL 9
REMARK VINA RESULT:      -7.7      2.486      4.068
REMARK  Name = 
REMARK  9 active torsions:
REMARK  status: ('A' for Active; 'I' for Inactive)
REMARK    1  A    between atoms: C_1  and  C_2
REMARK    2  A    between atoms: C_2  and  C_3
REMARK    3  A    between atoms: C_2  and  C_4
REMARK    4  A    between atoms: C_2  and  C_5
REMARK    5  A    between atoms: C_12  and  N_13
REMARK    6  A    between atoms: N_13  and  C_14
REMARK    7  A    between atoms: C_14  and  C_15
REMARK    8  A    between atoms: C_17  and  O_18
REMARK    9  A    between atoms: C_19  and  C_20
REMARK                            x       y       z     vdW  Elec       q    Type
REMARK                         _______ _______ _______ _____ _____    ______ ____
ROOT
ATOM      1  C   UNL     1      -4.351  12.133  19.014  0.00  0.00    +0.000 A 
ATOM      2  C   UNL     1      -4.729  13.051  20.007  0.00  0.00    +0.000 A 
ATOM      3  C   UNL     1      -3.847  13.405  21.033  0.00  0.00    +0.000 A 
ATOM      4  C   UNL     1      -2.568  12.844  21.091  0.00  0.00    +0.000 A 
ATOM      5  C   UNL     1      -2.147  11.933  20.118  0.00  0.00    +0.000 A 
ATOM      6  C   UNL     1      -3.041  11.615  19.081  0.00  0.00    +0.000 A 
ATOM      7  C   UNL     1      -0.766  11.408  20.176  0.00  0.00    +0.000 C 
ATOM      8  C   UNL     1      -0.356  10.309  19.512  0.00  0.00    +0.000 C 
ATOM      9  C   UNL     1       0.195  12.063  21.113  0.00  0.00    +0.000 C 
ATOM     10  O   UNL     1       1.409  12.091  20.942  0.00  0.00    +0.000 OA
ATOM     11  N   UNL     1      -0.398  12.670  22.189  0.00  0.00    +0.000 N 
ATOM     12  C   UNL     1      -1.644  13.246  22.176  0.00  0.00    +0.000 C 
ATOM     13  O   UNL     1      -1.957  14.103  22.996  0.00  0.00    +0.000 OA
ATOM     14  H   UNL     1       0.243  13.080  22.853  0.00  0.00    +0.000 HD
ENDROOT
BRANCH   1  16
ATOM     15  C   UNL     1      -4.421  11.155  16.720  0.00  0.00    +0.000 C 
ATOM     16  C   UNL     1      -5.282  11.756  17.847  0.00  0.00    +0.000 C 
ATOM     17  C   UNL     1      -6.062  12.960  17.273  0.00  0.00    +0.000 C 
ATOM     18  C   UNL     1      -6.349  10.717  18.274  0.00  0.00    +0.000 C 
ENDBRANCH   1  16
BRANCH   8  19
ATOM     19  N   UNL     1       0.879   9.707  19.494  0.00  0.00    +0.000 N 
ATOM     20  H   UNL     1       1.511  10.006  18.742  0.00  0.00    +0.000 HD
BRANCH  19  21
ATOM     21  C   UNL     1       1.307   8.549  20.263  0.00  0.00    +0.000 C 
BRANCH  21  22
ATOM     22  C   UNL     1       2.199   7.644  19.433  0.00  0.00    +0.000 A 
ATOM     23  C   UNL     1       2.577   6.394  19.918  0.00  0.00    +0.000 A 
ATOM     24  C   UNL     1       3.477   5.630  19.177  0.00  0.00    +0.000 A 
ATOM     25  C   UNL     1       3.985   6.105  17.964  0.00  0.00    +0.000 A 
ATOM     26  C   UNL     1       3.493   7.330  17.534  0.00  0.00    +0.000 A 
ATOM     27  N   UNL     1       2.620   8.107  18.230  0.00  0.00    +0.000 NA
BRANCH  25  28
ATOM     28  C   UNL     1       5.013   5.430  17.192  0.00  0.00    +0.000 A 
ATOM     29  C   UNL     1       6.418   5.648  17.106  0.00  0.00    +0.000 A 
ATOM     30  C   UNL     1       6.926   4.661  16.300  0.00  0.00    +0.000 A 
ATOM     31  O   UNL     1       5.937   3.837  15.878  0.00  0.00    +0.000 OA
ATOM     32  C   UNL     1       4.783   4.300  16.420  0.00  0.00    +0.000 A 
ENDBRANCH  25  28
BRANCH  24  33
ATOM     33  O   UNL     1       3.864   4.407  19.657  0.00  0.00    +0.000 OA
ATOM     34  H   UNL     1       3.157   4.033  20.207  0.00  0.00    +0.000 HD
ENDBRANCH  24  33
ENDBRANCH  21  22
ENDBRANCH  19  21
ENDBRANCH   8  19
TORSDOF 6
ENDMDL
