MODEL 1
REMARK VINA RESULT:      -7.2      0.000      0.000
REMARK  Name = 
REMARK  6 active torsions:
REMARK  status: ('A' for Active; 'I' for Inactive)
REMARK    1  A    between atoms: C_2  and  O_3
REMARK    2  A    between atoms: C_2  and  C_4
REMARK    3  A    between atoms: C_4  and  N_5
REMARK    4  A    between atoms: C_9  and  C_10
REMARK    5  A    between atoms: N_12  and  C_13
REMARK    6  A    between atoms: C_20  and  C_21
REMARK                            x       y       z     vdW  Elec       q    Type
REMARK                         _______ _______ _______ _____ _____    ______ ____
ROOT
ATOM      1  C   UNL     1       6.932   5.930  18.168  0.00  0.00    +0.000 A 
ATOM      2  C   UNL     1       7.453   6.973  18.891  0.00  0.00    +0.000 A 
ATOM      3  N   UNL     1       7.890   7.906  17.978  0.00  0.00    +0.000 N 
ATOM      4  N   UNL     1       7.699   7.480  16.703  0.00  0.00    +0.000 NA
ATOM      5  C   UNL     1       7.147   6.260  16.804  0.00  0.00    +0.000 A 
ENDROOT
BRANCH   1  10
ATOM      6  N   UNL     1       3.094   3.789  20.108  0.00  0.00    +0.000 N 
ATOM      7  C   UNL     1       4.397   3.537  19.715  0.00  0.00    +0.000 C 
ATOM      8  O   UNL     1       4.950   2.445  19.739  0.00  0.00    +0.000 OA
ATOM      9  C   UNL     1       5.031   4.777  19.207  0.00  0.00    +0.000 C 
ATOM     10  C   UNL     1       6.285   4.799  18.741  0.00  0.00    +0.000 C 
ATOM     11  S   UNL     1       3.919   6.086  19.290  0.00  0.00    +0.000 S 
ATOM     12  C   UNL     1       2.655   5.090  19.997  0.00  0.00    +0.000 C 
ATOM     13  S   UNL     1       1.161   5.704  20.412  0.00  0.00    +0.000 S 
BRANCH   6  14
ATOM     14  C   UNL     1       2.311   2.690  20.665  0.00  0.00    +0.000 C 
BRANCH  14  16
ATOM     15  O   UNL     1       0.254   2.279  19.420  0.00  0.00    +0.000 OA
ATOM     16  C   UNL     1       1.445   2.055  19.584  0.00  0.00    +0.000 C 
BRANCH  16  17
ATOM     17  O   UNL     1       2.131   1.199  18.789  0.00  0.00    +0.000 OA
ATOM     18  H   UNL     1       2.868   0.723  19.220  0.00  0.00    +0.000 HD
ENDBRANCH  16  17
ENDBRANCH  14  16
ENDBRANCH   6  14
ENDBRANCH   1  10
BRANCH   5  19
ATOM     19  C   UNL     1       6.825   5.475  15.607  0.00  0.00    +0.000 A 
ATOM     20  C   UNL     1       5.624   4.752  15.522  0.00  0.00    +0.000 A 
ATOM     21  C   UNL     1       5.309   4.019  14.375  0.00  0.00    +0.000 A 
ATOM     22  C   UNL     1       6.203   3.989  13.308  0.00  0.00    +0.000 A 
ATOM     23 BR   UNL     1       5.777   2.994  11.759  0.00  0.00    +0.000 Br
ATOM     24  C   UNL     1       7.410   4.682  13.380  0.00  0.00    +0.000 A 
ATOM     25  C   UNL     1       7.719   5.421  14.527  0.00  0.00    +0.000 A 
ENDBRANCH   5  19
BRANCH   3  26
ATOM     26  C   UNL     1       8.456   9.183  18.252  0.00  0.00    +0.000 A 
ATOM     27  C   UNL     1       9.292   9.382  19.362  0.00  0.00    +0.000 A 
ATOM     28  C   UNL     1       9.815  10.650  19.629  0.00  0.00    +0.000 A 
ATOM     29  C   UNL     1       9.506  11.724  18.799  0.00  0.00    +0.000 A 
ATOM     30  C   UNL     1       8.684  11.534  17.689  0.00  0.00    +0.000 A 
ATOM     31  C   UNL     1       8.165  10.267  17.409  0.00  0.00    +0.000 A 
ENDBRANCH   3  26
TORSDOF 6
ENDMDL
MODEL 2
REMARK VINA RESULT:      -7.2      0.042      1.248
REMARK  Name = 
REMARK  6 active torsions:
REMARK  status: ('A' for Active; 'I' for Inactive)
REMARK    1  A    between atoms: C_2  and  O_3
REMARK    2  A    between atoms: C_2  and  C_4
REMARK    3  A    between atoms: C_4  and  N_5
REMARK    4  A    between atoms: C_9  and  C_10
REMARK    5  A    between atoms: N_12  and  C_13
REMARK    6  A    between atoms: C_20  and  C_21
REMARK                            x       y       z     vdW  Elec       q    Type
REMARK                         _______ _______ _______ _____ _____    ______ ____
ROOT
ATOM      1  C   UNL     1       6.936   5.937  18.165  0.00  0.00    +0.000 A 
ATOM      2  C   UNL     1       7.452   6.979  18.892  0.00  0.00    +0.000 A 
ATOM      3  N   UNL     1       7.886   7.918  17.983  0.00  0.00    +0.000 N 
ATOM      4  N   UNL     1       7.696   7.496  16.706  0.00  0.00    +0.000 NA
ATOM      5  C   UNL     1       7.149   6.274  16.802  0.00  0.00    +0.000 A 
ENDROOT
BRANCH   1  10
ATOM      6  N   UNL     1       3.110   3.772  20.102  0.00  0.00    +0.000 N 
ATOM      7  C   UNL     1       4.412   3.527  19.704  0.00  0.00    +0.000 C 
ATOM      8  O   UNL     1       4.969   2.436  19.720  0.00  0.00    +0.000 OA
ATOM      9  C   UNL     1       5.041   4.771  19.202  0.00  0.00    +0.000 C 
ATOM     10  C   UNL     1       6.294   4.800  18.732  0.00  0.00    +0.000 C 
ATOM     11  S   UNL     1       3.926   6.077  19.295  0.00  0.00    +0.000 S 
ATOM     12  C   UNL     1       2.666   5.073  20.000  0.00  0.00    +0.000 C 
ATOM     13  S   UNL     1       1.171   5.680  20.421  0.00  0.00    +0.000 S 
BRANCH   6  14
ATOM     14  C   UNL     1       2.331   2.668  20.654  0.00  0.00    +0.000 C 
BRANCH  14  16
ATOM     15  O   UNL     1       0.262   2.237  19.436  0.00  0.00    +0.000 OA
ATOM     16  C   UNL     1       1.461   2.039  19.573  0.00  0.00    +0.000 C 
BRANCH  16  17
ATOM     17  O   UNL     1       2.154   1.223  18.742  0.00  0.00    +0.000 OA
ATOM     18  H   UNL     1       2.437   0.371  19.129  0.00  0.00    +0.000 HD
ENDBRANCH  16  17
ENDBRANCH  14  16
ENDBRANCH   6  14
ENDBRANCH   1  10
BRANCH   5  19
ATOM     19  C   UNL     1       6.831   5.492  15.602  0.00  0.00    +0.000 A 
ATOM     20  C   UNL     1       7.729   5.427  14.525  0.00  0.00    +0.000 A 
ATOM     21  C   UNL     1       7.433   4.668  13.390  0.00  0.00    +0.000 A 
ATOM     22  C   UNL     1       6.226   3.979  13.317  0.00  0.00    +0.000 A 
ATOM     23 BR   UNL     1       5.827   2.955  11.779  0.00  0.00    +0.000 Br
ATOM     24  C   UNL     1       5.311   4.046  14.365  0.00  0.00    +0.000 A 
ATOM     25  C   UNL     1       5.613   4.801  15.503  0.00  0.00    +0.000 A 
ENDBRANCH   5  19
BRANCH   3  26
ATOM     26  C   UNL     1       8.446   9.196  18.263  0.00  0.00    +0.000 A 
ATOM     27  C   UNL     1       8.200  10.294  17.424  0.00  0.00    +0.000 A 
ATOM     28  C   UNL     1       8.781  11.534  17.701  0.00  0.00    +0.000 A 
ATOM     29  C   UNL     1       9.613  11.686  18.807  0.00  0.00    +0.000 A 
ATOM     30  C   UNL     1       9.855  10.604  19.651  0.00  0.00    +0.000 A 
ATOM     31  C   UNL     1       9.269   9.363  19.387  0.00  0.00    +0.000 A 
ENDBRANCH   3  26
TORSDOF 6
ENDMDL
MODEL 3
REMARK VINA RESULT:      -7.1      9.592     11.666
REMARK  Name = 
REMARK  6 active torsions:
REMARK  status: ('A' for Active; 'I' for Inactive)
REMARK    1  A    between atoms: C_2  and  O_3
REMARK    2  A    between atoms: C_2  and  C_4
REMARK    3  A    between atoms: C_4  and  N_5
REMARK    4  A    between atoms: C_9  and  C_10
REMARK    5  A    between atoms: N_12  and  C_13
REMARK    6  A    between atoms: C_20  and  C_21
REMARK                            x       y       z     vdW  Elec       q    Type
REMARK                         _______ _______ _______ _____ _____    ______ ____
ROOT
ATOM      1  C   UNL     1      -0.496  11.821  21.169  0.00  0.00    +0.000 A 
ATOM      2  C   UNL     1      -0.240  10.487  20.973  0.00  0.00    +0.000 A 
ATOM      3  N   UNL     1       0.745  10.411  20.015  0.00  0.00    +0.000 N 
ATOM      4  N   UNL     1       1.099  11.644  19.569  0.00  0.00    +0.000 NA
ATOM      5  C   UNL     1       0.325  12.512  20.239  0.00  0.00    +0.000 A 
ENDROOT
BRANCH   1  10
ATOM      6  N   UNL     1      -4.837  13.344  22.551  0.00  0.00    +0.000 N 
ATOM      7  C   UNL     1      -3.564  13.105  23.036  0.00  0.00    +0.000 C 
ATOM      8  O   UNL     1      -3.216  13.208  24.206  0.00  0.00    +0.000 OA
ATOM      9  C   UNL     1      -2.671  12.654  21.942  0.00  0.00    +0.000 C 
ATOM     10  C   UNL     1      -1.389  12.333  22.152  0.00  0.00    +0.000 C 
ATOM     11  S   UNL     1      -3.539  12.591  20.459  0.00  0.00    +0.000 S 
ATOM     12  C   UNL     1      -5.028  13.165  21.198  0.00  0.00    +0.000 C 
ATOM     13  S   UNL     1      -6.428  13.398  20.322  0.00  0.00    +0.000 S 
BRANCH   6  14
ATOM     14  C   UNL     1      -5.857  13.824  23.479  0.00  0.00    +0.000 C 
BRANCH  14  16
ATOM     15  O   UNL     1      -7.854  12.546  24.049  0.00  0.00    +0.000 OA
ATOM     16  C   UNL     1      -6.636  12.653  24.064  0.00  0.00    +0.000 C 
BRANCH  16  17
ATOM     17  O   UNL     1      -5.837  11.705  24.612  0.00  0.00    +0.000 OA
ATOM     18  H   UNL     1      -6.287  10.881  24.882  0.00  0.00    +0.000 HD
ENDBRANCH  16  17
ENDBRANCH  14  16
ENDBRANCH   6  14
ENDBRANCH   1  10
BRANCH   5  19
ATOM     19  C   UNL     1       0.415  13.955  19.989  0.00  0.00    +0.000 A 
ATOM     20  C   UNL     1      -0.431  14.579  19.059  0.00  0.00    +0.000 A 
ATOM     21  C   UNL     1      -0.357  15.956  18.834  0.00  0.00    +0.000 A 
ATOM     22  C   UNL     1       0.578  16.719  19.528  0.00  0.00    +0.000 A 
ATOM     23 BR   UNL     1       0.678  18.581  19.220  0.00  0.00    +0.000 Br
ATOM     24  C   UNL     1       1.442  16.117  20.441  0.00  0.00    +0.000 A 
ATOM     25  C   UNL     1       1.361  14.739  20.669  0.00  0.00    +0.000 A 
ENDBRANCH   5  19
BRANCH   3  26
ATOM     26  C   UNL     1       1.379   9.237  19.521  0.00  0.00    +0.000 A 
ATOM     27  C   UNL     1       1.567   8.114  20.342  0.00  0.00    +0.000 A 
ATOM     28  C   UNL     1       2.217   6.982  19.846  0.00  0.00    +0.000 A 
ATOM     29  C   UNL     1       2.687   6.961  18.535  0.00  0.00    +0.000 A 
ATOM     30  C   UNL     1       2.497   8.068  17.709  0.00  0.00    +0.000 A 
ATOM     31  C   UNL     1       1.839   9.201  18.195  0.00  0.00    +0.000 A 
ENDBRANCH   3  26
TORSDOF 6
ENDMDL
MODEL 4
REMARK VINA RESULT:      -6.8      8.345     11.105
REMARK  Name = 
REMARK  6 active torsions:
REMARK  status: ('A' for Active; 'I' for Inactive)
REMARK    1  A    between atoms: C_2  and  O_3
REMARK    2  A    between atoms: C_2  and  C_4
REMARK    3  A    between atoms: C_4  and  N_5
REMARK    4  A    between atoms: C_9  and  C_10
REMARK    5  A    between atoms: N_12  and  C_13
REMARK    6  A    between atoms: C_20  and  C_21
REMARK                            x       y       z     vdW  Elec       q    Type
REMARK                         _______ _______ _______ _____ _____    ______ ____
ROOT
ATOM      1  C   UNL     1       0.053  11.915  19.881  0.00  0.00    +0.000 A 
ATOM      2  C   UNL     1      -1.133  12.585  19.725  0.00  0.00    +0.000 A 
ATOM      3  N   UNL     1      -2.019  11.693  19.165  0.00  0.00    +0.000 N 
ATOM      4  N   UNL     1      -1.431  10.493  18.927  0.00  0.00    +0.000 NA
ATOM      5  C   UNL     1      -0.156  10.625  19.326  0.00  0.00    +0.000 A 
ENDROOT
BRANCH   1  10
ATOM      6  N   UNL     1       3.651  15.090  20.112  0.00  0.00    +0.000 N 
ATOM      7  C   UNL     1       3.083  14.038  20.809  0.00  0.00    +0.000 C 
ATOM      8  O   UNL     1       3.434  13.642  21.913  0.00  0.00    +0.000 OA
ATOM      9  C   UNL     1       1.943  13.472  20.049  0.00  0.00    +0.000 C 
ATOM     10  C   UNL     1       1.206  12.458  20.516  0.00  0.00    +0.000 C 
ATOM     11  S   UNL     1       1.735  14.327  18.571  0.00  0.00    +0.000 S 
ATOM     12  C   UNL     1       3.105  15.385  18.882  0.00  0.00    +0.000 C 
ATOM     13  S   UNL     1       3.583  16.566  17.806  0.00  0.00    +0.000 S 
BRANCH   6  14
ATOM     14  C   UNL     1       4.811  15.762  20.691  0.00  0.00    +0.000 C 
BRANCH  14  16
ATOM     15  O   UNL     1       6.670  14.998  19.311  0.00  0.00    +0.000 OA
ATOM     16  C   UNL     1       6.083  14.983  20.383  0.00  0.00    +0.000 C 
BRANCH  16  17
ATOM     17  O   UNL     1       6.528  14.257  21.436  0.00  0.00    +0.000 OA
ATOM     18  H   UNL     1       6.055  14.403  22.279  0.00  0.00    +0.000 HD
ENDBRANCH  16  17
ENDBRANCH  14  16
ENDBRANCH   6  14
ENDBRANCH   1  10
BRANCH   5  19
ATOM     19  C   UNL     1       0.798   9.518  19.190  0.00  0.00    +0.000 A 
ATOM     20  C   UNL     1       1.084   8.676  20.276  0.00  0.00    +0.000 A 
ATOM     21  C   UNL     1       1.979   7.611  20.141  0.00  0.00    +0.000 A 
ATOM     22  C   UNL     1       2.608   7.390  18.919  0.00  0.00    +0.000 A 
ATOM     23 BR   UNL     1       3.820   5.951  18.739  0.00  0.00    +0.000 Br
ATOM     24  C   UNL     1       2.354   8.226  17.834  0.00  0.00    +0.000 A 
ATOM     25  C   UNL     1       1.453   9.287  17.970  0.00  0.00    +0.000 A 
ENDBRANCH   5  19
BRANCH   3  26
ATOM     26  C   UNL     1      -3.394  11.913  18.867  0.00  0.00    +0.000 A 
ATOM     27  C   UNL     1      -4.246  12.533  19.794  0.00  0.00    +0.000 A 
ATOM     28  C   UNL     1      -5.598  12.714  19.494  0.00  0.00    +0.000 A 
ATOM     29  C   UNL     1      -6.110  12.277  18.275  0.00  0.00    +0.000 A 
ATOM     30  C   UNL     1      -5.269  11.668  17.344  0.00  0.00    +0.000 A 
ATOM     31  C   UNL     1      -3.913  11.492  17.633  0.00  0.00    +0.000 A 
ENDBRANCH   3  26
TORSDOF 6
ENDMDL
MODEL 5
REMARK VINA RESULT:      -6.7      8.642     11.357
REMARK  Name = 
REMARK  6 active torsions:
REMARK  status: ('A' for Active; 'I' for Inactive)
REMARK    1  A    between atoms: C_2  and  O_3
REMARK    2  A    between atoms: C_2  and  C_4
REMARK    3  A    between atoms: C_4  and  N_5
REMARK    4  A    between atoms: C_9  and  C_10
REMARK    5  A    between atoms: N_12  and  C_13
REMARK    6  A    between atoms: C_20  and  C_21
REMARK                            x       y       z     vdW  Elec       q    Type
REMARK                         _______ _______ _______ _____ _____    ______ ____
ROOT
ATOM      1  C   UNL     1      -0.080  11.923  19.881  0.00  0.00    +0.000 A 
ATOM      2  C   UNL     1      -1.265  12.584  19.677  0.00  0.00    +0.000 A 
ATOM      3  N   UNL     1      -2.134  11.674  19.122  0.00  0.00    +0.000 N 
ATOM      4  N   UNL     1      -1.537  10.469  18.933  0.00  0.00    +0.000 NA
ATOM      5  C   UNL     1      -0.273  10.616  19.360  0.00  0.00    +0.000 A 
ENDROOT
BRANCH   1  10
ATOM      6  N   UNL     1       3.804  14.748  19.898  0.00  0.00    +0.000 N 
ATOM      7  C   UNL     1       3.057  13.923  20.720  0.00  0.00    +0.000 C 
ATOM      8  O   UNL     1       3.248  13.745  21.916  0.00  0.00    +0.000 OA
ATOM      9  C   UNL     1       1.943  13.309  19.958  0.00  0.00    +0.000 C 
ATOM     10  C   UNL     1       1.055  12.487  20.529  0.00  0.00    +0.000 C 
ATOM     11  S   UNL     1       1.981  13.842  18.323  0.00  0.00    +0.000 S 
ATOM     12  C   UNL     1       3.421  14.818  18.577  0.00  0.00    +0.000 C 
ATOM     13  S   UNL     1       4.133  15.694  17.350  0.00  0.00    +0.000 S 
BRANCH   6  14
ATOM     14  C   UNL     1       4.967  15.425  20.465  0.00  0.00    +0.000 C 
BRANCH  14  16
ATOM     15  O   UNL     1       4.547  17.821  20.295  0.00  0.00    +0.000 OA
ATOM     16  C   UNL     1       4.580  16.807  20.977  0.00  0.00    +0.000 C 
BRANCH  16  17
ATOM     17  O   UNL     1       4.256  16.814  22.292  0.00  0.00    +0.000 OA
ATOM     18  H   UNL     1       3.908  17.660  22.636  0.00  0.00    +0.000 HD
ENDBRANCH  16  17
ENDBRANCH  14  16
ENDBRANCH   6  14
ENDBRANCH   1  10
BRANCH   5  19
ATOM     19  C   UNL     1       0.686   9.509  19.278  0.00  0.00    +0.000 A 
ATOM     20  C   UNL     1       0.964   8.713  20.401  0.00  0.00    +0.000 A 
ATOM     21  C   UNL     1       1.864   7.647  20.318  0.00  0.00    +0.000 A 
ATOM     22  C   UNL     1       2.507   7.379  19.113  0.00  0.00    +0.000 A 
ATOM     23 BR   UNL     1       3.726   5.939  19.005  0.00  0.00    +0.000 Br
ATOM     24  C   UNL     1       2.262   8.170  17.992  0.00  0.00    +0.000 A 
ATOM     25  C   UNL     1       1.356   9.232  18.076  0.00  0.00    +0.000 A 
ENDBRANCH   5  19
BRANCH   3  26
ATOM     26  C   UNL     1      -3.502  11.880  18.785  0.00  0.00    +0.000 A 
ATOM     27  C   UNL     1      -4.000  11.518  17.524  0.00  0.00    +0.000 A 
ATOM     28  C   UNL     1      -5.338  11.755  17.202  0.00  0.00    +0.000 A 
ATOM     29  C   UNL     1      -6.186  12.357  18.130  0.00  0.00    +0.000 A 
ATOM     30  C   UNL     1      -5.702  12.711  19.388  0.00  0.00    +0.000 A 
ATOM     31  C   UNL     1      -4.367  12.468  19.720  0.00  0.00    +0.000 A 
ENDBRANCH   3  26
TORSDOF 6
ENDMDL
MODEL 6
REMARK VINA RESULT:      -6.7      9.469     11.594
REMARK  Name = 
REMARK  6 active torsions:
REMARK  status: ('A' for Active; 'I' for Inactive)
REMARK    1  A    between atoms: C_2  and  O_3
REMARK    2  A    between atoms: C_2  and  C_4
REMARK    3  A    between atoms: C_4  and  N_5
REMARK    4  A    between atoms: C_9  and  C_10
REMARK    5  A    between atoms: N_12  and  C_13
REMARK    6  A    between atoms: C_20  and  C_21
REMARK                            x       y       z     vdW  Elec       q    Type
REMARK                         _______ _______ _______ _____ _____    ______ ____
ROOT
ATOM      1  C   UNL     1      -1.143  11.653  19.309  0.00  0.00    +0.000 A 
ATOM      2  C   UNL     1      -0.786  10.350  19.072  0.00  0.00    +0.000 A 
ATOM      3  N   UNL     1       0.589  10.304  19.108  0.00  0.00    +0.000 N 
ATOM      4  N   UNL     1       1.121  11.535  19.323  0.00  0.00    +0.000 NA
ATOM      5  C   UNL     1       0.076  12.374  19.412  0.00  0.00    +0.000 A 
ENDROOT
BRANCH   1  10
ATOM      6  N   UNL     1      -4.843  13.136  21.989  0.00  0.00    +0.000 N 
ATOM      7  C   UNL     1      -4.469  12.927  20.673  0.00  0.00    +0.000 C 
ATOM      8  O   UNL     1      -5.148  13.188  19.689  0.00  0.00    +0.000 OA
ATOM      9  C   UNL     1      -3.094  12.377  20.610  0.00  0.00    +0.000 C 
ATOM     10  C   UNL     1      -2.484  12.108  19.449  0.00  0.00    +0.000 C 
ATOM     11  S   UNL     1      -2.455  12.196  22.197  0.00  0.00    +0.000 S 
ATOM     12  C   UNL     1      -3.930  12.780  22.957  0.00  0.00    +0.000 C 
ATOM     13  S   UNL     1      -4.099  12.885  24.612  0.00  0.00    +0.000 S 
BRANCH   6  14
ATOM     14  C   UNL     1      -6.182  13.652  22.257  0.00  0.00    +0.000 C 
BRANCH  14  16
ATOM     15  O   UNL     1      -7.379  11.793  23.287  0.00  0.00    +0.000 OA
ATOM     16  C   UNL     1      -7.189  12.509  22.314  0.00  0.00    +0.000 C 
BRANCH  16  17
ATOM     17  O   UNL     1      -7.883  12.356  21.161  0.00  0.00    +0.000 OA
ATOM     18  H   UNL     1      -7.687  13.009  20.462  0.00  0.00    +0.000 HD
ENDBRANCH  16  17
ENDBRANCH  14  16
ENDBRANCH   6  14
ENDBRANCH   1  10
BRANCH   5  19
ATOM     19  C   UNL     1       0.278  13.813  19.617  0.00  0.00    +0.000 A 
ATOM     20  C   UNL     1       0.807  14.302  20.822  0.00  0.00    +0.000 A 
ATOM     21  C   UNL     1       1.016  15.671  21.010  0.00  0.00    +0.000 A 
ATOM     22  C   UNL     1       0.680  16.564  19.997  0.00  0.00    +0.000 A 
ATOM     23 BR   UNL     1       0.961  18.416  20.255  0.00  0.00    +0.000 Br
ATOM     24  C   UNL     1       0.135  16.103  18.801  0.00  0.00    +0.000 A 
ATOM     25  C   UNL     1      -0.067  14.732  18.613  0.00  0.00    +0.000 A 
ENDBRANCH   5  19
BRANCH   3  26
ATOM     26  C   UNL     1       1.418   9.156  18.972  0.00  0.00    +0.000 A 
ATOM     27  C   UNL     1       2.161   8.933  17.802  0.00  0.00    +0.000 A 
ATOM     28  C   UNL     1       2.948   7.785  17.677  0.00  0.00    +0.000 A 
ATOM     29  C   UNL     1       2.996   6.853  18.711  0.00  0.00    +0.000 A 
ATOM     30  C   UNL     1       2.269   7.071  19.880  0.00  0.00    +0.000 A 
ATOM     31  C   UNL     1       1.488   8.221  20.016  0.00  0.00    +0.000 A 
ENDBRANCH   3  26
TORSDOF 6
ENDMDL
MODEL 7
REMARK VINA RESULT:      -6.7      9.308     11.426
REMARK  Name = 
REMARK  6 active torsions:
REMARK  status: ('A' for Active; 'I' for Inactive)
REMARK    1  A    between atoms: C_2  and  O_3
REMARK    2  A    between atoms: C_2  and  C_4
REMARK    3  A    between atoms: C_4  and  N_5
REMARK    4  A    between atoms: C_9  and  C_10
REMARK    5  A    between atoms: N_12  and  C_13
REMARK    6  A    between atoms: C_20  and  C_21
REMARK                            x       y       z     vdW  Elec       q    Type
REMARK                         _______ _______ _______ _____ _____    ______ ____
ROOT
ATOM      1  C   UNL     1      -0.163  11.700  20.936  0.00  0.00    +0.000 A 
ATOM      2  C   UNL     1       0.066  10.350  20.851  0.00  0.00    +0.000 A 
ATOM      3  N   UNL     1       0.997  10.170  19.854  0.00  0.00    +0.000 N 
ATOM      4  N   UNL     1       1.343  11.350  19.278  0.00  0.00    +0.000 NA
ATOM      5  C   UNL     1       0.616  12.289  19.905  0.00  0.00    +0.000 A 
ENDROOT
BRANCH   1  10
ATOM      6  N   UNL     1      -4.404  13.420  22.394  0.00  0.00    +0.000 N 
ATOM      7  C   UNL     1      -3.110  13.203  22.834  0.00  0.00    +0.000 C 
ATOM      8  O   UNL     1      -2.699  13.405  23.969  0.00  0.00    +0.000 OA
ATOM      9  C   UNL     1      -2.283  12.639  21.740  0.00  0.00    +0.000 C 
ATOM     10  C   UNL     1      -0.996  12.315  21.913  0.00  0.00    +0.000 C 
ATOM     11  S   UNL     1      -3.229  12.458  20.316  0.00  0.00    +0.000 S 
ATOM     12  C   UNL     1      -4.669  13.123  21.075  0.00  0.00    +0.000 C 
ATOM     13  S   UNL     1      -6.109  13.301  20.255  0.00  0.00    +0.000 S 
BRANCH   6  14
ATOM     14  C   UNL     1      -5.367  14.001  23.326  0.00  0.00    +0.000 C 
BRANCH  14  16
ATOM     15  O   UNL     1      -5.677  11.948  24.606  0.00  0.00    +0.000 OA
ATOM     16  C   UNL     1      -6.165  12.903  24.017  0.00  0.00    +0.000 C 
BRANCH  16  17
ATOM     17  O   UNL     1      -7.505  13.084  23.928  0.00  0.00    +0.000 OA
ATOM     18  H   UNL     1      -8.051  12.439  24.418  0.00  0.00    +0.000 HD
ENDBRANCH  16  17
ENDBRANCH  14  16
ENDBRANCH   6  14
ENDBRANCH   1  10
BRANCH   5  19
ATOM     19  C   UNL     1       0.711  13.701  19.519  0.00  0.00    +0.000 A 
ATOM     20  C   UNL     1       1.927  14.396  19.620  0.00  0.00    +0.000 A 
ATOM     21  C   UNL     1       2.021  15.736  19.235  0.00  0.00    +0.000 A 
ATOM     22  C   UNL     1       0.893  16.397  18.760  0.00  0.00    +0.000 A 
ATOM     23 BR   UNL     1       1.022  18.211  18.243  0.00  0.00    +0.000 Br
ATOM     24  C   UNL     1      -0.329  15.734  18.671  0.00  0.00    +0.000 A 
ATOM     25  C   UNL     1      -0.419  14.390  19.051  0.00  0.00    +0.000 A 
ENDBRANCH   5  19
BRANCH   3  26
ATOM     26  C   UNL     1       1.590   8.945  19.437  0.00  0.00    +0.000 A 
ATOM     27  C   UNL     1       2.058   8.776  18.125  0.00  0.00    +0.000 A 
ATOM     28  C   UNL     1       2.611   7.556  17.728  0.00  0.00    +0.000 A 
ATOM     29  C   UNL     1       2.697   6.499  18.631  0.00  0.00    +0.000 A 
ATOM     30  C   UNL     1       2.244   6.661  19.939  0.00  0.00    +0.000 A 
ATOM     31  C   UNL     1       1.698   7.881  20.346  0.00  0.00    +0.000 A 
ENDBRANCH   3  26
TORSDOF 6
ENDMDL
MODEL 8
REMARK VINA RESULT:      -6.6      9.641     11.704
REMARK  Name = 
REMARK  6 active torsions:
REMARK  status: ('A' for Active; 'I' for Inactive)
REMARK    1  A    between atoms: C_2  and  O_3
REMARK    2  A    between atoms: C_2  and  C_4
REMARK    3  A    between atoms: C_4  and  N_5
REMARK    4  A    between atoms: C_9  and  C_10
REMARK    5  A    between atoms: N_12  and  C_13
REMARK    6  A    between atoms: C_20  and  C_21
REMARK                            x       y       z     vdW  Elec       q    Type
REMARK                         _______ _______ _______ _____ _____    ______ ____
ROOT
ATOM      1  C   UNL     1      -0.443  11.463  21.008  0.00  0.00    +0.000 A 
ATOM      2  C   UNL     1      -0.155  10.141  20.783  0.00  0.00    +0.000 A 
ATOM      3  N   UNL     1       0.871  10.112  19.866  0.00  0.00    +0.000 N 
ATOM      4  N   UNL     1       1.222  11.364  19.473  0.00  0.00    +0.000 NA
ATOM      5  C   UNL     1       0.404  12.197  20.136  0.00  0.00    +0.000 A 
ENDROOT
BRANCH   1  10
ATOM      6  N   UNL     1      -4.782  13.146  22.198  0.00  0.00    +0.000 N 
ATOM      7  C   UNL     1      -3.576  12.759  22.755  0.00  0.00    +0.000 C 
ATOM      8  O   UNL     1      -3.329  12.706  23.953  0.00  0.00    +0.000 OA
ATOM      9  C   UNL     1      -2.620  12.367  21.693  0.00  0.00    +0.000 C 
ATOM     10  C   UNL     1      -1.385  11.929  21.968  0.00  0.00    +0.000 C 
ATOM     11  S   UNL     1      -3.353  12.534  20.146  0.00  0.00    +0.000 S 
ATOM     12  C   UNL     1      -4.862  13.132  20.822  0.00  0.00    +0.000 C 
ATOM     13  S   UNL     1      -6.158  13.565  19.868  0.00  0.00    +0.000 S 
BRANCH   6  14
ATOM     14  C   UNL     1      -5.848  13.595  23.089  0.00  0.00    +0.000 C 
BRANCH  14  16
ATOM     15  O   UNL     1      -6.093  15.990  22.702  0.00  0.00    +0.000 OA
ATOM     16  C   UNL     1      -5.686  15.077  23.405  0.00  0.00    +0.000 C 
BRANCH  16  17
ATOM     17  O   UNL     1      -5.038  15.302  24.573  0.00  0.00    +0.000 OA
ATOM     18  H   UNL     1      -5.458  14.919  25.368  0.00  0.00    +0.000 HD
ENDBRANCH  16  17
ENDBRANCH  14  16
ENDBRANCH   6  14
ENDBRANCH   1  10
BRANCH   5  19
ATOM     19  C   UNL     1       0.478  13.648  19.935  0.00  0.00    +0.000 A 
ATOM     20  C   UNL     1       1.290  14.449  20.754  0.00  0.00    +0.000 A 
ATOM     21  C   UNL     1       1.375  15.829  20.550  0.00  0.00    +0.000 A 
ATOM     22  C   UNL     1       0.633  16.422  19.533  0.00  0.00    +0.000 A 
ATOM     23 BR   UNL     1       0.747  18.289  19.260  0.00  0.00    +0.000 Br
ATOM     24  C   UNL     1      -0.195  15.649  18.721  0.00  0.00    +0.000 A 
ATOM     25  C   UNL     1      -0.272  14.268  18.923  0.00  0.00    +0.000 A 
ENDBRANCH   5  19
BRANCH   3  26
ATOM     26  C   UNL     1       1.547   8.965  19.363  0.00  0.00    +0.000 A 
ATOM     27  C   UNL     1       1.736   7.827  20.163  0.00  0.00    +0.000 A 
ATOM     28  C   UNL     1       2.427   6.721  19.660  0.00  0.00    +0.000 A 
ATOM     29  C   UNL     1       2.936   6.744  18.363  0.00  0.00    +0.000 A 
ATOM     30  C   UNL     1       2.745   7.866  17.559  0.00  0.00    +0.000 A 
ATOM     31  C   UNL     1       2.046   8.972  18.052  0.00  0.00    +0.000 A 
ENDBRANCH   3  26
TORSDOF 6
ENDMDL
MODEL 9
REMARK VINA RESULT:      -6.6      9.356     11.485
REMARK  Name = 
REMARK  6 active torsions:
REMARK  status: ('A' for Active; 'I' for Inactive)
REMARK    1  A    between atoms: C_2  and  O_3
REMARK    2  A    between atoms: C_2  and  C_4
REMARK    3  A    between atoms: C_4  and  N_5
REMARK    4  A    between atoms: C_9  and  C_10
REMARK    5  A    between atoms: N_12  and  C_13
REMARK    6  A    between atoms: C_20  and  C_21
REMARK                            x       y       z     vdW  Elec       q    Type
REMARK                         _______ _______ _______ _____ _____    ______ ____
ROOT
ATOM      1  C   UNL     1      -0.804  11.717  20.219  0.00  0.00    +0.000 A 
ATOM      2  C   UNL     1      -0.514  10.388  20.038  0.00  0.00    +0.000 A 
ATOM      3  N   UNL     1       0.740  10.332  19.473  0.00  0.00    +0.000 N 
ATOM      4  N   UNL     1       1.243  11.575  19.256  0.00  0.00    +0.000 NA
ATOM      5  C   UNL     1       0.296  12.430  19.674  0.00  0.00    +0.000 A 
ENDROOT
BRANCH   1  10
ATOM      6  N   UNL     1      -5.511  12.671  20.286  0.00  0.00    +0.000 N 
ATOM      7  C   UNL     1      -4.382  12.717  21.083  0.00  0.00    +0.000 C 
ATOM      8  O   UNL     1      -4.356  13.037  22.265  0.00  0.00    +0.000 OA
ATOM      9  C   UNL     1      -3.192  12.275  20.318  0.00  0.00    +0.000 C 
ATOM     10  C   UNL     1      -1.974  12.204  20.868  0.00  0.00    +0.000 C 
ATOM     11  S   UNL     1      -3.643  11.864  18.710  0.00  0.00    +0.000 S 
ATOM     12  C   UNL     1      -5.330  12.277  18.978  0.00  0.00    +0.000 C 
ATOM     13  S   UNL     1      -6.482  12.151  17.778  0.00  0.00    +0.000 S 
BRANCH   6  14
ATOM     14  C   UNL     1      -6.785  13.098  20.858  0.00  0.00    +0.000 C 
BRANCH  14  16
ATOM     15  O   UNL     1      -7.611  10.892  21.491  0.00  0.00    +0.000 OA
ATOM     16  C   UNL     1      -7.321  12.036  21.810  0.00  0.00    +0.000 C 
BRANCH  16  17
ATOM     17  O   UNL     1      -7.445  12.480  23.084  0.00  0.00    +0.000 OA
ATOM     18  H   UNL     1      -7.774  13.395  23.181  0.00  0.00    +0.000 HD
ENDBRANCH  16  17
ENDBRANCH  14  16
ENDBRANCH   6  14
ENDBRANCH   1  10
BRANCH   5  19
ATOM     19  C   UNL     1       0.486  13.881  19.564  0.00  0.00    +0.000 A 
ATOM     20  C   UNL     1       1.528  14.525  20.250  0.00  0.00    +0.000 A 
ATOM     21  C   UNL     1       1.720  15.904  20.130  0.00  0.00    +0.000 A 
ATOM     22  C   UNL     1       0.859  16.653  19.334  0.00  0.00    +0.000 A 
ATOM     23 BR   UNL     1       1.118  18.519  19.175  0.00  0.00    +0.000 Br
ATOM     24  C   UNL     1      -0.194  16.037  18.660  0.00  0.00    +0.000 A 
ATOM     25  C   UNL     1      -0.380  14.656  18.777  0.00  0.00    +0.000 A 
ENDBRANCH   5  19
BRANCH   3  26
ATOM     26  C   UNL     1       1.490   9.166  19.151  0.00  0.00    +0.000 A 
ATOM     27  C   UNL     1       2.110   9.026  17.900  0.00  0.00    +0.000 A 
ATOM     28  C   UNL     1       2.819   7.861  17.594  0.00  0.00    +0.000 A 
ATOM     29  C   UNL     1       2.910   6.831  18.526  0.00  0.00    +0.000 A 
ATOM     30  C   UNL     1       2.306   6.966  19.775  0.00  0.00    +0.000 A 
ATOM     31  C   UNL     1       1.604   8.131  20.093  0.00  0.00    +0.000 A 
ENDBRANCH   3  26
TORSDOF 6
ENDMDL
