MODEL 1
REMARK VINA RESULT:      -8.0      0.000      0.000
REMARK  Name = 
REMARK  4 active torsions:
REMARK  status: ('A' for Active; 'I' for Inactive)
REMARK    1  A    between atoms: C_2  and  O_3
REMARK    2  A    between atoms: C_2  and  C_4
REMARK    3  A    between atoms: C_4  and  C_5
REMARK    4  A    between atoms: C_16  and  C_17
REMARK                            x       y       z     vdW  Elec       q    Type
REMARK                         _______ _______ _______ _____ _____    ______ ____
ROOT
ATOM      1  C   UNL     1       6.447   4.324  12.699  0.00  0.00    +0.000 C 
ATOM      2  C   UNL     1       7.533   5.413  12.727  0.00  0.00    +0.000 C 
ATOM      3  O   UNL     1       8.082   5.497  14.065  0.00  0.00    +0.000 OA
ATOM      4  C   UNL     1       7.072   5.013  14.854  0.00  0.00    +0.000 A 
ATOM      5  C   UNL     1       7.062   5.092  16.230  0.00  0.00    +0.000 A 
ATOM      6  C   UNL     1       5.978   4.525  16.894  0.00  0.00    +0.000 A 
ATOM      7  C   UNL     1       4.948   3.876  16.187  0.00  0.00    +0.000 A 
ATOM      8  C   UNL     1       4.979   3.809  14.792  0.00  0.00    +0.000 A 
ATOM      9  C   UNL     1       6.063   4.378  14.140  0.00  0.00    +0.000 A 
ATOM     10  O   UNL     1       3.873   3.283  16.798  0.00  0.00    +0.000 OA
ATOM     11  C   UNL     1       4.052   3.194  18.220  0.00  0.00    +0.000 C 
ATOM     12  C   UNL     1       4.647   4.481  18.805  0.00  0.00    +0.000 C 
ATOM     13  O   UNL     1       5.969   4.663  18.260  0.00  0.00    +0.000 OA
ENDROOT
BRANCH  12  14
ATOM     14  C   UNL     1       3.808   5.754  18.680  0.00  0.00    +0.000 A 
ATOM     15  C   UNL     1       3.976   6.616  17.581  0.00  0.00    +0.000 A 
ATOM     16  C   UNL     1       3.280   7.826  17.499  0.00  0.00    +0.000 A 
ATOM     17  C   UNL     1       2.424   8.213  18.529  0.00  0.00    +0.000 A 
ATOM     18 CL   UNL     1       1.661   9.757  18.407  0.00  0.00    +0.000 Cl
ATOM     19  C   UNL     1       2.232   7.364  19.623  0.00  0.00    +0.000 A 
ATOM     20 CL   UNL     1       1.200   7.776  20.946  0.00  0.00    +0.000 Cl
ATOM     21  C   UNL     1       2.912   6.143  19.689  0.00  0.00    +0.000 A 
ENDBRANCH  12  14
BRANCH   1  22
ATOM     22  C   UNL     1       6.972   2.917  12.380  0.00  0.00    +0.000 C 
BRANCH  22  24
ATOM     23  O   UNL     1       4.842   2.369  11.374  0.00  0.00    +0.000 OA
ATOM     24  C   UNL     1       6.005   2.071  11.593  0.00  0.00    +0.000 C 
BRANCH  24  25
ATOM     25  O   UNL     1       6.563   0.929  11.151  0.00  0.00    +0.000 OA
ATOM     26  H   UNL     1       5.929   0.199  11.015  0.00  0.00    +0.000 HD
ENDBRANCH  24  25
ENDBRANCH  22  24
ENDBRANCH   1  22
TORSDOF 4
ENDMDL
MODEL 2
REMARK VINA RESULT:      -7.9      4.031      7.679
REMARK  Name = 
REMARK  4 active torsions:
REMARK  status: ('A' for Active; 'I' for Inactive)
REMARK    1  A    between atoms: C_2  and  O_3
REMARK    2  A    between atoms: C_2  and  C_4
REMARK    3  A    between atoms: C_4  and  C_5
REMARK    4  A    between atoms: C_16  and  C_17
REMARK                            x       y       z     vdW  Elec       q    Type
REMARK                         _______ _______ _______ _____ _____    ______ ____
ROOT
ATOM      1  C   UNL     1       1.484   5.556  19.797  0.00  0.00    +0.000 C 
ATOM      2  C   UNL     1       1.168   4.063  19.984  0.00  0.00    +0.000 C 
ATOM      3  O   UNL     1       2.410   3.337  20.156  0.00  0.00    +0.000 OA
ATOM      4  C   UNL     1       3.335   4.136  19.537  0.00  0.00    +0.000 A 
ATOM      5  C   UNL     1       4.631   3.752  19.270  0.00  0.00    +0.000 A 
ATOM      6  C   UNL     1       5.462   4.689  18.662  0.00  0.00    +0.000 A 
ATOM      7  C   UNL     1       5.000   5.984  18.358  0.00  0.00    +0.000 A 
ATOM      8  C   UNL     1       3.682   6.350  18.638  0.00  0.00    +0.000 A 
ATOM      9  C   UNL     1       2.861   5.409  19.242  0.00  0.00    +0.000 A 
ATOM     10  O   UNL     1       5.786   6.949  17.782  0.00  0.00    +0.000 OA
ATOM     11  C   UNL     1       7.169   6.561  17.756  0.00  0.00    +0.000 C 
ATOM     12  C   UNL     1       7.346   5.091  17.354  0.00  0.00    +0.000 C 
ATOM     13  O   UNL     1       6.732   4.265  18.362  0.00  0.00    +0.000 OA
ENDROOT
BRANCH  12  14
ATOM     14  C   UNL     1       6.891   4.696  15.948  0.00  0.00    +0.000 A 
ATOM     15  C   UNL     1       5.915   3.700  15.767  0.00  0.00    +0.000 A 
ATOM     16  C   UNL     1       5.553   3.266  14.488  0.00  0.00    +0.000 A 
ATOM     17  C   UNL     1       6.183   3.799  13.364  0.00  0.00    +0.000 A 
ATOM     18 CL   UNL     1       5.752   3.161  11.819  0.00  0.00    +0.000 Cl
ATOM     19  C   UNL     1       7.145   4.801  13.521  0.00  0.00    +0.000 A 
ATOM     20 CL   UNL     1       7.980   5.503  12.181  0.00  0.00    +0.000 Cl
ATOM     21  C   UNL     1       7.485   5.249  14.803  0.00  0.00    +0.000 A 
ENDBRANCH  12  14
BRANCH   1  22
ATOM     22  C   UNL     1       1.561   6.354  21.106  0.00  0.00    +0.000 C 
BRANCH  22  24
ATOM     23  O   UNL     1       1.184   8.399  19.871  0.00  0.00    +0.000 OA
ATOM     24  C   UNL     1       1.494   7.847  20.914  0.00  0.00    +0.000 C 
BRANCH  24  25
ATOM     25  O   UNL     1       1.820   8.524  22.030  0.00  0.00    +0.000 OA
ATOM     26  H   UNL     1       1.059   8.929  22.490  0.00  0.00    +0.000 HD
ENDBRANCH  24  25
ENDBRANCH  22  24
ENDBRANCH   1  22
TORSDOF 4
ENDMDL
MODEL 3
REMARK VINA RESULT:      -7.9      1.226      1.908
REMARK  Name = 
REMARK  4 active torsions:
REMARK  status: ('A' for Active; 'I' for Inactive)
REMARK    1  A    between atoms: C_2  and  O_3
REMARK    2  A    between atoms: C_2  and  C_4
REMARK    3  A    between atoms: C_4  and  C_5
REMARK    4  A    between atoms: C_16  and  C_17
REMARK                            x       y       z     vdW  Elec       q    Type
REMARK                         _______ _______ _______ _____ _____    ______ ____
ROOT
ATOM      1  C   UNL     1       6.048   4.593  13.913  0.00  0.00    +0.000 C 
ATOM      2  C   UNL     1       7.279   5.440  14.278  0.00  0.00    +0.000 C 
ATOM      3  O   UNL     1       7.694   5.109  15.626  0.00  0.00    +0.000 OA
ATOM      4  C   UNL     1       6.547   4.636  16.206  0.00  0.00    +0.000 A 
ATOM      5  C   UNL     1       6.409   4.389  17.554  0.00  0.00    +0.000 A 
ATOM      6  C   UNL     1       5.189   3.879  17.988  0.00  0.00    +0.000 A 
ATOM      7  C   UNL     1       4.149   3.603  17.079  0.00  0.00    +0.000 A 
ATOM      8  C   UNL     1       4.312   3.861  15.716  0.00  0.00    +0.000 A 
ATOM      9  C   UNL     1       5.531   4.371  15.294  0.00  0.00    +0.000 A 
ATOM     10  O   UNL     1       2.939   3.077  17.454  0.00  0.00    +0.000 OA
ATOM     11  C   UNL     1       2.956   2.627  18.818  0.00  0.00    +0.000 C 
ATOM     12  C   UNL     1       3.678   3.617  19.741  0.00  0.00    +0.000 C 
ATOM     13  O   UNL     1       5.060   3.690  19.342  0.00  0.00    +0.000 OA
ENDROOT
BRANCH  12  14
ATOM     14  C   UNL     1       3.060   5.009  19.886  0.00  0.00    +0.000 A 
ATOM     15  C   UNL     1       2.162   5.286  20.931  0.00  0.00    +0.000 A 
ATOM     16  C   UNL     1       1.522   6.527  21.024  0.00  0.00    +0.000 A 
ATOM     17  C   UNL     1       1.746   7.504  20.056  0.00  0.00    +0.000 A 
ATOM     18 CL   UNL     1       0.862   8.982  20.181  0.00  0.00    +0.000 Cl
ATOM     19  C   UNL     1       2.647   7.254  19.017  0.00  0.00    +0.000 A 
ATOM     20 CL   UNL     1       2.970   8.407  17.771  0.00  0.00    +0.000 Cl
ATOM     21  C   UNL     1       3.304   6.020  18.942  0.00  0.00    +0.000 A 
ENDBRANCH  12  14
BRANCH   1  22
ATOM     22  C   UNL     1       6.382   3.232  13.286  0.00  0.00    +0.000 C 
BRANCH  22  24
ATOM     23  O   UNL     1       4.516   3.498  11.770  0.00  0.00    +0.000 OA
ATOM     24  C   UNL     1       5.498   2.865  12.122  0.00  0.00    +0.000 C 
BRANCH  24  25
ATOM     25  O   UNL     1       5.908   1.745  11.499  0.00  0.00    +0.000 OA
ATOM     26  H   UNL     1       6.796   1.811  11.098  0.00  0.00    +0.000 HD
ENDBRANCH  24  25
ENDBRANCH  22  24
ENDBRANCH   1  22
TORSDOF 4
ENDMDL
MODEL 4
REMARK VINA RESULT:      -7.7      4.109      7.373
REMARK  Name = 
REMARK  4 active torsions:
REMARK  status: ('A' for Active; 'I' for Inactive)
REMARK    1  A    between atoms: C_2  and  O_3
REMARK    2  A    between atoms: C_2  and  C_4
REMARK    3  A    between atoms: C_4  and  C_5
REMARK    4  A    between atoms: C_16  and  C_17
REMARK                            x       y       z     vdW  Elec       q    Type
REMARK                         _______ _______ _______ _____ _____    ______ ____
ROOT
ATOM      1  C   UNL     1       1.081   3.501  19.000  0.00  0.00    +0.000 C 
ATOM      2  C   UNL     1       1.313   1.983  19.094  0.00  0.00    +0.000 C 
ATOM      3  O   UNL     1       2.709   1.738  19.392  0.00  0.00    +0.000 OA
ATOM      4  C   UNL     1       3.337   2.860  18.920  0.00  0.00    +0.000 A 
ATOM      5  C   UNL     1       4.704   2.986  18.801  0.00  0.00    +0.000 A 
ATOM      6  C   UNL     1       5.194   4.202  18.334  0.00  0.00    +0.000 A 
ATOM      7  C   UNL     1       4.327   5.266  18.021  0.00  0.00    +0.000 A 
ATOM      8  C   UNL     1       2.945   5.115  18.149  0.00  0.00    +0.000 A 
ATOM      9  C   UNL     1       2.466   3.899  18.614  0.00  0.00    +0.000 A 
ATOM     10  O   UNL     1       4.763   6.490  17.580  0.00  0.00    +0.000 OA
ATOM     11  C   UNL     1       6.187   6.625  17.711  0.00  0.00    +0.000 C 
ATOM     12  C   UNL     1       6.926   5.351  17.282  0.00  0.00    +0.000 C 
ATOM     13  O   UNL     1       6.556   4.284  18.177  0.00  0.00    +0.000 OA
ENDROOT
BRANCH  12  14
ATOM     14  C   UNL     1       6.792   4.929  15.818  0.00  0.00    +0.000 A 
ATOM     15  C   UNL     1       6.007   3.817  15.464  0.00  0.00    +0.000 A 
ATOM     16  C   UNL     1       5.946   3.367  14.141  0.00  0.00    +0.000 A 
ATOM     17  C   UNL     1       6.693   4.002  13.150  0.00  0.00    +0.000 A 
ATOM     18 CL   UNL     1       6.640   3.346  11.554  0.00  0.00    +0.000 Cl
ATOM     19  C   UNL     1       7.468   5.119  13.478  0.00  0.00    +0.000 A 
ATOM     20 CL   UNL     1       8.431   5.954  12.312  0.00  0.00    +0.000 Cl
ATOM     21  C   UNL     1       7.506   5.580  14.799  0.00  0.00    +0.000 A 
ENDBRANCH  12  14
BRANCH   1  22
ATOM     22  C   UNL     1       0.729   4.170  20.336  0.00  0.00    +0.000 C 
BRANCH  22  24
ATOM     23  O   UNL     1       2.000   3.096  22.091  0.00  0.00    +0.000 OA
ATOM     24  C   UNL     1       1.816   4.066  21.374  0.00  0.00    +0.000 C 
BRANCH  24  25
ATOM     25  O   UNL     1       2.576   5.175  21.435  0.00  0.00    +0.000 OA
ATOM     26  H   UNL     1       2.174   5.960  21.017  0.00  0.00    +0.000 HD
ENDBRANCH  24  25
ENDBRANCH  22  24
ENDBRANCH   1  22
TORSDOF 4
ENDMDL
MODEL 5
REMARK VINA RESULT:      -7.2      5.446      7.725
REMARK  Name = 
REMARK  4 active torsions:
REMARK  status: ('A' for Active; 'I' for Inactive)
REMARK    1  A    between atoms: C_2  and  O_3
REMARK    2  A    between atoms: C_2  and  C_4
REMARK    3  A    between atoms: C_4  and  C_5
REMARK    4  A    between atoms: C_16  and  C_17
REMARK                            x       y       z     vdW  Elec       q    Type
REMARK                         _______ _______ _______ _____ _____    ______ ____
ROOT
ATOM      1  C   UNL     1       1.623   4.548  19.969  0.00  0.00    +0.000 C 
ATOM      2  C   UNL     1       1.934   4.243  18.494  0.00  0.00    +0.000 C 
ATOM      3  O   UNL     1       2.540   5.410  17.889  0.00  0.00    +0.000 OA
ATOM      4  C   UNL     1       2.085   6.444  18.664  0.00  0.00    +0.000 A 
ATOM      5  C   UNL     1       2.238   7.775  18.343  0.00  0.00    +0.000 A 
ATOM      6  C   UNL     1       1.749   8.711  19.250  0.00  0.00    +0.000 A 
ATOM      7  C   UNL     1       1.144   8.310  20.457  0.00  0.00    +0.000 A 
ATOM      8  C   UNL     1       0.999   6.954  20.760  0.00  0.00    +0.000 A 
ATOM      9  C   UNL     1       1.489   6.030  19.850  0.00  0.00    +0.000 A 
ATOM     10  O   UNL     1       0.668   9.193  21.392  0.00  0.00    +0.000 OA
ATOM     11  C   UNL     1       1.075  10.540  21.105  0.00  0.00    +0.000 C 
ATOM     12  C   UNL     1       0.956  10.870  19.612  0.00  0.00    +0.000 C 
ATOM     13  O   UNL     1       1.869  10.028  18.882  0.00  0.00    +0.000 OA
ENDROOT
BRANCH  12  14
ATOM     14  C   UNL     1      -0.447  10.838  19.003  0.00  0.00    +0.000 A 
ATOM     15  C   UNL     1      -0.686  10.159  17.795  0.00  0.00    +0.000 A 
ATOM     16  C   UNL     1      -1.942  10.196  17.181  0.00  0.00    +0.000 A 
ATOM     17  C   UNL     1      -2.977  10.937  17.749  0.00  0.00    +0.000 A 
ATOM     18 CL   UNL     1      -4.478  11.011  16.899  0.00  0.00    +0.000 Cl
ATOM     19  C   UNL     1      -2.765  11.608  18.957  0.00  0.00    +0.000 A 
ATOM     20 CL   UNL     1      -3.991  12.559  19.718  0.00  0.00    +0.000 Cl
ATOM     21  C   UNL     1      -1.512  11.548  19.580  0.00  0.00    +0.000 A 
ENDBRANCH  12  14
BRANCH   1  22
ATOM     22  C   UNL     1       2.772   4.231  20.935  0.00  0.00    +0.000 C 
BRANCH  22  24
ATOM     23  O   UNL     1       1.698   2.455  22.177  0.00  0.00    +0.000 OA
ATOM     24  C   UNL     1       2.674   2.869  21.572  0.00  0.00    +0.000 C 
BRANCH  24  25
ATOM     25  O   UNL     1       3.794   2.142  21.406  0.00  0.00    +0.000 OA
ATOM     26  H   UNL     1       3.857   1.695  20.540  0.00  0.00    +0.000 HD
ENDBRANCH  24  25
ENDBRANCH  22  24
ENDBRANCH   1  22
TORSDOF 4
ENDMDL
MODEL 6
REMARK VINA RESULT:      -7.1      1.738      3.110
REMARK  Name = 
REMARK  4 active torsions:
REMARK  status: ('A' for Active; 'I' for Inactive)
REMARK    1  A    between atoms: C_2  and  O_3
REMARK    2  A    between atoms: C_2  and  C_4
REMARK    3  A    between atoms: C_4  and  C_5
REMARK    4  A    between atoms: C_16  and  C_17
REMARK                            x       y       z     vdW  Elec       q    Type
REMARK                         _______ _______ _______ _____ _____    ______ ____
ROOT
ATOM      1  C   UNL     1       6.179   5.380  15.466  0.00  0.00    +0.000 C 
ATOM      2  C   UNL     1       7.402   5.967  16.192  0.00  0.00    +0.000 C 
ATOM      3  O   UNL     1       7.332   5.610  17.594  0.00  0.00    +0.000 OA
ATOM      4  C   UNL     1       5.995   5.406  17.805  0.00  0.00    +0.000 A 
ATOM      5  C   UNL     1       5.426   5.245  19.050  0.00  0.00    +0.000 A 
ATOM      6  C   UNL     1       4.054   5.015  19.100  0.00  0.00    +0.000 A 
ATOM      7  C   UNL     1       3.286   4.926  17.923  0.00  0.00    +0.000 A 
ATOM      8  C   UNL     1       3.885   5.093  16.672  0.00  0.00    +0.000 A 
ATOM      9  C   UNL     1       5.252   5.324  16.633  0.00  0.00    +0.000 A 
ATOM     10  O   UNL     1       1.937   4.677  17.919  0.00  0.00    +0.000 OA
ATOM     11  C   UNL     1       1.467   4.285  19.218  0.00  0.00    +0.000 C 
ATOM     12  C   UNL     1       2.083   5.139  20.334  0.00  0.00    +0.000 C 
ATOM     13  O   UNL     1       3.505   4.908  20.354  0.00  0.00    +0.000 OA
ENDROOT
BRANCH  12  14
ATOM     14  C   UNL     1       1.756   6.633  20.328  0.00  0.00    +0.000 A 
ATOM     15  C   UNL     1       1.043   7.212  21.393  0.00  0.00    +0.000 A 
ATOM     16  C   UNL     1       0.660   8.557  21.359  0.00  0.00    +0.000 A 
ATOM     17  C   UNL     1       0.956   9.342  20.245  0.00  0.00    +0.000 A 
ATOM     18 CL   UNL     1       0.382  10.969  20.230  0.00  0.00    +0.000 Cl
ATOM     19  C   UNL     1       1.677   8.789  19.183  0.00  0.00    +0.000 A 
ATOM     20 CL   UNL     1       2.072   9.690  17.762  0.00  0.00    +0.000 Cl
ATOM     21  C   UNL     1       2.079   7.449  19.232  0.00  0.00    +0.000 A 
ENDBRANCH  12  14
BRANCH   1  22
ATOM     22  C   UNL     1       6.386   3.958  14.929  0.00  0.00    +0.000 C 
BRANCH  22  24
ATOM     23  O   UNL     1       7.269   4.726  12.813  0.00  0.00    +0.000 OA
ATOM     24  C   UNL     1       6.635   3.897  13.444  0.00  0.00    +0.000 C 
BRANCH  24  25
ATOM     25  O   UNL     1       6.073   2.816  12.873  0.00  0.00    +0.000 OA
ATOM     26  H   UNL     1       6.635   2.377  12.206  0.00  0.00    +0.000 HD
ENDBRANCH  24  25
ENDBRANCH  22  24
ENDBRANCH   1  22
TORSDOF 4
ENDMDL
MODEL 7
REMARK VINA RESULT:      -7.1      4.818      7.041
REMARK  Name = 
REMARK  4 active torsions:
REMARK  status: ('A' for Active; 'I' for Inactive)
REMARK    1  A    between atoms: C_2  and  O_3
REMARK    2  A    between atoms: C_2  and  C_4
REMARK    3  A    between atoms: C_4  and  C_5
REMARK    4  A    between atoms: C_16  and  C_17
REMARK                            x       y       z     vdW  Elec       q    Type
REMARK                         _______ _______ _______ _____ _____    ______ ____
ROOT
ATOM      1  C   UNL     1       2.306   4.631  19.289  0.00  0.00    +0.000 C 
ATOM      2  C   UNL     1       2.631   4.509  17.790  0.00  0.00    +0.000 C 
ATOM      3  O   UNL     1       3.112   5.788  17.308  0.00  0.00    +0.000 OA
ATOM      4  C   UNL     1       2.563   6.686  18.185  0.00  0.00    +0.000 A 
ATOM      5  C   UNL     1       2.580   8.051  18.001  0.00  0.00    +0.000 A 
ATOM      6  C   UNL     1       2.008   8.836  18.999  0.00  0.00    +0.000 A 
ATOM      7  C   UNL     1       1.459   8.256  20.158  0.00  0.00    +0.000 A 
ATOM      8  C   UNL     1       1.453   6.869  20.322  0.00  0.00    +0.000 A 
ATOM      9  C   UNL     1       2.024   6.096  19.322  0.00  0.00    +0.000 A 
ATOM     10  O   UNL     1       0.906   8.987  21.178  0.00  0.00    +0.000 OA
ATOM     11  C   UNL     1       1.174  10.391  21.031  0.00  0.00    +0.000 C 
ATOM     12  C   UNL     1       1.007  10.857  19.579  0.00  0.00    +0.000 C 
ATOM     13  O   UNL     1       1.992  10.189  18.768  0.00  0.00    +0.000 OA
ENDROOT
BRANCH  12  14
ATOM     14  C   UNL     1      -0.392  10.746  18.970  0.00  0.00    +0.000 A 
ATOM     15  C   UNL     1      -0.602  10.006  17.793  0.00  0.00    +0.000 A 
ATOM     16  C   UNL     1      -1.857   9.969  17.177  0.00  0.00    +0.000 A 
ATOM     17  C   UNL     1      -2.920  10.696  17.709  0.00  0.00    +0.000 A 
ATOM     18 CL   UNL     1      -4.420  10.676  16.854  0.00  0.00    +0.000 Cl
ATOM     19  C   UNL     1      -2.736  11.427  18.887  0.00  0.00    +0.000 A 
ATOM     20 CL   UNL     1      -3.999  12.364  19.603  0.00  0.00    +0.000 Cl
ATOM     21  C   UNL     1      -1.485  11.441  19.513  0.00  0.00    +0.000 A 
ENDBRANCH  12  14
BRANCH   1  22
ATOM     22  C   UNL     1       3.491   4.334  20.218  0.00  0.00    +0.000 C 
BRANCH  22  24
ATOM     23  O   UNL     1       4.063   2.022  19.800  0.00  0.00    +0.000 OA
ATOM     24  C   UNL     1       4.367   3.203  19.746  0.00  0.00    +0.000 C 
BRANCH  24  25
ATOM     25  O   UNL     1       5.542   3.634  19.252  0.00  0.00    +0.000 OA
ATOM     26  H   UNL     1       5.518   3.862  18.303  0.00  0.00    +0.000 HD
ENDBRANCH  24  25
ENDBRANCH  22  24
ENDBRANCH   1  22
TORSDOF 4
ENDMDL
MODEL 8
REMARK VINA RESULT:      -7.1      9.071     11.261
REMARK  Name = 
REMARK  4 active torsions:
REMARK  status: ('A' for Active; 'I' for Inactive)
REMARK    1  A    between atoms: C_2  and  O_3
REMARK    2  A    between atoms: C_2  and  C_4
REMARK    3  A    between atoms: C_4  and  C_5
REMARK    4  A    between atoms: C_16  and  C_17
REMARK                            x       y       z     vdW  Elec       q    Type
REMARK                         _______ _______ _______ _____ _____    ______ ____
ROOT
ATOM      1  C   UNL     1      -4.424  11.513  17.259  0.00  0.00    +0.000 C 
ATOM      2  C   UNL     1      -3.943  10.796  15.986  0.00  0.00    +0.000 C 
ATOM      3  O   UNL     1      -2.850   9.909  16.331  0.00  0.00    +0.000 OA
ATOM      4  C   UNL     1      -2.333  10.468  17.470  0.00  0.00    +0.000 A 
ATOM      5  C   UNL     1      -1.144  10.079  18.048  0.00  0.00    +0.000 A 
ATOM      6  C   UNL     1      -0.767  10.722  19.224  0.00  0.00    +0.000 A 
ATOM      7  C   UNL     1      -1.582  11.710  19.809  0.00  0.00    +0.000 A 
ATOM      8  C   UNL     1      -2.784  12.087  19.204  0.00  0.00    +0.000 A 
ATOM      9  C   UNL     1      -3.150  11.442  18.032  0.00  0.00    +0.000 A 
ATOM     10  O   UNL     1      -1.266  12.353  20.978  0.00  0.00    +0.000 OA
ATOM     11  C   UNL     1      -0.152  11.734  21.640  0.00  0.00    +0.000 C 
ATOM     12  C   UNL     1       0.959  11.349  20.655  0.00  0.00    +0.000 C 
ATOM     13  O   UNL     1       0.445  10.352  19.752  0.00  0.00    +0.000 OA
ENDROOT
BRANCH  12  14
ATOM     14  C   UNL     1       1.646  12.490  19.902  0.00  0.00    +0.000 A 
ATOM     15  C   UNL     1       2.168  12.282  18.613  0.00  0.00    +0.000 A 
ATOM     16  C   UNL     1       2.876  13.289  17.949  0.00  0.00    +0.000 A 
ATOM     17  C   UNL     1       3.101  14.515  18.573  0.00  0.00    +0.000 A 
ATOM     18 CL   UNL     1       4.053  15.685  17.733  0.00  0.00    +0.000 Cl
ATOM     19  C   UNL     1       2.577  14.747  19.848  0.00  0.00    +0.000 A 
ATOM     20 CL   UNL     1       2.823  16.234  20.694  0.00  0.00    +0.000 Cl
ATOM     21  C   UNL     1       1.848  13.744  20.498  0.00  0.00    +0.000 A 
ENDBRANCH  12  14
BRANCH   1  22
ATOM     22  C   UNL     1      -5.514  10.761  18.034  0.00  0.00    +0.000 C 
BRANCH  22  24
ATOM     23  O   UNL     1      -7.516  11.506  19.167  0.00  0.00    +0.000 OA
ATOM     24  C   UNL     1      -6.800  11.532  18.180  0.00  0.00    +0.000 C 
BRANCH  24  25
ATOM     25  O   UNL     1      -7.087  12.265  17.088  0.00  0.00    +0.000 OA
ATOM     26  H   UNL     1      -7.965  12.084  16.702  0.00  0.00    +0.000 HD
ENDBRANCH  24  25
ENDBRANCH  22  24
ENDBRANCH   1  22
TORSDOF 4
ENDMDL
MODEL 9
REMARK VINA RESULT:      -6.9      1.917      3.137
REMARK  Name = 
REMARK  4 active torsions:
REMARK  status: ('A' for Active; 'I' for Inactive)
REMARK    1  A    between atoms: C_2  and  O_3
REMARK    2  A    between atoms: C_2  and  C_4
REMARK    3  A    between atoms: C_4  and  C_5
REMARK    4  A    between atoms: C_16  and  C_17
REMARK                            x       y       z     vdW  Elec       q    Type
REMARK                         _______ _______ _______ _____ _____    ______ ____
ROOT
ATOM      1  C   UNL     1       6.085   5.514  15.690  0.00  0.00    +0.000 C 
ATOM      2  C   UNL     1       7.273   6.154  16.428  0.00  0.00    +0.000 C 
ATOM      3  O   UNL     1       7.190   5.815  17.834  0.00  0.00    +0.000 OA
ATOM      4  C   UNL     1       5.856   5.569  18.025  0.00  0.00    +0.000 A 
ATOM      5  C   UNL     1       5.271   5.407  19.262  0.00  0.00    +0.000 A 
ATOM      6  C   UNL     1       3.907   5.130  19.290  0.00  0.00    +0.000 A 
ATOM      7  C   UNL     1       3.164   4.997  18.102  0.00  0.00    +0.000 A 
ATOM      8  C   UNL     1       3.780   5.166  16.859  0.00  0.00    +0.000 A 
ATOM      9  C   UNL     1       5.139   5.443  16.841  0.00  0.00    +0.000 A 
ATOM     10  O   UNL     1       1.825   4.701  18.078  0.00  0.00    +0.000 OA
ATOM     11  C   UNL     1       1.345   4.313  19.374  0.00  0.00    +0.000 C 
ATOM     12  C   UNL     1       1.910   5.204  20.487  0.00  0.00    +0.000 C 
ATOM     13  O   UNL     1       3.339   5.023  20.536  0.00  0.00    +0.000 OA
ENDROOT
BRANCH  12  14
ATOM     14  C   UNL     1       1.532   6.685  20.452  0.00  0.00    +0.000 A 
ATOM     15  C   UNL     1       1.954   7.505  19.391  0.00  0.00    +0.000 A 
ATOM     16  C   UNL     1       1.692   8.879  19.390  0.00  0.00    +0.000 A 
ATOM     17  C   UNL     1       1.026   9.465  20.465  0.00  0.00    +0.000 A 
ATOM     18 CL   UNL     1       0.807  11.177  20.442  0.00  0.00    +0.000 Cl
ATOM     19  C   UNL     1       0.584   8.665  21.523  0.00  0.00    +0.000 A 
ATOM     20 CL   UNL     1      -0.236   9.316  22.898  0.00  0.00    +0.000 Cl
ATOM     21  C   UNL     1       0.828   7.287  21.508  0.00  0.00    +0.000 A 
ENDBRANCH  12  14
BRANCH   1  22
ATOM     22  C   UNL     1       6.351   4.092  15.179  0.00  0.00    +0.000 C 
BRANCH  22  24
ATOM     23  O   UNL     1       7.318   4.844  13.095  0.00  0.00    +0.000 OA
ATOM     24  C   UNL     1       6.657   4.021  13.706  0.00  0.00    +0.000 C 
BRANCH  24  25
ATOM     25  O   UNL     1       6.114   2.938  13.120  0.00  0.00    +0.000 OA
ATOM     26  H   UNL     1       5.844   3.077  12.192  0.00  0.00    +0.000 HD
ENDBRANCH  24  25
ENDBRANCH  22  24
ENDBRANCH   1  22
TORSDOF 4
ENDMDL
