MODEL 1
REMARK VINA RESULT:      -9.2      0.000      0.000
REMARK  Name = 
REMARK  3 active torsions:
REMARK  status: ('A' for Active; 'I' for Inactive)
REMARK    1  A    between atoms: C_2  and  C_3
REMARK    2  A    between atoms: C_2  and  C_13
REMARK    3  A    between atoms: C_14  and  C_15
REMARK                            x       y       z     vdW  Elec       q    Type
REMARK                         _______ _______ _______ _____ _____    ______ ____
ROOT
ATOM      1  C   UNL     1       5.495   4.325  17.641  0.00  0.00    +0.000 A 
ATOM      2  C   UNL     1       6.608   5.192  17.588  0.00  0.00    +0.000 A 
ATOM      3  N   UNL     1       7.165   5.499  16.358  0.00  0.00    +0.000 N 
ATOM      4  O   UNL     1       8.133   6.314  16.261  0.00  0.00    +0.000 OA
ATOM      5  C   UNL     1       6.685   4.886  15.180  0.00  0.00    +0.000 A 
ATOM      6  C   UNL     1       7.297   5.114  13.927  0.00  0.00    +0.000 A 
ATOM      7  C   UNL     1       6.833   4.474  12.782  0.00  0.00    +0.000 A 
ATOM      8  F   UNL     1       7.447   4.693  11.612  0.00  0.00    +0.000 F 
ATOM      9  C   UNL     1       5.757   3.607  12.855  0.00  0.00    +0.000 A 
ATOM     10  F   UNL     1       5.332   2.962  11.763  0.00  0.00    +0.000 F 
ATOM     11  C   UNL     1       5.120   3.386  14.068  0.00  0.00    +0.000 A 
ATOM     12  C   UNL     1       5.573   4.028  15.242  0.00  0.00    +0.000 A 
ATOM     13  N   UNL     1       4.928   3.822  16.470  0.00  0.00    +0.000 N 
ATOM     14  O   UNL     1       3.828   3.185  16.466  0.00  0.00    +0.000 OA
ENDROOT
BRANCH   2  15
ATOM     15  C   UNL     1       7.297   5.873  18.723  0.00  0.00    +0.000 C 
ATOM     16  F   UNL     1       6.663   5.835  19.923  0.00  0.00    +0.000 F 
ATOM     17  F   UNL     1       8.508   5.307  19.009  0.00  0.00    +0.000 F 
ATOM     18  F   UNL     1       7.535   7.192  18.477  0.00  0.00    +0.000 F 
ENDBRANCH   2  15
BRANCH   1  20
ATOM     19  O   UNL     1       5.195   2.946  19.437  0.00  0.00    +0.000 OA
ATOM     20  C   UNL     1       4.794   3.972  18.899  0.00  0.00    +0.000 C 
BRANCH  20  21
ATOM     21  C   UNL     1       3.686   4.807  19.504  0.00  0.00    +0.000 A 
ATOM     22  C   UNL     1       2.989   4.305  20.624  0.00  0.00    +0.000 A 
ATOM     23  C   UNL     1       1.864   4.961  21.116  0.00  0.00    +0.000 A 
ATOM     24  C   UNL     1       1.462   6.164  20.548  0.00  0.00    +0.000 A 
ATOM     25  C   UNL     1       2.180   6.736  19.492  0.00  0.00    +0.000 A 
ATOM     26  C   UNL     1       1.763   7.977  18.977  0.00  0.00    +0.000 A 
ATOM     27  C   UNL     1       2.443   8.586  17.927  0.00  0.00    +0.000 A 
ATOM     28  C   UNL     1       3.532   7.946  17.357  0.00  0.00    +0.000 A 
ATOM     29  C   UNL     1       3.945   6.705  17.846  0.00  0.00    +0.000 A 
ATOM     30  C   UNL     1       3.305   6.066  18.937  0.00  0.00    +0.000 A 
ENDBRANCH  20  21
ENDBRANCH   1  20
TORSDOF 3
ENDMDL
MODEL 2
REMARK VINA RESULT:      -9.1      8.463     11.558
REMARK  Name = 
REMARK  3 active torsions:
REMARK  status: ('A' for Active; 'I' for Inactive)
REMARK    1  A    between atoms: C_2  and  C_3
REMARK    2  A    between atoms: C_2  and  C_13
REMARK    3  A    between atoms: C_14  and  C_15
REMARK                            x       y       z     vdW  Elec       q    Type
REMARK                         _______ _______ _______ _____ _____    ______ ____
ROOT
ATOM      1  C   UNL     1      -1.997  11.634  19.113  0.00  0.00    +0.000 A 
ATOM      2  C   UNL     1      -2.821  11.214  18.045  0.00  0.00    +0.000 A 
ATOM      3  N   UNL     1      -4.150  11.600  18.028  0.00  0.00    +0.000 N 
ATOM      4  O   UNL     1      -4.911  11.289  17.061  0.00  0.00    +0.000 OA
ATOM      5  C   UNL     1      -4.701  12.329  19.105  0.00  0.00    +0.000 A 
ATOM      6  C   UNL     1      -6.075  12.654  19.151  0.00  0.00    +0.000 A 
ATOM      7  C   UNL     1      -6.607  13.342  20.238  0.00  0.00    +0.000 A 
ATOM      8  F   UNL     1      -7.916  13.617  20.264  0.00  0.00    +0.000 F 
ATOM      9  C   UNL     1      -5.791  13.722  21.289  0.00  0.00    +0.000 A 
ATOM     10  F   UNL     1      -6.306  14.352  22.352  0.00  0.00    +0.000 F 
ATOM     11  C   UNL     1      -4.433  13.440  21.257  0.00  0.00    +0.000 A 
ATOM     12  C   UNL     1      -3.872  12.746  20.161  0.00  0.00    +0.000 A 
ATOM     13  N   UNL     1      -2.498  12.467  20.113  0.00  0.00    +0.000 N 
ATOM     14  O   UNL     1      -1.749  13.005  20.988  0.00  0.00    +0.000 OA
ENDROOT
BRANCH   2  15
ATOM     15  C   UNL     1      -2.442  10.385  16.864  0.00  0.00    +0.000 C 
ATOM     16  F   UNL     1      -1.274   9.698  16.959  0.00  0.00    +0.000 F 
ATOM     17  F   UNL     1      -3.349   9.394  16.613  0.00  0.00    +0.000 F 
ATOM     18  F   UNL     1      -2.343  11.117  15.719  0.00  0.00    +0.000 F 
ENDBRANCH   2  15
BRANCH   1  20
ATOM     19  O   UNL     1       0.181  12.097  18.606  0.00  0.00    +0.000 OA
ATOM     20  C   UNL     1      -0.552  11.317  19.202  0.00  0.00    +0.000 C 
BRANCH  20  21
ATOM     21  C   UNL     1       0.002  10.143  19.981  0.00  0.00    +0.000 A 
ATOM     22  C   UNL     1      -0.391   9.971  21.325  0.00  0.00    +0.000 A 
ATOM     23  C   UNL     1       0.210   9.003  22.126  0.00  0.00    +0.000 A 
ATOM     24  C   UNL     1       1.157   8.145  21.578  0.00  0.00    +0.000 A 
ATOM     25  C   UNL     1       1.508   8.229  20.227  0.00  0.00    +0.000 A 
ATOM     26  C   UNL     1       2.437   7.310  19.705  0.00  0.00    +0.000 A 
ATOM     27  C   UNL     1       2.819   7.354  18.368  0.00  0.00    +0.000 A 
ATOM     28  C   UNL     1       2.300   8.337  17.542  0.00  0.00    +0.000 A 
ATOM     29  C   UNL     1       1.391   9.267  18.051  0.00  0.00    +0.000 A 
ATOM     30  C   UNL     1       0.947   9.238  19.396  0.00  0.00    +0.000 A 
ENDBRANCH  20  21
ENDBRANCH   1  20
TORSDOF 3
ENDMDL
MODEL 3
REMARK VINA RESULT:      -9.1      5.432      7.651
REMARK  Name = 
REMARK  3 active torsions:
REMARK  status: ('A' for Active; 'I' for Inactive)
REMARK    1  A    between atoms: C_2  and  C_3
REMARK    2  A    between atoms: C_2  and  C_13
REMARK    3  A    between atoms: C_14  and  C_15
REMARK                            x       y       z     vdW  Elec       q    Type
REMARK                         _______ _______ _______ _____ _____    ______ ____
ROOT
ATOM      1  C   UNL     1       0.963   9.463  19.217  0.00  0.00    +0.000 A 
ATOM      2  C   UNL     1       0.881   8.678  20.388  0.00  0.00    +0.000 A 
ATOM      3  N   UNL     1       1.694   7.564  20.510  0.00  0.00    +0.000 N 
ATOM      4  O   UNL     1       1.689   6.860  21.566  0.00  0.00    +0.000 OA
ATOM      5  C   UNL     1       2.531   7.166  19.444  0.00  0.00    +0.000 A 
ATOM      6  C   UNL     1       3.300   5.982  19.511  0.00  0.00    +0.000 A 
ATOM      7  C   UNL     1       4.091   5.587  18.438  0.00  0.00    +0.000 A 
ATOM      8  F   UNL     1       4.793   4.450  18.522  0.00  0.00    +0.000 F 
ATOM      9  C   UNL     1       4.140   6.355  17.287  0.00  0.00    +0.000 A 
ATOM     10  F   UNL     1       4.872   5.959  16.239  0.00  0.00    +0.000 F 
ATOM     11  C   UNL     1       3.417   7.535  17.205  0.00  0.00    +0.000 A 
ATOM     12  C   UNL     1       2.609   7.957  18.285  0.00  0.00    +0.000 A 
ATOM     13  N   UNL     1       1.884   9.156  18.217  0.00  0.00    +0.000 N 
ATOM     14  O   UNL     1       2.109   9.934  17.236  0.00  0.00    +0.000 OA
ENDROOT
BRANCH   2  15
ATOM     15  C   UNL     1       0.011   8.894  21.581  0.00  0.00    +0.000 C 
ATOM     16  F   UNL     1      -0.704  10.049  21.604  0.00  0.00    +0.000 F 
ATOM     17  F   UNL     1      -0.963   7.941  21.693  0.00  0.00    +0.000 F 
ATOM     18  F   UNL     1       0.709   8.872  22.750  0.00  0.00    +0.000 F 
ENDBRANCH   2  15
BRANCH   1  20
ATOM     19  O   UNL     1       0.758  11.737  19.301  0.00  0.00    +0.000 OA
ATOM     20  C   UNL     1       0.173  10.701  19.008  0.00  0.00    +0.000 C 
BRANCH  20  21
ATOM     21  C   UNL     1      -1.236  10.712  18.456  0.00  0.00    +0.000 A 
ATOM     22  C   UNL     1      -1.517   9.967  17.292  0.00  0.00    +0.000 A 
ATOM     23  C   UNL     1      -2.754  10.071  16.660  0.00  0.00    +0.000 A 
ATOM     24  C   UNL     1      -3.752  10.861  17.220  0.00  0.00    +0.000 A 
ATOM     25  C   UNL     1      -3.537  11.545  18.421  0.00  0.00    +0.000 A 
ATOM     26  C   UNL     1      -4.590  12.296  18.975  0.00  0.00    +0.000 A 
ATOM     27  C   UNL     1      -4.426  12.996  20.167  0.00  0.00    +0.000 A 
ATOM     28  C   UNL     1      -3.196  12.978  20.804  0.00  0.00    +0.000 A 
ATOM     29  C   UNL     1      -2.137  12.252  20.256  0.00  0.00    +0.000 A 
ATOM     30  C   UNL     1      -2.270  11.497  19.064  0.00  0.00    +0.000 A 
ENDBRANCH  20  21
ENDBRANCH   1  20
TORSDOF 3
ENDMDL
MODEL 4
REMARK VINA RESULT:      -8.8      3.661      7.178
REMARK  Name = 
REMARK  3 active torsions:
REMARK  status: ('A' for Active; 'I' for Inactive)
REMARK    1  A    between atoms: C_2  and  C_3
REMARK    2  A    between atoms: C_2  and  C_13
REMARK    3  A    between atoms: C_14  and  C_15
REMARK                            x       y       z     vdW  Elec       q    Type
REMARK                         _______ _______ _______ _____ _____    ______ ____
ROOT
ATOM      1  C   UNL     1       2.640   6.455  18.682  0.00  0.00    +0.000 A 
ATOM      2  C   UNL     1       2.017   6.256  19.933  0.00  0.00    +0.000 A 
ATOM      3  N   UNL     1       1.343   7.311  20.526  0.00  0.00    +0.000 N 
ATOM      4  O   UNL     1       0.726   7.160  21.625  0.00  0.00    +0.000 OA
ATOM      5  C   UNL     1       1.353   8.592  19.933  0.00  0.00    +0.000 A 
ATOM      6  C   UNL     1       0.751   9.703  20.566  0.00  0.00    +0.000 A 
ATOM      7  C   UNL     1       0.801  10.966  19.983  0.00  0.00    +0.000 A 
ATOM      8  F   UNL     1       0.241  12.004  20.616  0.00  0.00    +0.000 F 
ATOM      9  C   UNL     1       1.439  11.149  18.769  0.00  0.00    +0.000 A 
ATOM     10  F   UNL     1       1.520  12.368  18.224  0.00  0.00    +0.000 F 
ATOM     11  C   UNL     1       2.015  10.071  18.113  0.00  0.00    +0.000 A 
ATOM     12  C   UNL     1       1.972   8.779  18.685  0.00  0.00    +0.000 A 
ATOM     13  N   UNL     1       2.539   7.680  18.024  0.00  0.00    +0.000 N 
ATOM     14  O   UNL     1       2.934   7.843  16.826  0.00  0.00    +0.000 OA
ENDROOT
BRANCH   2  15
ATOM     15  C   UNL     1       1.962   5.004  20.744  0.00  0.00    +0.000 C 
ATOM     16  F   UNL     1       2.754   3.982  20.328  0.00  0.00    +0.000 F 
ATOM     17  F   UNL     1       2.382   5.200  22.030  0.00  0.00    +0.000 F 
ATOM     18  F   UNL     1       0.705   4.485  20.823  0.00  0.00    +0.000 F 
ENDBRANCH   2  15
BRANCH   1  20
ATOM     19  O   UNL     1       2.607   4.600  17.349  0.00  0.00    +0.000 OA
ATOM     20  C   UNL     1       3.343   5.380  17.940  0.00  0.00    +0.000 C 
BRANCH  20  21
ATOM     21  C   UNL     1       4.850   5.250  17.883  0.00  0.00    +0.000 A 
ATOM     22  C   UNL     1       5.590   5.375  19.078  0.00  0.00    +0.000 A 
ATOM     23  C   UNL     1       6.982   5.420  19.053  0.00  0.00    +0.000 A 
ATOM     24  C   UNL     1       7.657   5.266  17.848  0.00  0.00    +0.000 A 
ATOM     25  C   UNL     1       6.958   5.052  16.655  0.00  0.00    +0.000 A 
ATOM     26  C   UNL     1       7.683   4.857  15.465  0.00  0.00    +0.000 A 
ATOM     27  C   UNL     1       7.034   4.643  14.253  0.00  0.00    +0.000 A 
ATOM     28  C   UNL     1       5.650   4.652  14.210  0.00  0.00    +0.000 A 
ATOM     29  C   UNL     1       4.917   4.864  15.380  0.00  0.00    +0.000 A 
ATOM     30  C   UNL     1       5.536   5.050  16.641  0.00  0.00    +0.000 A 
ENDBRANCH  20  21
ENDBRANCH   1  20
TORSDOF 3
ENDMDL
MODEL 5
REMARK VINA RESULT:      -8.5      8.988     12.367
REMARK  Name = 
REMARK  3 active torsions:
REMARK  status: ('A' for Active; 'I' for Inactive)
REMARK    1  A    between atoms: C_2  and  C_3
REMARK    2  A    between atoms: C_2  and  C_13
REMARK    3  A    between atoms: C_14  and  C_15
REMARK                            x       y       z     vdW  Elec       q    Type
REMARK                         _______ _______ _______ _____ _____    ______ ____
ROOT
ATOM      1  C   UNL     1      -2.449  12.141  19.241  0.00  0.00    +0.000 A 
ATOM      2  C   UNL     1      -3.479  11.460  18.556  0.00  0.00    +0.000 A 
ATOM      3  N   UNL     1      -4.787  11.614  18.982  0.00  0.00    +0.000 N 
ATOM      4  O   UNL     1      -5.748  11.062  18.363  0.00  0.00    +0.000 OA
ATOM      5  C   UNL     1      -5.081  12.369  20.139  0.00  0.00    +0.000 A 
ATOM      6  C   UNL     1      -6.398  12.463  20.645  0.00  0.00    +0.000 A 
ATOM      7  C   UNL     1      -6.663  13.181  21.806  0.00  0.00    +0.000 A 
ATOM      8  F   UNL     1      -7.917  13.235  22.273  0.00  0.00    +0.000 F 
ATOM      9  C   UNL     1      -5.638  13.820  22.481  0.00  0.00    +0.000 A 
ATOM     10  F   UNL     1      -5.884  14.482  23.617  0.00  0.00    +0.000 F 
ATOM     11  C   UNL     1      -4.341  13.767  21.992  0.00  0.00    +0.000 A 
ATOM     12  C   UNL     1      -4.049  13.046  20.812  0.00  0.00    +0.000 A 
ATOM     13  N   UNL     1      -2.744  12.997  20.302  0.00  0.00    +0.000 N 
ATOM     14  O   UNL     1      -1.870  13.756  20.826  0.00  0.00    +0.000 OA
ENDROOT
BRANCH   2  15
ATOM     15  C   UNL     1      -3.357  10.566  17.367  0.00  0.00    +0.000 C 
ATOM     16  F   UNL     1      -2.196  10.648  16.667  0.00  0.00    +0.000 F 
ATOM     17  F   UNL     1      -3.405   9.243  17.707  0.00  0.00    +0.000 F 
ATOM     18  F   UNL     1      -4.349  10.767  16.456  0.00  0.00    +0.000 F 
ENDBRANCH   2  15
BRANCH   1  20
ATOM     19  O   UNL     1      -0.639  13.042  18.177  0.00  0.00    +0.000 OA
ATOM     20  C   UNL     1      -1.023  12.084  18.837  0.00  0.00    +0.000 C 
BRANCH  20  21
ATOM     21  C   UNL     1      -0.090  10.954  19.215  0.00  0.00    +0.000 A 
ATOM     22  C   UNL     1       0.704  10.361  18.210  0.00  0.00    +0.000 A 
ATOM     23  C   UNL     1       1.457   9.220  18.478  0.00  0.00    +0.000 A 
ATOM     24  C   UNL     1       1.489   8.700  19.767  0.00  0.00    +0.000 A 
ATOM     25  C   UNL     1       0.784   9.313  20.807  0.00  0.00    +0.000 A 
ATOM     26  C   UNL     1       0.882   8.778  22.105  0.00  0.00    +0.000 A 
ATOM     27  C   UNL     1       0.198   9.351  23.173  0.00  0.00    +0.000 A 
ATOM     28  C   UNL     1      -0.617  10.449  22.951  0.00  0.00    +0.000 A 
ATOM     29  C   UNL     1      -0.737  10.979  21.665  0.00  0.00    +0.000 A 
ATOM     30  C   UNL     1      -0.032  10.450  20.555  0.00  0.00    +0.000 A 
ENDBRANCH  20  21
ENDBRANCH   1  20
TORSDOF 3
ENDMDL
MODEL 6
REMARK VINA RESULT:      -8.5      8.895     12.133
REMARK  Name = 
REMARK  3 active torsions:
REMARK  status: ('A' for Active; 'I' for Inactive)
REMARK    1  A    between atoms: C_2  and  C_3
REMARK    2  A    between atoms: C_2  and  C_13
REMARK    3  A    between atoms: C_14  and  C_15
REMARK                            x       y       z     vdW  Elec       q    Type
REMARK                         _______ _______ _______ _____ _____    ______ ____
ROOT
ATOM      1  C   UNL     1      -2.140  12.121  19.802  0.00  0.00    +0.000 A 
ATOM      2  C   UNL     1      -3.140  11.703  18.898  0.00  0.00    +0.000 A 
ATOM      3  N   UNL     1      -4.433  12.171  19.059  0.00  0.00    +0.000 N 
ATOM      4  O   UNL     1      -5.350  11.861  18.238  0.00  0.00    +0.000 OA
ATOM      5  C   UNL     1      -4.769  12.986  20.163  0.00  0.00    +0.000 A 
ATOM      6  C   UNL     1      -6.100  13.399  20.397  0.00  0.00    +0.000 A 
ATOM      7  C   UNL     1      -6.418  14.172  21.509  0.00  0.00    +0.000 A 
ATOM      8  F   UNL     1      -7.691  14.531  21.717  0.00  0.00    +0.000 F 
ATOM      9  C   UNL     1      -5.430  14.551  22.401  0.00  0.00    +0.000 A 
ATOM     10  F   UNL     1      -5.739  15.264  23.490  0.00  0.00    +0.000 F 
ATOM     11  C   UNL     1      -4.112  14.182  22.180  0.00  0.00    +0.000 A 
ATOM     12  C   UNL     1      -3.765  13.400  21.055  0.00  0.00    +0.000 A 
ATOM     13  N   UNL     1      -2.433  13.033  20.816  0.00  0.00    +0.000 N 
ATOM     14  O   UNL     1      -1.530  13.564  21.535  0.00  0.00    +0.000 OA
ENDROOT
BRANCH   2  15
ATOM     15  C   UNL     1      -2.994  10.794  17.723  0.00  0.00    +0.000 C 
ATOM     16  F   UNL     1      -1.994   9.878  17.790  0.00  0.00    +0.000 F 
ATOM     17  F   UNL     1      -4.099  10.012  17.532  0.00  0.00    +0.000 F 
ATOM     18  F   UNL     1      -2.793  11.471  16.558  0.00  0.00    +0.000 F 
ENDBRANCH   2  15
BRANCH   1  20
ATOM     19  O   UNL     1      -0.027  12.462  19.004  0.00  0.00    +0.000 OA
ATOM     20  C   UNL     1      -0.717  11.718  19.690  0.00  0.00    +0.000 C 
BRANCH  20  21
ATOM     21  C   UNL     1      -0.134  10.502  20.379  0.00  0.00    +0.000 A 
ATOM     22  C   UNL     1      -0.415  10.294  21.746  0.00  0.00    +0.000 A 
ATOM     23  C   UNL     1       0.223   9.281  22.458  0.00  0.00    +0.000 A 
ATOM     24  C   UNL     1       1.092   8.417  21.802  0.00  0.00    +0.000 A 
ATOM     25  C   UNL     1       1.328   8.540  20.429  0.00  0.00    +0.000 A 
ATOM     26  C   UNL     1       2.180   7.615  19.798  0.00  0.00    +0.000 A 
ATOM     27  C   UNL     1       2.447   7.697  18.435  0.00  0.00    +0.000 A 
ATOM     28  C   UNL     1       1.889   8.722  17.690  0.00  0.00    +0.000 A 
ATOM     29  C   UNL     1       1.056   9.658  18.307  0.00  0.00    +0.000 A 
ATOM     30  C   UNL     1       0.728   9.593  19.684  0.00  0.00    +0.000 A 
ENDBRANCH  20  21
ENDBRANCH   1  20
TORSDOF 3
ENDMDL
MODEL 7
REMARK VINA RESULT:      -8.4      7.927     11.136
REMARK  Name = 
REMARK  3 active torsions:
REMARK  status: ('A' for Active; 'I' for Inactive)
REMARK    1  A    between atoms: C_2  and  C_3
REMARK    2  A    between atoms: C_2  and  C_13
REMARK    3  A    between atoms: C_14  and  C_15
REMARK                            x       y       z     vdW  Elec       q    Type
REMARK                         _______ _______ _______ _____ _____    ______ ____
ROOT
ATOM      1  C   UNL     1      -1.106  11.428  19.433  0.00  0.00    +0.000 A 
ATOM      2  C   UNL     1      -2.151  11.189  18.513  0.00  0.00    +0.000 A 
ATOM      3  N   UNL     1      -3.374  11.808  18.709  0.00  0.00    +0.000 N 
ATOM      4  O   UNL     1      -4.323  11.662  17.878  0.00  0.00    +0.000 OA
ATOM      5  C   UNL     1      -3.604  12.597  19.857  0.00  0.00    +0.000 A 
ATOM      6  C   UNL     1      -4.872  13.163  20.122  0.00  0.00    +0.000 A 
ATOM      7  C   UNL     1      -5.090  13.907  21.277  0.00  0.00    +0.000 A 
ATOM      8  F   UNL     1      -6.307  14.413  21.512  0.00  0.00    +0.000 F 
ATOM      9  C   UNL     1      -4.062  14.110  22.181  0.00  0.00    +0.000 A 
ATOM     10  F   UNL     1      -4.278  14.795  23.309  0.00  0.00    +0.000 F 
ATOM     11  C   UNL     1      -2.801  13.590  21.932  0.00  0.00    +0.000 A 
ATOM     12  C   UNL     1      -2.556  12.832  20.763  0.00  0.00    +0.000 A 
ATOM     13  N   UNL     1      -1.281  12.313  20.496  0.00  0.00    +0.000 N 
ATOM     14  O   UNL     1      -0.318  12.686  21.236  0.00  0.00    +0.000 OA
ENDROOT
BRANCH   2  15
ATOM     15  C   UNL     1      -2.121  10.334  17.290  0.00  0.00    +0.000 C 
ATOM     16  F   UNL     1      -1.004   9.585  17.105  0.00  0.00    +0.000 F 
ATOM     17  F   UNL     1      -3.113   9.393  17.291  0.00  0.00    +0.000 F 
ATOM     18  F   UNL     1      -2.273  11.054  16.144  0.00  0.00    +0.000 F 
ENDBRANCH   2  15
BRANCH   1  20
ATOM     19  O   UNL     1       1.049  11.567  18.687  0.00  0.00    +0.000 OA
ATOM     20  C   UNL     1       0.254  10.855  19.289  0.00  0.00    +0.000 C 
BRANCH  20  21
ATOM     21  C   UNL     1       0.660   9.510  19.853  0.00  0.00    +0.000 A 
ATOM     22  C   UNL     1       0.138   9.109  21.101  0.00  0.00    +0.000 A 
ATOM     23  C   UNL     1       0.602   7.956  21.731  0.00  0.00    +0.000 A 
ATOM     24  C   UNL     1       1.537   7.149  21.093  0.00  0.00    +0.000 A 
ATOM     25  C   UNL     1       2.012   7.470  19.817  0.00  0.00    +0.000 A 
ATOM     26  C   UNL     1       2.923   6.600  19.190  0.00  0.00    +0.000 A 
ATOM     27  C   UNL     1       3.426   6.876  17.922  0.00  0.00    +0.000 A 
ATOM     28  C   UNL     1       3.047   8.041  17.277  0.00  0.00    +0.000 A 
ATOM     29  C   UNL     1       2.157   8.922  17.894  0.00  0.00    +0.000 A 
ATOM     30  C   UNL     1       1.593   8.664  19.169  0.00  0.00    +0.000 A 
ENDBRANCH  20  21
ENDBRANCH   1  20
TORSDOF 3
ENDMDL
MODEL 8
REMARK VINA RESULT:      -8.3      2.998      4.664
REMARK  Name = 
REMARK  3 active torsions:
REMARK  status: ('A' for Active; 'I' for Inactive)
REMARK    1  A    between atoms: C_2  and  C_3
REMARK    2  A    between atoms: C_2  and  C_13
REMARK    3  A    between atoms: C_14  and  C_15
REMARK                            x       y       z     vdW  Elec       q    Type
REMARK                         _______ _______ _______ _____ _____    ______ ____
ROOT
ATOM      1  C   UNL     1       3.117   5.666  18.664  0.00  0.00    +0.000 A 
ATOM      2  C   UNL     1       2.635   4.358  18.441  0.00  0.00    +0.000 A 
ATOM      3  N   UNL     1       3.270   3.557  17.506  0.00  0.00    +0.000 N 
ATOM      4  O   UNL     1       2.902   2.358  17.312  0.00  0.00    +0.000 OA
ATOM      5  C   UNL     1       4.327   4.068  16.722  0.00  0.00    +0.000 A 
ATOM      6  C   UNL     1       4.927   3.299  15.699  0.00  0.00    +0.000 A 
ATOM      7  C   UNL     1       5.944   3.832  14.913  0.00  0.00    +0.000 A 
ATOM      8  F   UNL     1       6.479   3.087  13.938  0.00  0.00    +0.000 F 
ATOM      9  C   UNL     1       6.386   5.126  15.127  0.00  0.00    +0.000 A 
ATOM     10  F   UNL     1       7.338   5.653  14.349  0.00  0.00    +0.000 F 
ATOM     11  C   UNL     1       5.834   5.893  16.142  0.00  0.00    +0.000 A 
ATOM     12  C   UNL     1       4.802   5.370  16.955  0.00  0.00    +0.000 A 
ATOM     13  N   UNL     1       4.246   6.134  17.992  0.00  0.00    +0.000 N 
ATOM     14  O   UNL     1       4.809   7.233  18.291  0.00  0.00    +0.000 OA
ENDROOT
BRANCH   2  15
ATOM     15  C   UNL     1       1.493   3.672  19.112  0.00  0.00    +0.000 C 
ATOM     16  F   UNL     1       0.663   4.459  19.844  0.00  0.00    +0.000 F 
ATOM     17  F   UNL     1       0.638   3.091  18.218  0.00  0.00    +0.000 F 
ATOM     18  F   UNL     1       1.898   2.683  19.957  0.00  0.00    +0.000 F 
ENDBRANCH   2  15
BRANCH   1  20
ATOM     19  O   UNL     1       2.677   6.220  20.836  0.00  0.00    +0.000 OA
ATOM     20  C   UNL     1       2.542   6.586  19.674  0.00  0.00    +0.000 C 
BRANCH  20  21
ATOM     21  C   UNL     1       1.858   7.891  19.327  0.00  0.00    +0.000 A 
ATOM     22  C   UNL     1       1.902   8.349  17.993  0.00  0.00    +0.000 A 
ATOM     23  C   UNL     1       1.426   9.614  17.657  0.00  0.00    +0.000 A 
ATOM     24  C   UNL     1       0.832  10.409  18.630  0.00  0.00    +0.000 A 
ATOM     25  C   UNL     1       0.692   9.952  19.945  0.00  0.00    +0.000 A 
ATOM     26  C   UNL     1       0.044  10.773  20.886  0.00  0.00    +0.000 A 
ATOM     27  C   UNL     1      -0.118  10.364  22.207  0.00  0.00    +0.000 A 
ATOM     28  C   UNL     1       0.393   9.142  22.610  0.00  0.00    +0.000 A 
ATOM     29  C   UNL     1       1.055   8.325  21.691  0.00  0.00    +0.000 A 
ATOM     30  C   UNL     1       1.212   8.685  20.329  0.00  0.00    +0.000 A 
ENDBRANCH  20  21
ENDBRANCH   1  20
TORSDOF 3
ENDMDL
MODEL 9
REMARK VINA RESULT:      -8.2      7.161     10.485
REMARK  Name = 
REMARK  3 active torsions:
REMARK  status: ('A' for Active; 'I' for Inactive)
REMARK    1  A    between atoms: C_2  and  C_3
REMARK    2  A    between atoms: C_2  and  C_13
REMARK    3  A    between atoms: C_14  and  C_15
REMARK                            x       y       z     vdW  Elec       q    Type
REMARK                         _______ _______ _______ _____ _____    ______ ____
ROOT
ATOM      1  C   UNL     1      -0.033  10.927  19.605  0.00  0.00    +0.000 A 
ATOM      2  C   UNL     1      -1.282  11.009  18.951  0.00  0.00    +0.000 A 
ATOM      3  N   UNL     1      -2.264  11.834  19.474  0.00  0.00    +0.000 N 
ATOM      4  O   UNL     1      -3.381  11.976  18.888  0.00  0.00    +0.000 OA
ATOM      5  C   UNL     1      -2.054  12.516  20.692  0.00  0.00    +0.000 A 
ATOM      6  C   UNL     1      -3.075  13.289  21.291  0.00  0.00    +0.000 A 
ATOM      7  C   UNL     1      -2.862  13.925  22.510  0.00  0.00    +0.000 A 
ATOM      8  F   UNL     1      -3.854  14.633  23.063  0.00  0.00    +0.000 F 
ATOM      9  C   UNL     1      -1.641  13.813  23.151  0.00  0.00    +0.000 A 
ATOM     10  F   UNL     1      -1.445  14.394  24.341  0.00  0.00    +0.000 F 
ATOM     11  C   UNL     1      -0.613  13.083  22.573  0.00  0.00    +0.000 A 
ATOM     12  C   UNL     1      -0.806  12.431  21.333  0.00  0.00    +0.000 A 
ATOM     13  N   UNL     1       0.231  11.702  20.734  0.00  0.00    +0.000 N 
ATOM     14  O   UNL     1       1.392  11.787  21.244  0.00  0.00    +0.000 OA
ENDROOT
BRANCH   2  15
ATOM     15  C   UNL     1      -1.714  10.312  17.704  0.00  0.00    +0.000 C 
ATOM     16  F   UNL     1      -2.043  11.106  16.652  0.00  0.00    +0.000 F 
ATOM     17  F   UNL     1      -0.726   9.523  17.182  0.00  0.00    +0.000 F 
ATOM     18  F   UNL     1      -2.791   9.502  17.902  0.00  0.00    +0.000 F 
ENDBRANCH   2  15
BRANCH   1  20
ATOM     19  O   UNL     1       1.820  10.685  18.292  0.00  0.00    +0.000 OA
ATOM     20  C   UNL     1       1.100  10.114  19.102  0.00  0.00    +0.000 C 
BRANCH  20  21
ATOM     21  C   UNL     1       1.380   8.697  19.555  0.00  0.00    +0.000 A 
ATOM     22  C   UNL     1       0.752   8.219  20.725  0.00  0.00    +0.000 A 
ATOM     23  C   UNL     1       1.098   6.983  21.266  0.00  0.00    +0.000 A 
ATOM     24  C   UNL     1       2.019   6.175  20.609  0.00  0.00    +0.000 A 
ATOM     25  C   UNL     1       2.597   6.579  19.401  0.00  0.00    +0.000 A 
ATOM     26  C   UNL     1       3.489   5.709  18.748  0.00  0.00    +0.000 A 
ATOM     27  C   UNL     1       4.091   6.066  17.545  0.00  0.00    +0.000 A 
ATOM     28  C   UNL     1       3.831   7.310  16.994  0.00  0.00    +0.000 A 
ATOM     29  C   UNL     1       2.962   8.190  17.641  0.00  0.00    +0.000 A 
ATOM     30  C   UNL     1       2.300   7.855  18.849  0.00  0.00    +0.000 A 
ENDBRANCH  20  21
ENDBRANCH   1  20
TORSDOF 3
ENDMDL
