MODEL 1
REMARK VINA RESULT:      -7.8      0.000      0.000
REMARK  Name = 
REMARK  5 active torsions:
REMARK  status: ('A' for Active; 'I' for Inactive)
REMARK    1  A    between atoms: C_1  and  C_2
REMARK    2  A    between atoms: N_7  and  C_8
REMARK    3  A    between atoms: N_13  and  N_14
REMARK    4  A    between atoms: C_15  and  C_17
REMARK    5  A    between atoms: C_17  and  C_18
REMARK                            x       y       z     vdW  Elec       q    Type
REMARK                         _______ _______ _______ _____ _____    ______ ____
ROOT
ATOM      1  C   UNL     1       5.380   4.513  15.030  0.00  0.00    +0.000 C 
ATOM      2  C   UNL     1       6.061   4.618  16.383  0.00  0.00    +0.000 C 
ATOM      3  O   UNL     1       5.167   4.202  17.430  0.00  0.00    +0.000 OA
ATOM      4  C   UNL     1       4.487   5.337  18.016  0.00  0.00    +0.000 C 
ATOM      5  C   UNL     1       4.603   5.234  19.549  0.00  0.00    +0.000 C 
ATOM      6  C   UNL     1       3.753   4.104  20.135  0.00  0.00    +0.000 C 
ATOM      7  N   UNL     1       2.353   4.131  19.698  0.00  0.00    +0.000 NA
ATOM      8  C   UNL     1       1.593   5.235  20.282  0.00  0.00    +0.000 C 
ATOM      9  C   UNL     1       2.278   4.112  18.234  0.00  0.00    +0.000 C 
ATOM     10  C   UNL     1       3.016   5.282  17.579  0.00  0.00    +0.000 C 
ATOM     11  C   UNL     1       5.185   6.613  17.527  0.00  0.00    +0.000 C 
ATOM     12  C   UNL     1       6.330   6.041  16.767  0.00  0.00    +0.000 C 
ATOM     13  N   UNL     1       7.434   6.630  16.429  0.00  0.00    +0.000 NA
ENDROOT
BRANCH  13  14
ATOM     14  N   UNL     1       7.644   7.912  16.838  0.00  0.00    +0.000 N 
ATOM     15  C   UNL     1       8.172   8.158  18.099  0.00  0.00    +0.000 C 
ATOM     16  O   UNL     1       8.600   7.303  18.873  0.00  0.00    +0.000 OA
ATOM     17  H   UNL     1       7.301   8.685  16.283  0.00  0.00    +0.000 HD
BRANCH  15  18
ATOM     18  C   UNL     1       8.176   9.632  18.467  0.00  0.00    +0.000 C 
BRANCH  18  19
ATOM     19  C   UNL     1       9.569  10.159  18.869  0.00  0.00    +0.000 C 
ATOM     20  C   UNL     1      10.111  11.219  17.894  0.00  0.00    +0.000 C 
ATOM     21  C   UNL     1       9.344  12.536  17.975  0.00  0.00    +0.000 C 
ATOM     22  C   UNL     1       9.332  13.087  19.397  0.00  0.00    +0.000 C 
ATOM     23  C   UNL     1       8.830  12.064  20.414  0.00  0.00    +0.000 C 
ATOM     24  C   UNL     1       9.565  10.728  20.299  0.00  0.00    +0.000 C 
ENDBRANCH  18  19
ENDBRANCH  15  18
ENDBRANCH  13  14
TORSDOF 3
ENDMDL
MODEL 2
REMARK VINA RESULT:      -7.7      1.274      1.706
REMARK  Name = 
REMARK  5 active torsions:
REMARK  status: ('A' for Active; 'I' for Inactive)
REMARK    1  A    between atoms: C_1  and  C_2
REMARK    2  A    between atoms: N_7  and  C_8
REMARK    3  A    between atoms: N_13  and  N_14
REMARK    4  A    between atoms: C_15  and  C_17
REMARK    5  A    between atoms: C_17  and  C_18
REMARK                            x       y       z     vdW  Elec       q    Type
REMARK                         _______ _______ _______ _____ _____    ______ ____
ROOT
ATOM      1  C   UNL     1       5.301   5.896  15.178  0.00  0.00    +0.000 C 
ATOM      2  C   UNL     1       6.107   5.175  16.244  0.00  0.00    +0.000 C 
ATOM      3  O   UNL     1       5.254   4.328  17.033  0.00  0.00    +0.000 OA
ATOM      4  C   UNL     1       4.823   5.002  18.238  0.00  0.00    +0.000 C 
ATOM      5  C   UNL     1       5.056   4.058  19.434  0.00  0.00    +0.000 C 
ATOM      6  C   UNL     1       4.090   2.872  19.452  0.00  0.00    +0.000 C 
ATOM      7  N   UNL     1       2.680   3.257  19.333  0.00  0.00    +0.000 NA
ATOM      8  C   UNL     1       2.163   3.914  20.533  0.00  0.00    +0.000 C 
ATOM      9  C   UNL     1       2.473   4.058  18.124  0.00  0.00    +0.000 C 
ATOM     10  C   UNL     1       3.329   5.327  18.088  0.00  0.00    +0.000 C 
ATOM     11  C   UNL     1       5.672   6.270  18.404  0.00  0.00    +0.000 C 
ATOM     12  C   UNL     1       6.637   6.118  17.281  0.00  0.00    +0.000 C 
ATOM     13  N   UNL     1       7.787   6.697  17.136  0.00  0.00    +0.000 NA
ENDROOT
BRANCH  13  14
ATOM     14  N   UNL     1       8.238   7.514  18.128  0.00  0.00    +0.000 N 
ATOM     15  C   UNL     1       8.200   8.891  17.961  0.00  0.00    +0.000 C 
ATOM     16  O   UNL     1       7.669   9.483  17.022  0.00  0.00    +0.000 OA
ATOM     17  H   UNL     1       8.717   7.123  18.930  0.00  0.00    +0.000 HD
BRANCH  15  18
ATOM     18  C   UNL     1       8.901   9.648  19.077  0.00  0.00    +0.000 C 
BRANCH  18  19
ATOM     19  C   UNL     1       9.059  11.156  18.790  0.00  0.00    +0.000 C 
ATOM     20  C   UNL     1       9.096  12.007  20.070  0.00  0.00    +0.000 C 
ATOM     21  C   UNL     1      10.377  11.800  20.875  0.00  0.00    +0.000 C 
ATOM     22  C   UNL     1      11.616  12.069  20.028  0.00  0.00    +0.000 C 
ATOM     23  C   UNL     1      11.617  11.270  18.727  0.00  0.00    +0.000 C 
ATOM     24  C   UNL     1      10.314  11.439  17.945  0.00  0.00    +0.000 C 
ENDBRANCH  18  19
ENDBRANCH  15  18
ENDBRANCH  13  14
TORSDOF 3
ENDMDL
MODEL 3
REMARK VINA RESULT:      -7.6      2.936      9.226
REMARK  Name = 
REMARK  5 active torsions:
REMARK  status: ('A' for Active; 'I' for Inactive)
REMARK    1  A    between atoms: C_1  and  C_2
REMARK    2  A    between atoms: N_7  and  C_8
REMARK    3  A    between atoms: N_13  and  N_14
REMARK    4  A    between atoms: C_15  and  C_17
REMARK    5  A    between atoms: C_17  and  C_18
REMARK                            x       y       z     vdW  Elec       q    Type
REMARK                         _______ _______ _______ _____ _____    ______ ____
ROOT
ATOM      1  C   UNL     1       9.757  12.158  21.477  0.00  0.00    +0.000 C 
ATOM      2  C   UNL     1      10.513  11.616  20.276  0.00  0.00    +0.000 C 
ATOM      3  O   UNL     1      11.091  12.693  19.518  0.00  0.00    +0.000 OA
ATOM      4  C   UNL     1      10.227  13.082  18.425  0.00  0.00    +0.000 C 
ATOM      5  C   UNL     1      11.073  13.157  17.139  0.00  0.00    +0.000 C 
ATOM      6  C   UNL     1      12.038  14.345  17.130  0.00  0.00    +0.000 C 
ATOM      7  N   UNL     1      11.397  15.629  17.432  0.00  0.00    +0.000 NA
ATOM      8  C   UNL     1      10.533  16.104  16.351  0.00  0.00    +0.000 C 
ATOM      9  C   UNL     1      10.696  15.557  18.717  0.00  0.00    +0.000 C 
ATOM     10  C   UNL     1       9.632  14.457  18.762  0.00  0.00    +0.000 C 
ATOM     11  C   UNL     1       9.141  12.009  18.271  0.00  0.00    +0.000 C 
ATOM     12  C   UNL     1       9.593  10.999  19.267  0.00  0.00    +0.000 C 
ATOM     13  N   UNL     1       9.269   9.746  19.332  0.00  0.00    +0.000 NA
ENDROOT
BRANCH  13  14
ATOM     14  N   UNL     1       8.462   9.227  18.366  0.00  0.00    +0.000 N 
ATOM     15  C   UNL     1       8.197   7.865  18.344  0.00  0.00    +0.000 C 
ATOM     16  O   UNL     1       8.531   7.058  19.210  0.00  0.00    +0.000 OA
ATOM     17  H   UNL     1       8.158   9.805  17.593  0.00  0.00    +0.000 HD
BRANCH  15  18
ATOM     18  C   UNL     1       7.431   7.425  17.107  0.00  0.00    +0.000 C 
BRANCH  18  19
ATOM     19  C   UNL     1       6.467   6.250  17.369  0.00  0.00    +0.000 C 
ATOM     20  C   UNL     1       5.086   6.454  16.722  0.00  0.00    +0.000 C 
ATOM     21  C   UNL     1       5.134   6.365  15.199  0.00  0.00    +0.000 C 
ATOM     22  C   UNL     1       5.742   5.044  14.737  0.00  0.00    +0.000 C 
ATOM     23  C   UNL     1       7.103   4.776  15.373  0.00  0.00    +0.000 C 
ATOM     24  C   UNL     1       7.066   4.914  16.895  0.00  0.00    +0.000 C 
ENDBRANCH  18  19
ENDBRANCH  15  18
ENDBRANCH  13  14
TORSDOF 3
ENDMDL
MODEL 4
REMARK VINA RESULT:      -7.4      4.798      7.376
REMARK  Name = 
REMARK  5 active torsions:
REMARK  status: ('A' for Active; 'I' for Inactive)
REMARK    1  A    between atoms: C_1  and  C_2
REMARK    2  A    between atoms: N_7  and  C_8
REMARK    3  A    between atoms: N_13  and  N_14
REMARK    4  A    between atoms: C_15  and  C_17
REMARK    5  A    between atoms: C_17  and  C_18
REMARK                            x       y       z     vdW  Elec       q    Type
REMARK                         _______ _______ _______ _____ _____    ______ ____
ROOT
ATOM      1  C   UNL     1       4.778   6.741  16.587  0.00  0.00    +0.000 C 
ATOM      2  C   UNL     1       4.256   6.943  17.998  0.00  0.00    +0.000 C 
ATOM      3  O   UNL     1       4.075   5.676  18.654  0.00  0.00    +0.000 OA
ATOM      4  C   UNL     1       2.708   5.218  18.533  0.00  0.00    +0.000 C 
ATOM      5  C   UNL     1       2.212   4.792  19.929  0.00  0.00    +0.000 C 
ATOM      6  C   UNL     1       2.866   3.501  20.424  0.00  0.00    +0.000 C 
ATOM      7  N   UNL     1       2.792   2.395  19.463  0.00  0.00    +0.000 NA
ATOM      8  C   UNL     1       1.442   1.855  19.315  0.00  0.00    +0.000 C 
ATOM      9  C   UNL     1       3.377   2.797  18.181  0.00  0.00    +0.000 C 
ATOM     10  C   UNL     1       2.696   4.024  17.567  0.00  0.00    +0.000 C 
ATOM     11  C   UNL     1       1.859   6.386  18.013  0.00  0.00    +0.000 C 
ATOM     12  C   UNL     1       2.859   7.488  18.007  0.00  0.00    +0.000 C 
ATOM     13  N   UNL     1       2.637   8.764  17.993  0.00  0.00    +0.000 NA
ENDROOT
BRANCH  13  14
ATOM     14  N   UNL     1       1.349   9.205  18.042  0.00  0.00    +0.000 N 
ATOM     15  C   UNL     1       0.800   9.603  19.253  0.00  0.00    +0.000 C 
ATOM     16  O   UNL     1       1.415   9.719  20.312  0.00  0.00    +0.000 OA
ATOM     17  H   UNL     1       0.753   9.123  17.228  0.00  0.00    +0.000 HD
BRANCH  15  18
ATOM     18  C   UNL     1      -0.689   9.894  19.167  0.00  0.00    +0.000 C 
BRANCH  18  19
ATOM     19  C   UNL     1      -1.080  10.722  17.925  0.00  0.00    +0.000 C 
ATOM     20  C   UNL     1      -1.976   9.944  16.946  0.00  0.00    +0.000 C 
ATOM     21  C   UNL     1      -3.378   9.702  17.500  0.00  0.00    +0.000 C 
ATOM     22  C   UNL     1      -4.051  11.009  17.904  0.00  0.00    +0.000 C 
ATOM     23  C   UNL     1      -3.190  11.838  18.855  0.00  0.00    +0.000 C 
ATOM     24  C   UNL     1      -1.771  12.039  18.322  0.00  0.00    +0.000 C 
ENDBRANCH  18  19
ENDBRANCH  15  18
ENDBRANCH  13  14
TORSDOF 3
ENDMDL
MODEL 5
REMARK VINA RESULT:      -7.2      5.198      7.903
REMARK  Name = 
REMARK  5 active torsions:
REMARK  status: ('A' for Active; 'I' for Inactive)
REMARK    1  A    between atoms: C_1  and  C_2
REMARK    2  A    between atoms: N_7  and  C_8
REMARK    3  A    between atoms: N_13  and  N_14
REMARK    4  A    between atoms: C_15  and  C_17
REMARK    5  A    between atoms: C_17  and  C_18
REMARK                            x       y       z     vdW  Elec       q    Type
REMARK                         _______ _______ _______ _____ _____    ______ ____
ROOT
ATOM      1  C   UNL     1      -0.479   8.706  22.263  0.00  0.00    +0.000 C 
ATOM      2  C   UNL     1       0.898   9.216  21.877  0.00  0.00    +0.000 C 
ATOM      3  O   UNL     1       0.860  10.634  21.638  0.00  0.00    +0.000 OA
ATOM      4  C   UNL     1       0.687  10.920  20.230  0.00  0.00    +0.000 C 
ATOM      5  C   UNL     1       1.738  11.967  19.814  0.00  0.00    +0.000 C 
ATOM      6  C   UNL     1       1.454  13.356  20.388  0.00  0.00    +0.000 C 
ATOM      7  N   UNL     1       0.089  13.831  20.138  0.00  0.00    +0.000 NA
ATOM      8  C   UNL     1      -0.150  14.175  18.737  0.00  0.00    +0.000 C 
ATOM      9  C   UNL     1      -0.886  12.864  20.650  0.00  0.00    +0.000 C 
ATOM     10  C   UNL     1      -0.733  11.471  20.034  0.00  0.00    +0.000 C 
ATOM     11  C   UNL     1       0.911   9.618  19.449  0.00  0.00    +0.000 C 
ATOM     12  C   UNL     1       1.334   8.698  20.540  0.00  0.00    +0.000 C 
ATOM     13  N   UNL     1       1.977   7.578  20.431  0.00  0.00    +0.000 NA
ENDROOT
BRANCH  13  14
ATOM     14  N   UNL     1       2.384   7.174  19.197  0.00  0.00    +0.000 N 
ATOM     15  C   UNL     1       2.951   5.917  19.032  0.00  0.00    +0.000 C 
ATOM     16  O   UNL     1       3.018   5.045  19.897  0.00  0.00    +0.000 OA
ATOM     17  H   UNL     1       2.395   7.829  18.425  0.00  0.00    +0.000 HD
BRANCH  15  18
ATOM     18  C   UNL     1       3.512   5.694  17.637  0.00  0.00    +0.000 C 
BRANCH  18  19
ATOM     19  C   UNL     1       4.771   6.534  17.342  0.00  0.00    +0.000 C 
ATOM     20  C   UNL     1       6.022   6.014  18.072  0.00  0.00    +0.000 C 
ATOM     21  C   UNL     1       6.511   4.679  17.516  0.00  0.00    +0.000 C 
ATOM     22  C   UNL     1       6.775   4.763  16.016  0.00  0.00    +0.000 C 
ATOM     23  C   UNL     1       5.573   5.303  15.243  0.00  0.00    +0.000 C 
ATOM     24  C   UNL     1       5.052   6.615  15.831  0.00  0.00    +0.000 C 
ENDBRANCH  18  19
ENDBRANCH  15  18
ENDBRANCH  13  14
TORSDOF 3
ENDMDL
MODEL 6
REMARK VINA RESULT:      -7.1      5.438      8.314
REMARK  Name = 
REMARK  5 active torsions:
REMARK  status: ('A' for Active; 'I' for Inactive)
REMARK    1  A    between atoms: C_1  and  C_2
REMARK    2  A    between atoms: N_7  and  C_8
REMARK    3  A    between atoms: N_13  and  N_14
REMARK    4  A    between atoms: C_15  and  C_17
REMARK    5  A    between atoms: C_17  and  C_18
REMARK                            x       y       z     vdW  Elec       q    Type
REMARK                         _______ _______ _______ _____ _____    ______ ____
ROOT
ATOM      1  C   UNL     1      -0.632   9.108  22.694  0.00  0.00    +0.000 C 
ATOM      2  C   UNL     1       0.746   9.584  22.269  0.00  0.00    +0.000 C 
ATOM      3  O   UNL     1       0.714  10.982  21.932  0.00  0.00    +0.000 OA
ATOM      4  C   UNL     1       0.537  11.170  20.509  0.00  0.00    +0.000 C 
ATOM      5  C   UNL     1       1.592  12.180  20.017  0.00  0.00    +0.000 C 
ATOM      6  C   UNL     1       1.316  13.608  20.495  0.00  0.00    +0.000 C 
ATOM      7  N   UNL     1      -0.048  14.070  20.217  0.00  0.00    +0.000 NA
ATOM      8  C   UNL     1      -0.289  14.318  18.796  0.00  0.00    +0.000 C 
ATOM      9  C   UNL     1      -1.026  13.146  20.798  0.00  0.00    +0.000 C 
ATOM     10  C   UNL     1      -0.881  11.713  20.279  0.00  0.00    +0.000 C 
ATOM     11  C   UNL     1       0.753   9.816  19.819  0.00  0.00    +0.000 C 
ATOM     12  C   UNL     1       1.175   8.972  20.970  0.00  0.00    +0.000 C 
ATOM     13  N   UNL     1       1.812   7.844  20.937  0.00  0.00    +0.000 NA
ENDROOT
BRANCH  13  14
ATOM     14  N   UNL     1       2.213   7.353  19.733  0.00  0.00    +0.000 N 
ATOM     15  C   UNL     1       2.286   5.981  19.534  0.00  0.00    +0.000 C 
ATOM     16  O   UNL     1       1.897   5.123  20.325  0.00  0.00    +0.000 OA
ATOM     17  H   UNL     1       2.579   7.978  19.025  0.00  0.00    +0.000 HD
BRANCH  15  18
ATOM     18  C   UNL     1       2.919   5.603  18.205  0.00  0.00    +0.000 C 
BRANCH  18  19
ATOM     19  C   UNL     1       4.458   5.513  18.263  0.00  0.00    +0.000 C 
ATOM     20  C   UNL     1       5.000   4.189  17.698  0.00  0.00    +0.000 C 
ATOM     21  C   UNL     1       4.830   4.083  16.185  0.00  0.00    +0.000 C 
ATOM     22  C   UNL     1       5.475   5.264  15.468  0.00  0.00    +0.000 C 
ATOM     23  C   UNL     1       4.993   6.608  16.010  0.00  0.00    +0.000 C 
ATOM     24  C   UNL     1       5.119   6.695  17.531  0.00  0.00    +0.000 C 
ENDBRANCH  18  19
ENDBRANCH  15  18
ENDBRANCH  13  14
TORSDOF 3
ENDMDL
MODEL 7
REMARK VINA RESULT:      -7.0      1.051      1.104
REMARK  Name = 
REMARK  5 active torsions:
REMARK  status: ('A' for Active; 'I' for Inactive)
REMARK    1  A    between atoms: C_1  and  C_2
REMARK    2  A    between atoms: N_7  and  C_8
REMARK    3  A    between atoms: N_13  and  N_14
REMARK    4  A    between atoms: C_15  and  C_17
REMARK    5  A    between atoms: C_17  and  C_18
REMARK                            x       y       z     vdW  Elec       q    Type
REMARK                         _______ _______ _______ _____ _____    ______ ____
ROOT
ATOM      1  C   UNL     1       5.583   5.558  15.196  0.00  0.00    +0.000 C 
ATOM      2  C   UNL     1       6.172   4.966  16.464  0.00  0.00    +0.000 C 
ATOM      3  O   UNL     1       5.153   4.299  17.228  0.00  0.00    +0.000 OA
ATOM      4  C   UNL     1       4.608   5.173  18.244  0.00  0.00    +0.000 C 
ATOM      5  C   UNL     1       4.595   4.413  19.584  0.00  0.00    +0.000 C 
ATOM      6  C   UNL     1       3.548   3.298  19.626  0.00  0.00    +0.000 C 
ATOM      7  N   UNL     1       2.202   3.738  19.240  0.00  0.00    +0.000 NA
ATOM      8  C   UNL     1       1.573   4.599  20.240  0.00  0.00    +0.000 C 
ATOM      9  C   UNL     1       2.232   4.354  17.910  0.00  0.00    +0.000 C 
ATOM     10  C   UNL     1       3.180   5.552  17.823  0.00  0.00    +0.000 C 
ATOM     11  C   UNL     1       5.520   6.403  18.352  0.00  0.00    +0.000 C 
ATOM     12  C   UNL     1       6.620   6.027  17.423  0.00  0.00    +0.000 C 
ATOM     13  N   UNL     1       7.820   6.513  17.373  0.00  0.00    +0.000 NA
ENDROOT
BRANCH  13  14
ATOM     14  N   UNL     1       8.187   7.447  18.294  0.00  0.00    +0.000 N 
ATOM     15  C   UNL     1       8.138   8.795  17.969  0.00  0.00    +0.000 C 
ATOM     16  O   UNL     1       7.664   9.264  16.935  0.00  0.00    +0.000 OA
ATOM     17  H   UNL     1       8.616   7.160  19.165  0.00  0.00    +0.000 HD
BRANCH  15  18
ATOM     18  C   UNL     1       8.746   9.689  19.037  0.00  0.00    +0.000 C 
BRANCH  18  19
ATOM     19  C   UNL     1       9.797  10.675  18.484  0.00  0.00    +0.000 C 
ATOM     20  C   UNL     1       9.174  11.982  17.964  0.00  0.00    +0.000 C 
ATOM     21  C   UNL     1       8.621  12.855  19.087  0.00  0.00    +0.000 C 
ATOM     22  C   UNL     1       9.688  13.161  20.132  0.00  0.00    +0.000 C 
ATOM     23  C   UNL     1      10.362  11.898  20.663  0.00  0.00    +0.000 C 
ATOM     24  C   UNL     1      10.872  11.000  19.536  0.00  0.00    +0.000 C 
ENDBRANCH  18  19
ENDBRANCH  15  18
ENDBRANCH  13  14
TORSDOF 3
ENDMDL
MODEL 8
REMARK VINA RESULT:      -7.0      2.603      9.058
REMARK  Name = 
REMARK  5 active torsions:
REMARK  status: ('A' for Active; 'I' for Inactive)
REMARK    1  A    between atoms: C_1  and  C_2
REMARK    2  A    between atoms: N_7  and  C_8
REMARK    3  A    between atoms: N_13  and  N_14
REMARK    4  A    between atoms: C_15  and  C_17
REMARK    5  A    between atoms: C_17  and  C_18
REMARK                            x       y       z     vdW  Elec       q    Type
REMARK                         _______ _______ _______ _____ _____    ______ ____
ROOT
ATOM      1  C   UNL     1       9.216  11.628  21.388  0.00  0.00    +0.000 C 
ATOM      2  C   UNL     1      10.121  11.079  20.299  0.00  0.00    +0.000 C 
ATOM      3  O   UNL     1      10.803  12.149  19.624  0.00  0.00    +0.000 OA
ATOM      4  C   UNL     1      10.096  12.543  18.424  0.00  0.00    +0.000 C 
ATOM      5  C   UNL     1      11.106  12.608  17.263  0.00  0.00    +0.000 C 
ATOM      6  C   UNL     1      12.073  13.788  17.382  0.00  0.00    +0.000 C 
ATOM      7  N   UNL     1      11.407  15.078  17.593  0.00  0.00    +0.000 NA
ATOM      8  C   UNL     1      10.699  15.557  16.407  0.00  0.00    +0.000 C 
ATOM      9  C   UNL     1      10.540  15.014  18.773  0.00  0.00    +0.000 C 
ATOM     10  C   UNL     1       9.471  13.923  18.677  0.00  0.00    +0.000 C 
ATOM     11  C   UNL     1       9.032  11.477  18.128  0.00  0.00    +0.000 C 
ATOM     12  C   UNL     1       9.339  10.466  19.177  0.00  0.00    +0.000 C 
ATOM     13  N   UNL     1       8.999   9.215  19.200  0.00  0.00    +0.000 NA
ENDROOT
BRANCH  13  14
ATOM     14  N   UNL     1       8.324   8.701  18.136  0.00  0.00    +0.000 N 
ATOM     15  C   UNL     1       7.915   7.374  18.152  0.00  0.00    +0.000 C 
ATOM     16  O   UNL     1       7.995   6.614  19.116  0.00  0.00    +0.000 OA
ATOM     17  H   UNL     1       8.231   9.239  17.284  0.00  0.00    +0.000 HD
BRANCH  15  18
ATOM     18  C   UNL     1       7.338   6.911  16.824  0.00  0.00    +0.000 C 
BRANCH  18  19
ATOM     19  C   UNL     1       7.414   5.383  16.624  0.00  0.00    +0.000 C 
ATOM     20  C   UNL     1       6.581   4.603  17.655  0.00  0.00    +0.000 C 
ATOM     21  C   UNL     1       5.078   4.778  17.448  0.00  0.00    +0.000 C 
ATOM     22  C   UNL     1       4.662   4.391  16.033  0.00  0.00    +0.000 C 
ATOM     23  C   UNL     1       5.479   5.115  14.966  0.00  0.00    +0.000 C 
ATOM     24  C   UNL     1       6.984   4.980  15.202  0.00  0.00    +0.000 C 
ENDBRANCH  18  19
ENDBRANCH  15  18
ENDBRANCH  13  14
TORSDOF 3
ENDMDL
MODEL 9
REMARK VINA RESULT:      -6.7      4.853      6.483
REMARK  Name = 
REMARK  5 active torsions:
REMARK  status: ('A' for Active; 'I' for Inactive)
REMARK    1  A    between atoms: C_1  and  C_2
REMARK    2  A    between atoms: N_7  and  C_8
REMARK    3  A    between atoms: N_13  and  N_14
REMARK    4  A    between atoms: C_15  and  C_17
REMARK    5  A    between atoms: C_17  and  C_18
REMARK                            x       y       z     vdW  Elec       q    Type
REMARK                         _______ _______ _______ _____ _____    ______ ____
ROOT
ATOM      1  C   UNL     1       4.898   6.491  16.104  0.00  0.00    +0.000 C 
ATOM      2  C   UNL     1       4.626   6.671  17.588  0.00  0.00    +0.000 C 
ATOM      3  O   UNL     1       4.500   5.392  18.235  0.00  0.00    +0.000 OA
ATOM      4  C   UNL     1       3.114   4.993  18.333  0.00  0.00    +0.000 C 
ATOM      5  C   UNL     1       2.837   4.545  19.781  0.00  0.00    +0.000 C 
ATOM      6  C   UNL     1       3.506   3.214  20.130  0.00  0.00    +0.000 C 
ATOM      7  N   UNL     1       3.224   2.142  19.168  0.00  0.00    +0.000 NA
ATOM      8  C   UNL     1       1.845   1.662  19.236  0.00  0.00    +0.000 C 
ATOM      9  C   UNL     1       3.605   2.560  17.816  0.00  0.00    +0.000 C 
ATOM     10  C   UNL     1       2.888   3.831  17.354  0.00  0.00    +0.000 C 
ATOM     11  C   UNL     1       2.243   6.210  17.989  0.00  0.00    +0.000 C 
ATOM     12  C   UNL     1       3.277   7.270  17.842  0.00  0.00    +0.000 C 
ATOM     13  N   UNL     1       3.112   8.554  17.896  0.00  0.00    +0.000 NA
ENDROOT
BRANCH  13  14
ATOM     14  N   UNL     1       1.872   9.045  18.170  0.00  0.00    +0.000 N 
ATOM     15  C   UNL     1       1.670  10.416  18.240  0.00  0.00    +0.000 C 
ATOM     16  O   UNL     1       2.501  11.276  17.952  0.00  0.00    +0.000 OA
ATOM     17  H   UNL     1       1.127   8.417  18.448  0.00  0.00    +0.000 HD
BRANCH  15  18
ATOM     18  C   UNL     1       0.281  10.791  18.729  0.00  0.00    +0.000 C 
BRANCH  18  19
ATOM     19  C   UNL     1       0.204  12.213  19.324  0.00  0.00    +0.000 C 
ATOM     20  C   UNL     1      -1.141  12.905  19.044  0.00  0.00    +0.000 C 
ATOM     21  C   UNL     1      -2.296  12.278  19.822  0.00  0.00    +0.000 C 
ATOM     22  C   UNL     1      -2.015  12.260  21.320  0.00  0.00    +0.000 C 
ATOM     23  C   UNL     1      -0.674  11.609  21.653  0.00  0.00    +0.000 C 
ATOM     24  C   UNL     1       0.475  12.204  20.839  0.00  0.00    +0.000 C 
ENDBRANCH  18  19
ENDBRANCH  15  18
ENDBRANCH  13  14
TORSDOF 3
ENDMDL
