MODEL 1
REMARK VINA RESULT:      -7.9      0.000      0.000
REMARK  Name = 
REMARK  8 active torsions:
REMARK  status: ('A' for Active; 'I' for Inactive)
REMARK    1  A    between atoms: C_1  and  O_2
REMARK    2  A    between atoms: O_2  and  C_3
REMARK    3  A    between atoms: C_6  and  N_7
REMARK    4  A    between atoms: N_7  and  C_8
REMARK    5  A    between atoms: C_8  and  C_9
REMARK    6  A    between atoms: C_11  and  C_12
REMARK    7  A    between atoms: C_15  and  O_16
REMARK    8  A    between atoms: C_20  and  C_21
REMARK                            x       y       z     vdW  Elec       q    Type
REMARK                         _______ _______ _______ _____ _____    ______ ____
ROOT
ATOM      1  C   UNL     1       3.388   6.195  17.883  0.00  0.00    +0.000 A 
ATOM      2  C   UNL     1       2.737   4.950  17.808  0.00  0.00    +0.000 A 
ATOM      3  C   UNL     1       3.432   3.808  17.318  0.00  0.00    +0.000 A 
ATOM      4  C   UNL     1       2.820   2.450  17.583  0.00  0.00    +0.000 C 
ATOM      5  C   UNL     1       4.735   3.967  16.874  0.00  0.00    +0.000 A 
ATOM      6  C   UNL     1       5.427   5.053  17.362  0.00  0.00    +0.000 A 
ATOM      7  C   UNL     1       4.767   6.220  17.682  0.00  0.00    +0.000 A 
ATOM      8  C   UNL     1       6.865   4.839  17.535  0.00  0.00    +0.000 C 
ATOM      9  O   UNL     1       7.404   4.735  18.625  0.00  0.00    +0.000 OA
ATOM     10  O   UNL     1       7.492   4.690  16.362  0.00  0.00    +0.000 OA
ATOM     11  C   UNL     1       6.805   3.965  15.323  0.00  0.00    +0.000 C 
ATOM     12  C   UNL     1       6.805   4.885  14.107  0.00  0.00    +0.000 C 
ATOM     13  C   UNL     1       5.435   3.280  15.730  0.00  0.00    +0.000 C 
ENDROOT
BRANCH   7  14
ATOM     14  O   UNL     1       5.419   7.413  17.658  0.00  0.00    +0.000 OA
ATOM     15  H   UNL     1       4.785   8.104  17.932  0.00  0.00    +0.000 HD
ENDBRANCH   7  14
BRANCH   1  16
ATOM     16  C   UNL     1       2.629   7.453  18.225  0.00  0.00    +0.000 C 
BRANCH  16  17
ATOM     17  N   UNL     1       2.312   7.502  19.656  0.00  0.00    +0.000 N 
ATOM     18  H   UNL     1       3.170   7.448  20.211  0.00  0.00    +0.000 HD
BRANCH  17  22
ATOM     19  C   UNL     1      -0.312  10.461  21.118  0.00  0.00    +0.000 A 
ATOM     20  C   UNL     1       0.090   9.411  21.941  0.00  0.00    +0.000 A 
ATOM     21  C   UNL     1       0.961   8.426  21.465  0.00  0.00    +0.000 A 
ATOM     22  C   UNL     1       1.410   8.449  20.144  0.00  0.00    +0.000 A 
ATOM     23  C   UNL     1       1.038   9.527  19.341  0.00  0.00    +0.000 A 
ATOM     24  C   UNL     1       0.173  10.522  19.815  0.00  0.00    +0.000 A 
BRANCH  19  26
ATOM     25  C   UNL     1      -1.370  11.222  23.094  0.00  0.00    +0.000 C 
ATOM     26  O   UNL     1      -1.199  11.330  21.688  0.00  0.00    +0.000 OA
ENDBRANCH  19  26
ENDBRANCH  17  22
ENDBRANCH  16  17
ENDBRANCH   1  16
TORSDOF 5
ENDMDL
MODEL 2
REMARK VINA RESULT:      -7.7      3.624      7.573
REMARK  Name = 
REMARK  8 active torsions:
REMARK  status: ('A' for Active; 'I' for Inactive)
REMARK    1  A    between atoms: C_1  and  O_2
REMARK    2  A    between atoms: O_2  and  C_3
REMARK    3  A    between atoms: C_6  and  N_7
REMARK    4  A    between atoms: N_7  and  C_8
REMARK    5  A    between atoms: C_8  and  C_9
REMARK    6  A    between atoms: C_11  and  C_12
REMARK    7  A    between atoms: C_15  and  O_16
REMARK    8  A    between atoms: C_20  and  C_21
REMARK                            x       y       z     vdW  Elec       q    Type
REMARK                         _______ _______ _______ _____ _____    ______ ____
ROOT
ATOM      1  C   UNL     1       5.444   5.774  18.466  0.00  0.00    +0.000 A 
ATOM      2  C   UNL     1       4.616   6.750  17.884  0.00  0.00    +0.000 A 
ATOM      3  C   UNL     1       3.202   6.580  17.881  0.00  0.00    +0.000 A 
ATOM      4  C   UNL     1       2.352   7.792  17.571  0.00  0.00    +0.000 C 
ATOM      5  C   UNL     1       2.676   5.414  18.414  0.00  0.00    +0.000 A 
ATOM      6  C   UNL     1       3.461   4.738  19.321  0.00  0.00    +0.000 A 
ATOM      7  C   UNL     1       4.835   4.772  19.221  0.00  0.00    +0.000 A 
ATOM      8  C   UNL     1       2.722   4.042  20.375  0.00  0.00    +0.000 C 
ATOM      9  O   UNL     1       2.704   4.409  21.539  0.00  0.00    +0.000 OA
ATOM     10  O   UNL     1       2.012   3.014  19.893  0.00  0.00    +0.000 OA
ATOM     11  C   UNL     1       1.388   3.179  18.606  0.00  0.00    +0.000 C 
ATOM     12  C   UNL     1       1.855   1.995  17.765  0.00  0.00    +0.000 C 
ATOM     13  C   UNL     1       1.476   4.623  17.958  0.00  0.00    +0.000 C 
ENDROOT
BRANCH   7  14
ATOM     14  O   UNL     1       5.591   3.760  19.725  0.00  0.00    +0.000 OA
ATOM     15  H   UNL     1       6.529   3.977  19.558  0.00  0.00    +0.000 HD
ENDBRANCH   7  14
BRANCH   1  16
ATOM     16  C   UNL     1       6.945   5.838  18.326  0.00  0.00    +0.000 C 
BRANCH  16  17
ATOM     17  N   UNL     1       7.448   4.696  17.555  0.00  0.00    +0.000 N 
ATOM     18  H   UNL     1       7.487   3.861  18.145  0.00  0.00    +0.000 HD
BRANCH  17  22
ATOM     19  C   UNL     1       5.904   4.045  13.686  0.00  0.00    +0.000 A 
ATOM     20  C   UNL     1       5.329   3.412  14.787  0.00  0.00    +0.000 A 
ATOM     21  C   UNL     1       5.834   3.624  16.074  0.00  0.00    +0.000 A 
ATOM     22  C   UNL     1       6.950   4.435  16.278  0.00  0.00    +0.000 A 
ATOM     23  C   UNL     1       7.491   5.099  15.177  0.00  0.00    +0.000 A 
ATOM     24  C   UNL     1       6.983   4.899  13.886  0.00  0.00    +0.000 A 
BRANCH  19  26
ATOM     25  C   UNL     1       5.858   2.558  11.845  0.00  0.00    +0.000 C 
ATOM     26  O   UNL     1       5.346   3.720  12.482  0.00  0.00    +0.000 OA
ENDBRANCH  19  26
ENDBRANCH  17  22
ENDBRANCH  16  17
ENDBRANCH   1  16
TORSDOF 5
ENDMDL
MODEL 3
REMARK VINA RESULT:      -7.7      3.583      7.618
REMARK  Name = 
REMARK  8 active torsions:
REMARK  status: ('A' for Active; 'I' for Inactive)
REMARK    1  A    between atoms: C_1  and  O_2
REMARK    2  A    between atoms: O_2  and  C_3
REMARK    3  A    between atoms: C_6  and  N_7
REMARK    4  A    between atoms: N_7  and  C_8
REMARK    5  A    between atoms: C_8  and  C_9
REMARK    6  A    between atoms: C_11  and  C_12
REMARK    7  A    between atoms: C_15  and  O_16
REMARK    8  A    between atoms: C_20  and  C_21
REMARK                            x       y       z     vdW  Elec       q    Type
REMARK                         _______ _______ _______ _____ _____    ______ ____
ROOT
ATOM      1  C   UNL     1       5.425   5.950  18.272  0.00  0.00    +0.000 A 
ATOM      2  C   UNL     1       4.524   6.895  17.750  0.00  0.00    +0.000 A 
ATOM      3  C   UNL     1       3.121   6.650  17.802  0.00  0.00    +0.000 A 
ATOM      4  C   UNL     1       2.197   7.822  17.559  0.00  0.00    +0.000 C 
ATOM      5  C   UNL     1       2.680   5.445  18.326  0.00  0.00    +0.000 A 
ATOM      6  C   UNL     1       3.538   4.790  19.181  0.00  0.00    +0.000 A 
ATOM      7  C   UNL     1       4.903   4.900  19.025  0.00  0.00    +0.000 A 
ATOM      8  C   UNL     1       2.883   4.031  20.247  0.00  0.00    +0.000 C 
ATOM      9  O   UNL     1       2.896   4.369  21.420  0.00  0.00    +0.000 OA
ATOM     10  O   UNL     1       2.207   2.979  19.769  0.00  0.00    +0.000 OA
ATOM     11  C   UNL     1       1.520   3.141  18.513  0.00  0.00    +0.000 C 
ATOM     12  C   UNL     1       2.011   2.004  17.623  0.00  0.00    +0.000 C 
ATOM     13  C   UNL     1       1.505   4.603  17.900  0.00  0.00    +0.000 C 
ENDROOT
BRANCH   7  14
ATOM     14  O   UNL     1       5.732   3.918  19.470  0.00  0.00    +0.000 OA
ATOM     15  H   UNL     1       6.235   4.274  20.228  0.00  0.00    +0.000 HD
ENDBRANCH   7  14
BRANCH   1  16
ATOM     16  C   UNL     1       6.914   6.098  18.070  0.00  0.00    +0.000 C 
BRANCH  16  17
ATOM     17  N   UNL     1       7.460   4.949  17.342  0.00  0.00    +0.000 N 
ATOM     18  H   UNL     1       7.456   4.117  17.937  0.00  0.00    +0.000 HD
BRANCH  17  22
ATOM     19  C   UNL     1       6.242   4.006  13.416  0.00  0.00    +0.000 A 
ATOM     20  C   UNL     1       7.307   4.880  13.630  0.00  0.00    +0.000 A 
ATOM     21  C   UNL     1       7.719   5.196  14.928  0.00  0.00    +0.000 A 
ATOM     22  C   UNL     1       7.044   4.682  16.036  0.00  0.00    +0.000 A 
ATOM     23  C   UNL     1       6.009   3.774  15.813  0.00  0.00    +0.000 A 
ATOM     24  C   UNL     1       5.599   3.445  14.514  0.00  0.00    +0.000 A 
BRANCH  19  26
ATOM     25  C   UNL     1       4.667   3.178  11.856  0.00  0.00    +0.000 C 
ATOM     26  O   UNL     1       5.912   3.815  12.104  0.00  0.00    +0.000 OA
ENDBRANCH  19  26
ENDBRANCH  17  22
ENDBRANCH  16  17
ENDBRANCH   1  16
TORSDOF 5
ENDMDL
MODEL 4
REMARK VINA RESULT:      -7.6      0.763      1.350
REMARK  Name = 
REMARK  8 active torsions:
REMARK  status: ('A' for Active; 'I' for Inactive)
REMARK    1  A    between atoms: C_1  and  O_2
REMARK    2  A    between atoms: O_2  and  C_3
REMARK    3  A    between atoms: C_6  and  N_7
REMARK    4  A    between atoms: N_7  and  C_8
REMARK    5  A    between atoms: C_8  and  C_9
REMARK    6  A    between atoms: C_11  and  C_12
REMARK    7  A    between atoms: C_15  and  O_16
REMARK    8  A    between atoms: C_20  and  C_21
REMARK                            x       y       z     vdW  Elec       q    Type
REMARK                         _______ _______ _______ _____ _____    ______ ____
ROOT
ATOM      1  C   UNL     1       3.667   6.492  17.754  0.00  0.00    +0.000 A 
ATOM      2  C   UNL     1       2.927   5.296  17.740  0.00  0.00    +0.000 A 
ATOM      3  C   UNL     1       3.526   4.090  17.275  0.00  0.00    +0.000 A 
ATOM      4  C   UNL     1       2.827   2.790  17.604  0.00  0.00    +0.000 C 
ATOM      5  C   UNL     1       4.825   4.140  16.793  0.00  0.00    +0.000 A 
ATOM      6  C   UNL     1       5.606   5.189  17.225  0.00  0.00    +0.000 A 
ATOM      7  C   UNL     1       5.039   6.411  17.519  0.00  0.00    +0.000 A 
ATOM      8  C   UNL     1       7.028   4.879  17.370  0.00  0.00    +0.000 C 
ATOM      9  O   UNL     1       7.588   4.774  18.449  0.00  0.00    +0.000 OA
ATOM     10  O   UNL     1       7.612   4.645  16.188  0.00  0.00    +0.000 OA
ATOM     11  C   UNL     1       6.847   3.936  15.193  0.00  0.00    +0.000 C 
ATOM     12  C   UNL     1       6.880   4.812  13.945  0.00  0.00    +0.000 C 
ATOM     13  C   UNL     1       5.443   3.365  15.658  0.00  0.00    +0.000 C 
ENDROOT
BRANCH   7  14
ATOM     14  O   UNL     1       5.773   7.553  17.435  0.00  0.00    +0.000 OA
ATOM     15  H   UNL     1       5.248   8.274  17.835  0.00  0.00    +0.000 HD
ENDBRANCH   7  14
BRANCH   1  16
ATOM     16  C   UNL     1       3.009   7.813  18.069  0.00  0.00    +0.000 C 
BRANCH  16  17
ATOM     17  N   UNL     1       2.226   7.727  19.306  0.00  0.00    +0.000 N 
ATOM     18  H   UNL     1       2.824   7.438  20.084  0.00  0.00    +0.000 HD
BRANCH  17  22
ATOM     19  C   UNL     1      -0.535  10.726  20.383  0.00  0.00    +0.000 A 
ATOM     20  C   UNL     1      -0.075  10.634  19.070  0.00  0.00    +0.000 A 
ATOM     21  C   UNL     1       0.840   9.642  18.704  0.00  0.00    +0.000 A 
ATOM     22  C   UNL     1       1.345   8.753  19.653  0.00  0.00    +0.000 A 
ATOM     23  C   UNL     1       0.846   8.824  20.953  0.00  0.00    +0.000 A 
ATOM     24  C   UNL     1      -0.078   9.809  21.324  0.00  0.00    +0.000 A 
BRANCH  19  26
ATOM     25  C   UNL     1      -1.649  12.629  19.522  0.00  0.00    +0.000 C 
ATOM     26  O   UNL     1      -1.390  11.766  20.620  0.00  0.00    +0.000 OA
ENDBRANCH  19  26
ENDBRANCH  17  22
ENDBRANCH  16  17
ENDBRANCH   1  16
TORSDOF 5
ENDMDL
MODEL 5
REMARK VINA RESULT:      -7.6      3.608      7.861
REMARK  Name = 
REMARK  8 active torsions:
REMARK  status: ('A' for Active; 'I' for Inactive)
REMARK    1  A    between atoms: C_1  and  O_2
REMARK    2  A    between atoms: O_2  and  C_3
REMARK    3  A    between atoms: C_6  and  N_7
REMARK    4  A    between atoms: N_7  and  C_8
REMARK    5  A    between atoms: C_8  and  C_9
REMARK    6  A    between atoms: C_11  and  C_12
REMARK    7  A    between atoms: C_15  and  O_16
REMARK    8  A    between atoms: C_20  and  C_21
REMARK                            x       y       z     vdW  Elec       q    Type
REMARK                         _______ _______ _______ _____ _____    ______ ____
ROOT
ATOM      1  C   UNL     1       5.055   4.773  18.963  0.00  0.00    +0.000 A 
ATOM      2  C   UNL     1       4.337   5.981  18.985  0.00  0.00    +0.000 A 
ATOM      3  C   UNL     1       2.968   5.992  19.379  0.00  0.00    +0.000 A 
ATOM      4  C   UNL     1       2.350   7.329  19.723  0.00  0.00    +0.000 C 
ATOM      5  C   UNL     1       2.359   4.785  19.686  0.00  0.00    +0.000 A 
ATOM      6  C   UNL     1       3.187   3.751  20.058  0.00  0.00    +0.000 A 
ATOM      7  C   UNL     1       4.462   3.652  19.544  0.00  0.00    +0.000 A 
ATOM      8  C   UNL     1       2.616   2.828  21.040  0.00  0.00    +0.000 C 
ATOM      9  O   UNL     1       2.981   2.772  22.203  0.00  0.00    +0.000 OA
ATOM     10  O   UNL     1       1.600   2.121  20.530  0.00  0.00    +0.000 OA
ATOM     11  C   UNL     1       0.713   2.791  19.613  0.00  0.00    +0.000 C 
ATOM     12  C   UNL     1       0.678   1.921  18.360  0.00  0.00    +0.000 C 
ATOM     13  C   UNL     1       0.941   4.348  19.423  0.00  0.00    +0.000 C 
ENDROOT
BRANCH   7  14
ATOM     14  O   UNL     1       5.086   2.447  19.464  0.00  0.00    +0.000 OA
ATOM     15  H   UNL     1       5.584   2.425  18.624  0.00  0.00    +0.000 HD
ENDBRANCH   7  14
BRANCH   1  16
ATOM     16  C   UNL     1       6.446   4.702  18.380  0.00  0.00    +0.000 C 
BRANCH  16  17
ATOM     17  N   UNL     1       6.558   5.550  17.189  0.00  0.00    +0.000 N 
ATOM     18  H   UNL     1       7.355   6.185  17.280  0.00  0.00    +0.000 HD
BRANCH  17  22
ATOM     19  C   UNL     1       6.239   3.988  13.285  0.00  0.00    +0.000 A 
ATOM     20  C   UNL     1       5.229   3.758  14.218  0.00  0.00    +0.000 A 
ATOM     21  C   UNL     1       5.326   4.274  15.514  0.00  0.00    +0.000 A 
ATOM     22  C   UNL     1       6.454   4.989  15.915  0.00  0.00    +0.000 A 
ATOM     23  C   UNL     1       7.439   5.252  14.963  0.00  0.00    +0.000 A 
ATOM     24  C   UNL     1       7.343   4.747  13.659  0.00  0.00    +0.000 A 
BRANCH  19  26
ATOM     25  C   UNL     1       4.695   3.145  11.701  0.00  0.00    +0.000 C 
ATOM     26  O   UNL     1       6.044   3.393  12.071  0.00  0.00    +0.000 OA
ENDBRANCH  19  26
ENDBRANCH  17  22
ENDBRANCH  16  17
ENDBRANCH   1  16
TORSDOF 5
ENDMDL
MODEL 6
REMARK VINA RESULT:      -7.5      3.778      6.802
REMARK  Name = 
REMARK  8 active torsions:
REMARK  status: ('A' for Active; 'I' for Inactive)
REMARK    1  A    between atoms: C_1  and  O_2
REMARK    2  A    between atoms: O_2  and  C_3
REMARK    3  A    between atoms: C_6  and  N_7
REMARK    4  A    between atoms: N_7  and  C_8
REMARK    5  A    between atoms: C_8  and  C_9
REMARK    6  A    between atoms: C_11  and  C_12
REMARK    7  A    between atoms: C_15  and  O_16
REMARK    8  A    between atoms: C_20  and  C_21
REMARK                            x       y       z     vdW  Elec       q    Type
REMARK                         _______ _______ _______ _____ _____    ______ ____
ROOT
ATOM      1  C   UNL     1       4.373   4.365  17.091  0.00  0.00    +0.000 A 
ATOM      2  C   UNL     1       3.868   5.639  17.406  0.00  0.00    +0.000 A 
ATOM      3  C   UNL     1       2.922   5.792  18.460  0.00  0.00    +0.000 A 
ATOM      4  C   UNL     1       2.682   7.190  18.986  0.00  0.00    +0.000 C 
ATOM      5  C   UNL     1       2.479   4.657  19.122  0.00  0.00    +0.000 A 
ATOM      6  C   UNL     1       3.299   3.552  19.071  0.00  0.00    +0.000 A 
ATOM      7  C   UNL     1       4.096   3.319  17.971  0.00  0.00    +0.000 A 
ATOM      8  C   UNL     1       3.267   2.708  20.266  0.00  0.00    +0.000 C 
ATOM      9  O   UNL     1       4.188   2.636  21.064  0.00  0.00    +0.000 OA
ATOM     10  O   UNL     1       2.086   2.097  20.415  0.00  0.00    +0.000 OA
ATOM     11  C   UNL     1       0.901   2.835  20.059  0.00  0.00    +0.000 C 
ATOM     12  C   UNL     1       0.142   1.952  19.074  0.00  0.00    +0.000 C 
ATOM     13  C   UNL     1       1.110   4.359  19.674  0.00  0.00    +0.000 C 
ENDROOT
BRANCH   7  14
ATOM     14  O   UNL     1       4.489   2.056  17.655  0.00  0.00    +0.000 OA
ATOM     15  H   UNL     1       3.778   1.445  17.931  0.00  0.00    +0.000 HD
ENDBRANCH   7  14
BRANCH   1  16
ATOM     16  C   UNL     1       5.233   4.146  15.870  0.00  0.00    +0.000 C 
BRANCH  16  17
ATOM     17  N   UNL     1       6.656   4.162  16.222  0.00  0.00    +0.000 N 
ATOM     18  H   UNL     1       7.224   3.893  15.414  0.00  0.00    +0.000 HD
BRANCH  17  22
ATOM     19  C   UNL     1       8.176   7.403  18.450  0.00  0.00    +0.000 A 
ATOM     20  C   UNL     1       7.679   7.607  17.164  0.00  0.00    +0.000 A 
ATOM     21  C   UNL     1       7.172   6.538  16.418  0.00  0.00    +0.000 A 
ATOM     22  C   UNL     1       7.194   5.240  16.928  0.00  0.00    +0.000 A 
ATOM     23  C   UNL     1       7.652   5.052  18.231  0.00  0.00    +0.000 A 
ATOM     24  C   UNL     1       8.152   6.120  18.987  0.00  0.00    +0.000 A 
BRANCH  19  26
ATOM     25  C   UNL     1       8.613   9.725  18.305  0.00  0.00    +0.000 C 
ATOM     26  O   UNL     1       8.683   8.520  19.053  0.00  0.00    +0.000 OA
ENDBRANCH  19  26
ENDBRANCH  17  22
ENDBRANCH  16  17
ENDBRANCH   1  16
TORSDOF 5
ENDMDL
MODEL 7
REMARK VINA RESULT:      -7.5      3.535      7.809
REMARK  Name = 
REMARK  8 active torsions:
REMARK  status: ('A' for Active; 'I' for Inactive)
REMARK    1  A    between atoms: C_1  and  O_2
REMARK    2  A    between atoms: O_2  and  C_3
REMARK    3  A    between atoms: C_6  and  N_7
REMARK    4  A    between atoms: N_7  and  C_8
REMARK    5  A    between atoms: C_8  and  C_9
REMARK    6  A    between atoms: C_11  and  C_12
REMARK    7  A    between atoms: C_15  and  O_16
REMARK    8  A    between atoms: C_20  and  C_21
REMARK                            x       y       z     vdW  Elec       q    Type
REMARK                         _______ _______ _______ _____ _____    ______ ____
ROOT
ATOM      1  C   UNL     1       4.936   4.964  19.169  0.00  0.00    +0.000 A 
ATOM      2  C   UNL     1       4.168   6.138  19.275  0.00  0.00    +0.000 A 
ATOM      3  C   UNL     1       2.800   6.064  19.666  0.00  0.00    +0.000 A 
ATOM      4  C   UNL     1       2.128   7.347  20.103  0.00  0.00    +0.000 C 
ATOM      5  C   UNL     1       2.242   4.814  19.884  0.00  0.00    +0.000 A 
ATOM      6  C   UNL     1       3.112   3.791  20.184  0.00  0.00    +0.000 A 
ATOM      7  C   UNL     1       4.390   3.782  19.667  0.00  0.00    +0.000 A 
ATOM      8  C   UNL     1       2.580   2.778  21.096  0.00  0.00    +0.000 C 
ATOM      9  O   UNL     1       2.948   2.654  22.253  0.00  0.00    +0.000 OA
ATOM     10  O   UNL     1       1.594   2.068  20.534  0.00  0.00    +0.000 OA
ATOM     11  C   UNL     1       0.680   2.764  19.665  0.00  0.00    +0.000 C 
ATOM     12  C   UNL     1       0.680   1.986  18.354  0.00  0.00    +0.000 C 
ATOM     13  C   UNL     1       0.843   4.339  19.588  0.00  0.00    +0.000 C 
ENDROOT
BRANCH   7  14
ATOM     14  O   UNL     1       5.063   2.612  19.502  0.00  0.00    +0.000 OA
ATOM     15  H   UNL     1       5.078   2.153  20.364  0.00  0.00    +0.000 HD
ENDBRANCH   7  14
BRANCH   1  16
ATOM     16  C   UNL     1       6.328   4.993  18.585  0.00  0.00    +0.000 C 
BRANCH  16  17
ATOM     17  N   UNL     1       6.377   5.838  17.388  0.00  0.00    +0.000 N 
ATOM     18  H   UNL     1       7.128   6.528  17.472  0.00  0.00    +0.000 HD
BRANCH  17  22
ATOM     19  C   UNL     1       6.170   3.973  13.612  0.00  0.00    +0.000 A 
ATOM     20  C   UNL     1       7.301   4.703  13.974  0.00  0.00    +0.000 A 
ATOM     21  C   UNL     1       7.379   5.323  15.224  0.00  0.00    +0.000 A 
ATOM     22  C   UNL     1       6.309   5.263  16.118  0.00  0.00    +0.000 A 
ATOM     23  C   UNL     1       5.200   4.494  15.766  0.00  0.00    +0.000 A 
ATOM     24  C   UNL     1       5.121   3.862  14.519  0.00  0.00    +0.000 A 
BRANCH  19  26
ATOM     25  C   UNL     1       4.945   3.134  11.769  0.00  0.00    +0.000 C 
ATOM     26  O   UNL     1       6.201   3.455  12.348  0.00  0.00    +0.000 OA
ENDBRANCH  19  26
ENDBRANCH  17  22
ENDBRANCH  16  17
ENDBRANCH   1  16
TORSDOF 5
ENDMDL
MODEL 8
REMARK VINA RESULT:      -7.5      3.240      8.721
REMARK  Name = 
REMARK  8 active torsions:
REMARK  status: ('A' for Active; 'I' for Inactive)
REMARK    1  A    between atoms: C_1  and  O_2
REMARK    2  A    between atoms: O_2  and  C_3
REMARK    3  A    between atoms: C_6  and  N_7
REMARK    4  A    between atoms: N_7  and  C_8
REMARK    5  A    between atoms: C_8  and  C_9
REMARK    6  A    between atoms: C_11  and  C_12
REMARK    7  A    between atoms: C_15  and  O_16
REMARK    8  A    between atoms: C_20  and  C_21
REMARK                            x       y       z     vdW  Elec       q    Type
REMARK                         _______ _______ _______ _____ _____    ______ ____
ROOT
ATOM      1  C   UNL     1       1.031   9.091  19.967  0.00  0.00    +0.000 A 
ATOM      2  C   UNL     1       0.683   9.227  21.323  0.00  0.00    +0.000 A 
ATOM      3  C   UNL     1      -0.162  10.295  21.740  0.00  0.00    +0.000 A 
ATOM      4  C   UNL     1      -0.785  10.198  23.115  0.00  0.00    +0.000 C 
ATOM      5  C   UNL     1      -0.581  11.215  20.792  0.00  0.00    +0.000 A 
ATOM      6  C   UNL     1      -0.575  10.798  19.480  0.00  0.00    +0.000 A 
ATOM      7  C   UNL     1       0.355   9.881  19.039  0.00  0.00    +0.000 A 
ATOM      8  C   UNL     1      -1.631  11.373  18.647  0.00  0.00    +0.000 C 
ATOM      9  O   UNL     1      -2.590  10.736  18.240  0.00  0.00    +0.000 OA
ATOM     10  O   UNL     1      -1.460  12.688  18.459  0.00  0.00    +0.000 OA
ATOM     11  C   UNL     1      -0.954  13.461  19.564  0.00  0.00    +0.000 C 
ATOM     12  C   UNL     1       0.262  14.207  19.025  0.00  0.00    +0.000 C 
ATOM     13  C   UNL     1      -0.799  12.698  20.945  0.00  0.00    +0.000 C 
ENDROOT
BRANCH   7  14
ATOM     14  O   UNL     1       0.725   9.844  17.731  0.00  0.00    +0.000 OA
ATOM     15  H   UNL     1       0.266   9.089  17.314  0.00  0.00    +0.000 HD
ENDBRANCH   7  14
BRANCH   1  16
ATOM     16  C   UNL     1       2.064   8.083  19.525  0.00  0.00    +0.000 C 
BRANCH  16  17
ATOM     17  N   UNL     1       2.216   7.017  20.520  0.00  0.00    +0.000 N 
ATOM     18  H   UNL     1       1.588   7.178  21.311  0.00  0.00    +0.000 HD
BRANCH  17  22
ATOM     19  C   UNL     1       2.325   2.941  19.444  0.00  0.00    +0.000 A 
ATOM     20  C   UNL     1       3.364   3.793  19.074  0.00  0.00    +0.000 A 
ATOM     21  C   UNL     1       3.337   5.145  19.428  0.00  0.00    +0.000 A 
ATOM     22  C   UNL     1       2.249   5.680  20.118  0.00  0.00    +0.000 A 
ATOM     23  C   UNL     1       1.235   4.812  20.522  0.00  0.00    +0.000 A 
ATOM     24  C   UNL     1       1.261   3.454  20.179  0.00  0.00    +0.000 A 
BRANCH  19  26
ATOM     25  C   UNL     1       3.688   1.319  18.389  0.00  0.00    +0.000 C 
ATOM     26  O   UNL     1       2.450   1.655  18.998  0.00  0.00    +0.000 OA
ENDBRANCH  19  26
ENDBRANCH  17  22
ENDBRANCH  16  17
ENDBRANCH   1  16
TORSDOF 5
ENDMDL
MODEL 9
REMARK VINA RESULT:      -7.3      1.830      8.535
REMARK  Name = 
REMARK  8 active torsions:
REMARK  status: ('A' for Active; 'I' for Inactive)
REMARK    1  A    between atoms: C_1  and  O_2
REMARK    2  A    between atoms: O_2  and  C_3
REMARK    3  A    between atoms: C_6  and  N_7
REMARK    4  A    between atoms: N_7  and  C_8
REMARK    5  A    between atoms: C_8  and  C_9
REMARK    6  A    between atoms: C_11  and  C_12
REMARK    7  A    between atoms: C_15  and  O_16
REMARK    8  A    between atoms: C_20  and  C_21
REMARK                            x       y       z     vdW  Elec       q    Type
REMARK                         _______ _______ _______ _____ _____    ______ ____
ROOT
ATOM      1  C   UNL     1       1.635   8.296  20.072  0.00  0.00    +0.000 A 
ATOM      2  C   UNL     1       1.130   8.434  21.377  0.00  0.00    +0.000 A 
ATOM      3  C   UNL     1       0.318   9.555  21.715  0.00  0.00    +0.000 A 
ATOM      4  C   UNL     1      -0.478   9.480  22.999  0.00  0.00    +0.000 C 
ATOM      5  C   UNL     1       0.087  10.519  20.747  0.00  0.00    +0.000 A 
ATOM      6  C   UNL     1       0.228  10.126  19.435  0.00  0.00    +0.000 A 
ATOM      7  C   UNL     1       1.138   9.150  19.089  0.00  0.00    +0.000 A 
ATOM      8  C   UNL     1      -0.672  10.791  18.493  0.00  0.00    +0.000 C 
ATOM      9  O   UNL     1      -1.615  10.234  17.954  0.00  0.00    +0.000 OA
ATOM     10  O   UNL     1      -0.386  12.092  18.362  0.00  0.00    +0.000 OA
ATOM     11  C   UNL     1       0.032  12.807  19.541  0.00  0.00    +0.000 C 
ATOM     12  C   UNL     1       1.356  13.470  19.177  0.00  0.00    +0.000 C 
ATOM     13  C   UNL     1      -0.043  12.011  20.911  0.00  0.00    +0.000 C 
ENDROOT
BRANCH   7  14
ATOM     14  O   UNL     1       1.666   9.108  17.836  0.00  0.00    +0.000 OA
ATOM     15  H   UNL     1       2.246   9.887  17.731  0.00  0.00    +0.000 HD
ENDBRANCH   7  14
BRANCH   1  16
ATOM     16  C   UNL     1       2.641   7.222  19.734  0.00  0.00    +0.000 C 
BRANCH  16  17
ATOM     17  N   UNL     1       2.208   6.448  18.566  0.00  0.00    +0.000 N 
ATOM     18  H   UNL     1       1.567   7.002  17.992  0.00  0.00    +0.000 HD
BRANCH  17  22
ATOM     19  C   UNL     1       5.059   4.234  16.388  0.00  0.00    +0.000 A 
ATOM     20  C   UNL     1       5.245   5.598  16.603  0.00  0.00    +0.000 A 
ATOM     21  C   UNL     1       4.306   6.340  17.325  0.00  0.00    +0.000 A 
ATOM     22  C   UNL     1       3.142   5.741  17.807  0.00  0.00    +0.000 A 
ATOM     23  C   UNL     1       2.985   4.367  17.625  0.00  0.00    +0.000 A 
ATOM     24  C   UNL     1       3.928   3.616  16.911  0.00  0.00    +0.000 A 
BRANCH  19  26
ATOM     25  C   UNL     1       6.146   4.090  14.290  0.00  0.00    +0.000 C 
ATOM     26  O   UNL     1       6.026   3.635  15.630  0.00  0.00    +0.000 OA
ENDBRANCH  19  26
ENDBRANCH  17  22
ENDBRANCH  16  17
ENDBRANCH   1  16
TORSDOF 5
ENDMDL
