MODEL 1
REMARK VINA RESULT:      -7.5      0.000      0.000
REMARK  Name = 
REMARK  3 active torsions:
REMARK  status: ('A' for Active; 'I' for Inactive)
REMARK    1  A    between atoms: N_3  and  C_4
REMARK    2  A    between atoms: C_4  and  C_5
REMARK    3  A    between atoms: C_16  and  C_17
REMARK                            x       y       z     vdW  Elec       q    Type
REMARK                         _______ _______ _______ _____ _____    ______ ____
ROOT
ATOM      1  O   UNL     1       0.667   9.469  21.741  0.00  0.00    +0.000 OA
ATOM      2  C   UNL     1       1.167   8.742  20.884  0.00  0.00    +0.000 C 
ATOM      3  N   UNL     1       1.531   9.187  19.653  0.00  0.00    +0.000 N 
ATOM      4  N   UNL     1       1.304   7.411  21.134  0.00  0.00    +0.000 N 
ATOM      5  C   UNL     1       1.845   6.496  20.283  0.00  0.00    +0.000 A 
ATOM      6  N   UNL     1       2.565   6.720  19.210  0.00  0.00    +0.000 NA
ATOM      7  C   UNL     1       2.908   5.507  18.630  0.00  0.00    +0.000 A 
ATOM      8  C   UNL     1       2.362   4.394  19.243  0.00  0.00    +0.000 A 
ATOM      9  S   UNL     1       1.517   4.869  20.664  0.00  0.00    +0.000 S 
ATOM     10  H   UNL     1       1.978   8.521  19.028  0.00  0.00    +0.000 HD
ATOM     11  H   UNL     1       0.890   7.082  21.993  0.00  0.00    +0.000 HD
ENDROOT
BRANCH   7  12
ATOM     12  C   UNL     1       3.822   5.456  17.499  0.00  0.00    +0.000 A 
ATOM     13  C   UNL     1       4.340   6.650  16.991  0.00  0.00    +0.000 A 
ATOM     14  C   UNL     1       5.239   6.588  15.941  0.00  0.00    +0.000 A 
ATOM     15  N   UNL     1       5.641   5.435  15.368  0.00  0.00    +0.000 NA
ATOM     16  C   UNL     1       5.116   4.295  15.864  0.00  0.00    +0.000 A 
ATOM     17  C   UNL     1       4.215   4.251  16.917  0.00  0.00    +0.000 A 
ENDBRANCH   7  12
BRANCH   3  18
ATOM     18  C   UNL     1       1.261  10.518  19.175  0.00  0.00    +0.000 C 
BRANCH  18  19
ATOM     19  C   UNL     1      -0.193  10.673  18.807  0.00  0.00    +0.000 A 
ATOM     20  C   UNL     1      -0.713  10.032  17.672  0.00  0.00    +0.000 A 
ATOM     21  C   UNL     1      -2.062  10.172  17.337  0.00  0.00    +0.000 A 
ATOM     22 CL   UNL     1      -2.686   9.363  15.952  0.00  0.00    +0.000 Cl
ATOM     23  C   UNL     1      -2.909  10.958  18.113  0.00  0.00    +0.000 A 
ATOM     24  C   UNL     1      -2.394  11.614  19.229  0.00  0.00    +0.000 A 
ATOM     25 CL   UNL     1      -3.429  12.593  20.194  0.00  0.00    +0.000 Cl
ATOM     26  C   UNL     1      -1.047  11.478  19.574  0.00  0.00    +0.000 A 
ENDBRANCH  18  19
ENDBRANCH   3  18
TORSDOF 3
ENDMDL
MODEL 2
REMARK VINA RESULT:      -7.5      0.072      2.075
REMARK  Name = 
REMARK  3 active torsions:
REMARK  status: ('A' for Active; 'I' for Inactive)
REMARK    1  A    between atoms: N_3  and  C_4
REMARK    2  A    between atoms: C_4  and  C_5
REMARK    3  A    between atoms: C_16  and  C_17
REMARK                            x       y       z     vdW  Elec       q    Type
REMARK                         _______ _______ _______ _____ _____    ______ ____
ROOT
ATOM      1  O   UNL     1       0.661   9.415  21.810  0.00  0.00    +0.000 OA
ATOM      2  C   UNL     1       1.171   8.709  20.940  0.00  0.00    +0.000 C 
ATOM      3  N   UNL     1       1.549   9.185  19.725  0.00  0.00    +0.000 N 
ATOM      4  N   UNL     1       1.304   7.372  21.158  0.00  0.00    +0.000 N 
ATOM      5  C   UNL     1       1.855   6.478  20.290  0.00  0.00    +0.000 A 
ATOM      6  N   UNL     1       2.587   6.729  19.232  0.00  0.00    +0.000 NA
ATOM      7  C   UNL     1       2.936   5.532  18.625  0.00  0.00    +0.000 A 
ATOM      8  C   UNL     1       2.382   4.404  19.203  0.00  0.00    +0.000 A 
ATOM      9  S   UNL     1       1.522   4.843  20.625  0.00  0.00    +0.000 S 
ATOM     10  H   UNL     1       2.003   8.535  19.089  0.00  0.00    +0.000 HD
ATOM     11  H   UNL     1       0.880   7.022  22.003  0.00  0.00    +0.000 HD
ENDROOT
BRANCH   7  12
ATOM     12  C   UNL     1       3.863   5.508  17.503  0.00  0.00    +0.000 A 
ATOM     13  C   UNL     1       4.232   4.277  16.954  0.00  0.00    +0.000 A 
ATOM     14  C   UNL     1       5.082   4.267  15.863  0.00  0.00    +0.000 A 
ATOM     15  N   UNL     1       5.589   5.384  15.300  0.00  0.00    +0.000 NA
ATOM     16  C   UNL     1       5.233   6.560  15.857  0.00  0.00    +0.000 A 
ATOM     17  C   UNL     1       4.381   6.676  16.945  0.00  0.00    +0.000 A 
ENDBRANCH   7  12
BRANCH   3  18
ATOM     18  C   UNL     1       1.286  10.529  19.278  0.00  0.00    +0.000 C 
BRANCH  18  19
ATOM     19  C   UNL     1      -0.162  10.691  18.888  0.00  0.00    +0.000 A 
ATOM     20  C   UNL     1      -1.022  11.491  19.657  0.00  0.00    +0.000 A 
ATOM     21  C   UNL     1      -2.361  11.644  19.289  0.00  0.00    +0.000 A 
ATOM     22 CL   UNL     1      -3.396  12.645  20.233  0.00  0.00    +0.000 Cl
ATOM     23  C   UNL     1      -2.868  10.998  18.166  0.00  0.00    +0.000 A 
ATOM     24  C   UNL     1      -2.025  10.186  17.411  0.00  0.00    +0.000 A 
ATOM     25 CL   UNL     1      -2.640   9.376  16.022  0.00  0.00    +0.000 Cl
ATOM     26  C   UNL     1      -0.683  10.028  17.768  0.00  0.00    +0.000 A 
ENDBRANCH  18  19
ENDBRANCH   3  18
TORSDOF 3
ENDMDL
MODEL 3
REMARK VINA RESULT:      -7.1      5.903      7.958
REMARK  Name = 
REMARK  3 active torsions:
REMARK  status: ('A' for Active; 'I' for Inactive)
REMARK    1  A    between atoms: N_3  and  C_4
REMARK    2  A    between atoms: C_4  and  C_5
REMARK    3  A    between atoms: C_16  and  C_17
REMARK                            x       y       z     vdW  Elec       q    Type
REMARK                         _______ _______ _______ _____ _____    ______ ____
ROOT
ATOM      1  O   UNL     1      -6.712  14.457  19.627  0.00  0.00    +0.000 OA
ATOM      2  C   UNL     1      -5.784  13.831  20.137  0.00  0.00    +0.000 C 
ATOM      3  N   UNL     1      -5.088  12.868  19.477  0.00  0.00    +0.000 N 
ATOM      4  N   UNL     1      -5.471  14.044  21.444  0.00  0.00    +0.000 N 
ATOM      5  C   UNL     1      -4.468  13.430  22.130  0.00  0.00    +0.000 A 
ATOM      6  N   UNL     1      -3.463  12.742  21.644  0.00  0.00    +0.000 NA
ATOM      7  C   UNL     1      -2.677  12.282  22.691  0.00  0.00    +0.000 A 
ATOM      8  C   UNL     1      -3.163  12.570  23.953  0.00  0.00    +0.000 A 
ATOM      9  S   UNL     1      -4.560  13.564  23.825  0.00  0.00    +0.000 S 
ATOM     10  H   UNL     1      -4.308  12.437  19.965  0.00  0.00    +0.000 HD
ATOM     11  H   UNL     1      -6.098  14.651  21.950  0.00  0.00    +0.000 HD
ENDROOT
BRANCH   7  12
ATOM     12  C   UNL     1      -1.416  11.603  22.432  0.00  0.00    +0.000 A 
ATOM     13  C   UNL     1      -0.529  12.151  21.501  0.00  0.00    +0.000 A 
ATOM     14  C   UNL     1       0.684  11.520  21.292  0.00  0.00    +0.000 A 
ATOM     15  N   UNL     1       1.060  10.393  21.930  0.00  0.00    +0.000 NA
ATOM     16  C   UNL     1       0.182   9.872  22.811  0.00  0.00    +0.000 A 
ATOM     17  C   UNL     1      -1.054  10.433  23.097  0.00  0.00    +0.000 A 
ENDBRANCH   7  12
BRANCH   3  18
ATOM     18  C   UNL     1      -5.435  12.393  18.163  0.00  0.00    +0.000 C 
BRANCH  18  19
ATOM     19  C   UNL     1      -4.313  11.576  17.572  0.00  0.00    +0.000 A 
ATOM     20  C   UNL     1      -3.242  11.152  18.374  0.00  0.00    +0.000 A 
ATOM     21  C   UNL     1      -2.208  10.390  17.825  0.00  0.00    +0.000 A 
ATOM     22 CL   UNL     1      -0.911   9.863  18.828  0.00  0.00    +0.000 Cl
ATOM     23  C   UNL     1      -2.214  10.050  16.476  0.00  0.00    +0.000 A 
ATOM     24  C   UNL     1      -3.264  10.486  15.670  0.00  0.00    +0.000 A 
ATOM     25 CL   UNL     1      -3.282  10.077  13.999  0.00  0.00    +0.000 Cl
ATOM     26  C   UNL     1      -4.305  11.246  16.209  0.00  0.00    +0.000 A 
ENDBRANCH  18  19
ENDBRANCH   3  18
TORSDOF 3
ENDMDL
MODEL 4
REMARK VINA RESULT:      -6.9      5.389      9.679
REMARK  Name = 
REMARK  3 active torsions:
REMARK  status: ('A' for Active; 'I' for Inactive)
REMARK    1  A    between atoms: N_3  and  C_4
REMARK    2  A    between atoms: C_4  and  C_5
REMARK    3  A    between atoms: C_16  and  C_17
REMARK                            x       y       z     vdW  Elec       q    Type
REMARK                         _______ _______ _______ _____ _____    ______ ____
ROOT
ATOM      1  O   UNL     1      -2.814  11.165  16.030  0.00  0.00    +0.000 OA
ATOM      2  C   UNL     1      -3.313  11.429  17.123  0.00  0.00    +0.000 C 
ATOM      3  N   UNL     1      -2.597  11.931  18.164  0.00  0.00    +0.000 N 
ATOM      4  N   UNL     1      -4.625  11.144  17.346  0.00  0.00    +0.000 N 
ATOM      5  C   UNL     1      -5.305  11.390  18.500  0.00  0.00    +0.000 A 
ATOM      6  N   UNL     1      -4.946  12.159  19.498  0.00  0.00    +0.000 NA
ATOM      7  C   UNL     1      -5.927  12.120  20.479  0.00  0.00    +0.000 A 
ATOM      8  C   UNL     1      -6.969  11.248  20.225  0.00  0.00    +0.000 A 
ATOM      9  S   UNL     1      -6.789  10.570  18.655  0.00  0.00    +0.000 S 
ATOM     10  H   UNL     1      -3.106  12.161  19.014  0.00  0.00    +0.000 HD
ATOM     11  H   UNL     1      -5.093  10.636  16.611  0.00  0.00    +0.000 HD
ENDROOT
BRANCH   7  12
ATOM     12  C   UNL     1      -5.851  12.991  21.643  0.00  0.00    +0.000 A 
ATOM     13  C   UNL     1      -4.647  13.643  21.924  0.00  0.00    +0.000 A 
ATOM     14  C   UNL     1      -4.597  14.500  23.010  0.00  0.00    +0.000 A 
ATOM     15  N   UNL     1      -5.645  14.737  23.824  0.00  0.00    +0.000 NA
ATOM     16  C   UNL     1      -6.792  14.084  23.544  0.00  0.00    +0.000 A 
ATOM     17  C   UNL     1      -6.946  13.213  22.476  0.00  0.00    +0.000 A 
ENDBRANCH   7  12
BRANCH   3  18
ATOM     18  C   UNL     1      -1.167  12.093  18.143  0.00  0.00    +0.000 C 
BRANCH  18  19
ATOM     19  C   UNL     1      -0.499  11.089  19.049  0.00  0.00    +0.000 A 
ATOM     20  C   UNL     1      -0.794  11.060  20.421  0.00  0.00    +0.000 A 
ATOM     21  C   UNL     1      -0.177  10.124  21.255  0.00  0.00    +0.000 A 
ATOM     22 CL   UNL     1      -0.566  10.090  22.932  0.00  0.00    +0.000 Cl
ATOM     23  C   UNL     1       0.747   9.218  20.747  0.00  0.00    +0.000 A 
ATOM     24  C   UNL     1       1.060   9.256  19.390  0.00  0.00    +0.000 A 
ATOM     25 CL   UNL     1       2.206   8.144  18.748  0.00  0.00    +0.000 Cl
ATOM     26  C   UNL     1       0.448  10.185  18.545  0.00  0.00    +0.000 A 
ENDBRANCH  18  19
ENDBRANCH   3  18
TORSDOF 3
ENDMDL
MODEL 5
REMARK VINA RESULT:      -6.8      5.790      9.844
REMARK  Name = 
REMARK  3 active torsions:
REMARK  status: ('A' for Active; 'I' for Inactive)
REMARK    1  A    between atoms: N_3  and  C_4
REMARK    2  A    between atoms: C_4  and  C_5
REMARK    3  A    between atoms: C_16  and  C_17
REMARK                            x       y       z     vdW  Elec       q    Type
REMARK                         _______ _______ _______ _____ _____    ______ ____
ROOT
ATOM      1  O   UNL     1      -3.421  11.371  15.579  0.00  0.00    +0.000 OA
ATOM      2  C   UNL     1      -4.040  11.494  16.635  0.00  0.00    +0.000 C 
ATOM      3  N   UNL     1      -3.771  10.756  17.744  0.00  0.00    +0.000 N 
ATOM      4  N   UNL     1      -5.095  12.352  16.695  0.00  0.00    +0.000 N 
ATOM      5  C   UNL     1      -5.860  12.592  17.796  0.00  0.00    +0.000 A 
ATOM      6  N   UNL     1      -5.599  12.280  19.042  0.00  0.00    +0.000 NA
ATOM      7  C   UNL     1      -6.648  12.700  19.847  0.00  0.00    +0.000 A 
ATOM      8  C   UNL     1      -7.720  13.248  19.166  0.00  0.00    +0.000 A 
ATOM      9  S   UNL     1      -7.342  13.373  17.493  0.00  0.00    +0.000 S 
ATOM     10  H   UNL     1      -4.305  10.961  18.584  0.00  0.00    +0.000 HD
ATOM     11  H   UNL     1      -5.367  12.773  15.820  0.00  0.00    +0.000 HD
ENDROOT
BRANCH   7  12
ATOM     12  C   UNL     1      -6.560  12.603  21.296  0.00  0.00    +0.000 A 
ATOM     13  C   UNL     1      -5.350  12.912  21.924  0.00  0.00    +0.000 A 
ATOM     14  C   UNL     1      -5.288  12.856  23.305  0.00  0.00    +0.000 A 
ATOM     15  N   UNL     1      -6.330  12.508  24.087  0.00  0.00    +0.000 NA
ATOM     16  C   UNL     1      -7.484  12.198  23.459  0.00  0.00    +0.000 A 
ATOM     17  C   UNL     1      -7.650  12.232  22.083  0.00  0.00    +0.000 A 
ENDBRANCH   7  12
BRANCH   3  18
ATOM     18  C   UNL     1      -2.822   9.673  17.769  0.00  0.00    +0.000 C 
BRANCH  18  19
ATOM     19  C   UNL     1      -1.494  10.134  18.316  0.00  0.00    +0.000 A 
ATOM     20  C   UNL     1      -0.299   9.540  17.882  0.00  0.00    +0.000 A 
ATOM     21  C   UNL     1       0.929   9.974  18.386  0.00  0.00    +0.000 A 
ATOM     22 CL   UNL     1       2.386   9.246  17.828  0.00  0.00    +0.000 Cl
ATOM     23  C   UNL     1       0.989  10.990  19.335  0.00  0.00    +0.000 A 
ATOM     24  C   UNL     1      -0.195  11.569  19.786  0.00  0.00    +0.000 A 
ATOM     25 CL   UNL     1      -0.136  12.823  20.963  0.00  0.00    +0.000 Cl
ATOM     26  C   UNL     1      -1.429  11.145  19.286  0.00  0.00    +0.000 A 
ENDBRANCH  18  19
ENDBRANCH   3  18
TORSDOF 3
ENDMDL
MODEL 6
REMARK VINA RESULT:      -6.8      2.088      3.344
REMARK  Name = 
REMARK  3 active torsions:
REMARK  status: ('A' for Active; 'I' for Inactive)
REMARK    1  A    between atoms: N_3  and  C_4
REMARK    2  A    between atoms: C_4  and  C_5
REMARK    3  A    between atoms: C_16  and  C_17
REMARK                            x       y       z     vdW  Elec       q    Type
REMARK                         _______ _______ _______ _____ _____    ______ ____
ROOT
ATOM      1  O   UNL     1       2.095  11.073  17.928  0.00  0.00    +0.000 OA
ATOM      2  C   UNL     1       2.142   9.878  18.218  0.00  0.00    +0.000 C 
ATOM      3  N   UNL     1       1.429   9.334  19.240  0.00  0.00    +0.000 N 
ATOM      4  N   UNL     1       2.996   9.059  17.546  0.00  0.00    +0.000 N 
ATOM      5  C   UNL     1       3.145   7.722  17.757  0.00  0.00    +0.000 A 
ATOM      6  N   UNL     1       2.351   6.919  18.422  0.00  0.00    +0.000 NA
ATOM      7  C   UNL     1       2.879   5.636  18.400  0.00  0.00    +0.000 A 
ATOM      8  C   UNL     1       4.111   5.524  17.782  0.00  0.00    +0.000 A 
ATOM      9  S   UNL     1       4.550   7.034  17.087  0.00  0.00    +0.000 S 
ATOM     10  H   UNL     1       1.498   8.329  19.374  0.00  0.00    +0.000 HD
ATOM     11  H   UNL     1       3.620   9.516  16.898  0.00  0.00    +0.000 HD
ENDROOT
BRANCH   7  12
ATOM     12  C   UNL     1       2.130   4.514  18.947  0.00  0.00    +0.000 A 
ATOM     13  C   UNL     1       1.939   4.435  20.329  0.00  0.00    +0.000 A 
ATOM     14  C   UNL     1       1.193   3.386  20.836  0.00  0.00    +0.000 A 
ATOM     15  N   UNL     1       0.642   2.422  20.070  0.00  0.00    +0.000 NA
ATOM     16  C   UNL     1       0.853   2.509  18.740  0.00  0.00    +0.000 A 
ATOM     17  C   UNL     1       1.579   3.524  18.135  0.00  0.00    +0.000 A 
ENDBRANCH   7  12
BRANCH   3  18
ATOM     18  C   UNL     1       0.642  10.109  20.163  0.00  0.00    +0.000 C 
BRANCH  18  19
ATOM     19  C   UNL     1      -0.641  10.572  19.519  0.00  0.00    +0.000 A 
ATOM     20  C   UNL     1      -1.065  10.022  18.299  0.00  0.00    +0.000 A 
ATOM     21  C   UNL     1      -2.257  10.449  17.708  0.00  0.00    +0.000 A 
ATOM     22 CL   UNL     1      -2.771   9.749  16.222  0.00  0.00    +0.000 Cl
ATOM     23  C   UNL     1      -3.035  11.433  18.309  0.00  0.00    +0.000 A 
ATOM     24  C   UNL     1      -2.609  11.998  19.509  0.00  0.00    +0.000 A 
ATOM     25 CL   UNL     1      -3.559  13.221  20.261  0.00  0.00    +0.000 Cl
ATOM     26  C   UNL     1      -1.420  11.577  20.110  0.00  0.00    +0.000 A 
ENDBRANCH  18  19
ENDBRANCH   3  18
TORSDOF 3
ENDMDL
MODEL 7
REMARK VINA RESULT:      -6.7      5.459      9.547
REMARK  Name = 
REMARK  3 active torsions:
REMARK  status: ('A' for Active; 'I' for Inactive)
REMARK    1  A    between atoms: N_3  and  C_4
REMARK    2  A    between atoms: C_4  and  C_5
REMARK    3  A    between atoms: C_16  and  C_17
REMARK                            x       y       z     vdW  Elec       q    Type
REMARK                         _______ _______ _______ _____ _____    ______ ____
ROOT
ATOM      1  O   UNL     1      -3.312  10.985  15.965  0.00  0.00    +0.000 OA
ATOM      2  C   UNL     1      -3.686  11.311  17.091  0.00  0.00    +0.000 C 
ATOM      3  N   UNL     1      -2.856  11.850  18.023  0.00  0.00    +0.000 N 
ATOM      4  N   UNL     1      -4.970  11.062  17.467  0.00  0.00    +0.000 N 
ATOM      5  C   UNL     1      -5.519  11.376  18.674  0.00  0.00    +0.000 A 
ATOM      6  N   UNL     1      -5.043  12.187  19.588  0.00  0.00    +0.000 NA
ATOM      7  C   UNL     1      -5.912  12.214  20.669  0.00  0.00    +0.000 A 
ATOM      8  C   UNL     1      -6.988  11.349  20.572  0.00  0.00    +0.000 A 
ATOM      9  S   UNL     1      -6.988  10.593  19.028  0.00  0.00    +0.000 S 
ATOM     10  H   UNL     1      -3.266  12.130  18.909  0.00  0.00    +0.000 HD
ATOM     11  H   UNL     1      -5.522  10.528  16.814  0.00  0.00    +0.000 HD
ENDROOT
BRANCH   7  12
ATOM     12  C   UNL     1      -5.699  13.138  21.773  0.00  0.00    +0.000 A 
ATOM     13  C   UNL     1      -6.572  14.219  21.930  0.00  0.00    +0.000 A 
ATOM     14  C   UNL     1      -6.385  15.069  23.005  0.00  0.00    +0.000 A 
ATOM     15  N   UNL     1      -5.397  14.922  23.912  0.00  0.00    +0.000 NA
ATOM     16  C   UNL     1      -4.557  13.882  23.731  0.00  0.00    +0.000 A 
ATOM     17  C   UNL     1      -4.665  12.970  22.692  0.00  0.00    +0.000 A 
ENDBRANCH   7  12
BRANCH   3  18
ATOM     18  C   UNL     1      -1.434  11.983  17.840  0.00  0.00    +0.000 C 
BRANCH  18  19
ATOM     19  C   UNL     1      -0.682  11.092  18.797  0.00  0.00    +0.000 A 
ATOM     20  C   UNL     1       0.281  10.188  18.322  0.00  0.00    +0.000 A 
ATOM     21  C   UNL     1       0.979   9.369  19.213  0.00  0.00    +0.000 A 
ATOM     22 CL   UNL     1       2.171   8.280  18.615  0.00  0.00    +0.000 Cl
ATOM     23  C   UNL     1       0.724   9.424  20.579  0.00  0.00    +0.000 A 
ATOM     24  C   UNL     1      -0.246  10.304  21.054  0.00  0.00    +0.000 A 
ATOM     25 CL   UNL     1      -0.576  10.379  22.742  0.00  0.00    +0.000 Cl
ATOM     26  C   UNL     1      -0.948  11.130  20.173  0.00  0.00    +0.000 A 
ENDBRANCH  18  19
ENDBRANCH   3  18
TORSDOF 3
ENDMDL
MODEL 8
REMARK VINA RESULT:      -6.7      5.332      8.680
REMARK  Name = 
REMARK  3 active torsions:
REMARK  status: ('A' for Active; 'I' for Inactive)
REMARK    1  A    between atoms: N_3  and  C_4
REMARK    2  A    between atoms: C_4  and  C_5
REMARK    3  A    between atoms: C_16  and  C_17
REMARK                            x       y       z     vdW  Elec       q    Type
REMARK                         _______ _______ _______ _____ _____    ______ ____
ROOT
ATOM      1  O   UNL     1       1.327  10.874  20.132  0.00  0.00    +0.000 OA
ATOM      2  C   UNL     1       0.236  11.308  20.500  0.00  0.00    +0.000 C 
ATOM      3  N   UNL     1      -0.946  10.885  19.979  0.00  0.00    +0.000 N 
ATOM      4  N   UNL     1       0.191  12.311  21.419  0.00  0.00    +0.000 N 
ATOM      5  C   UNL     1      -0.941  12.878  21.920  0.00  0.00    +0.000 A 
ATOM      6  N   UNL     1      -2.170  12.427  21.844  0.00  0.00    +0.000 NA
ATOM      7  C   UNL     1      -3.022  13.318  22.480  0.00  0.00    +0.000 A 
ATOM      8  C   UNL     1      -2.415  14.468  22.951  0.00  0.00    +0.000 A 
ATOM      9  S   UNL     1      -0.715  14.364  22.719  0.00  0.00    +0.000 S 
ATOM     10  H   UNL     1      -1.798  11.269  20.380  0.00  0.00    +0.000 HD
ATOM     11  H   UNL     1       1.082  12.709  21.677  0.00  0.00    +0.000 HD
ENDROOT
BRANCH   7  12
ATOM     12  C   UNL     1      -4.430  12.997  22.665  0.00  0.00    +0.000 A 
ATOM     13  C   UNL     1      -5.203  12.670  21.548  0.00  0.00    +0.000 A 
ATOM     14  C   UNL     1      -6.530  12.328  21.739  0.00  0.00    +0.000 A 
ATOM     15  N   UNL     1      -7.128  12.301  22.948  0.00  0.00    +0.000 NA
ATOM     16  C   UNL     1      -6.368  12.636  24.010  0.00  0.00    +0.000 A 
ATOM     17  C   UNL     1      -5.028  12.985  23.924  0.00  0.00    +0.000 A 
ENDBRANCH   7  12
BRANCH   3  18
ATOM     18  C   UNL     1      -1.046   9.981  18.864  0.00  0.00    +0.000 C 
BRANCH  18  19
ATOM     19  C   UNL     1      -2.147  10.406  17.924  0.00  0.00    +0.000 A 
ATOM     20  C   UNL     1      -2.103  10.048  16.567  0.00  0.00    +0.000 A 
ATOM     21  C   UNL     1      -3.128  10.439  15.701  0.00  0.00    +0.000 A 
ATOM     22 CL   UNL     1      -3.067   9.975  14.045  0.00  0.00    +0.000 Cl
ATOM     23  C   UNL     1      -4.199  11.198  16.163  0.00  0.00    +0.000 A 
ATOM     24  C   UNL     1      -4.237  11.573  17.504  0.00  0.00    +0.000 A 
ATOM     25 CL   UNL     1      -5.552  12.517  18.088  0.00  0.00    +0.000 Cl
ATOM     26  C   UNL     1      -3.219  11.186  18.380  0.00  0.00    +0.000 A 
ENDBRANCH  18  19
ENDBRANCH   3  18
TORSDOF 3
ENDMDL
MODEL 9
REMARK VINA RESULT:      -6.7      6.095      9.478
REMARK  Name = 
REMARK  3 active torsions:
REMARK  status: ('A' for Active; 'I' for Inactive)
REMARK    1  A    between atoms: N_3  and  C_4
REMARK    2  A    between atoms: C_4  and  C_5
REMARK    3  A    between atoms: C_16  and  C_17
REMARK                            x       y       z     vdW  Elec       q    Type
REMARK                         _______ _______ _______ _____ _____    ______ ____
ROOT
ATOM      1  O   UNL     1      -2.707  11.116  15.549  0.00  0.00    +0.000 OA
ATOM      2  C   UNL     1      -3.270  11.278  16.630  0.00  0.00    +0.000 C 
ATOM      3  N   UNL     1      -2.762  10.827  17.807  0.00  0.00    +0.000 N 
ATOM      4  N   UNL     1      -4.496  11.868  16.665  0.00  0.00    +0.000 N 
ATOM      5  C   UNL     1      -5.226  12.117  17.787  0.00  0.00    +0.000 A 
ATOM      6  N   UNL     1      -4.820  12.096  19.033  0.00  0.00    +0.000 NA
ATOM      7  C   UNL     1      -5.888  12.399  19.866  0.00  0.00    +0.000 A 
ATOM      8  C   UNL     1      -7.101  12.560  19.221  0.00  0.00    +0.000 A 
ATOM      9  S   UNL     1      -6.869  12.472  17.519  0.00  0.00    +0.000 S 
ATOM     10  H   UNL     1      -3.277  11.048  18.655  0.00  0.00    +0.000 HD
ATOM     11  H   UNL     1      -4.916  12.057  15.767  0.00  0.00    +0.000 HD
ENDROOT
BRANCH   7  12
ATOM     12  C   UNL     1      -5.688  12.581  21.296  0.00  0.00    +0.000 A 
ATOM     13  C   UNL     1      -4.387  12.715  21.787  0.00  0.00    +0.000 A 
ATOM     14  C   UNL     1      -4.209  12.927  23.143  0.00  0.00    +0.000 A 
ATOM     15  N   UNL     1      -5.226  13.002  24.027  0.00  0.00    +0.000 NA
ATOM     16  C   UNL     1      -6.473  12.854  23.533  0.00  0.00    +0.000 A 
ATOM     17  C   UNL     1      -6.754  12.646  22.191  0.00  0.00    +0.000 A 
ENDBRANCH   7  12
BRANCH   3  18
ATOM     18  C   UNL     1      -1.579  10.011  17.903  0.00  0.00    +0.000 C 
BRANCH  18  19
ATOM     19  C   UNL     1      -0.650  10.533  18.970  0.00  0.00    +0.000 A 
ATOM     20  C   UNL     1      -0.554   9.886  20.211  0.00  0.00    +0.000 A 
ATOM     21  C   UNL     1       0.312  10.369  21.195  0.00  0.00    +0.000 A 
ATOM     22 CL   UNL     1       0.430   9.551  22.705  0.00  0.00    +0.000 Cl
ATOM     23  C   UNL     1       1.083  11.505  20.967  0.00  0.00    +0.000 A 
ATOM     24  C   UNL     1       0.976  12.165  19.745  0.00  0.00    +0.000 A 
ATOM     25 CL   UNL     1       1.919  13.574  19.452  0.00  0.00    +0.000 Cl
ATOM     26  C   UNL     1       0.115  11.689  18.753  0.00  0.00    +0.000 A 
ENDBRANCH  18  19
ENDBRANCH   3  18
TORSDOF 3
ENDMDL
