MODEL 1
REMARK VINA RESULT:      -8.1      0.000      0.000
REMARK  Name = 
REMARK  5 active torsions:
REMARK  status: ('A' for Active; 'I' for Inactive)
REMARK    1  A    between atoms: C_1  and  C_2
REMARK    2  A    between atoms: C_3  and  C_4
REMARK    3  A    between atoms: C_4  and  C_5
REMARK    4  A    between atoms: N_13  and  C_14
REMARK    5  A    between atoms: C_14  and  C_15
REMARK                            x       y       z     vdW  Elec       q    Type
REMARK                         _______ _______ _______ _____ _____    ______ ____
ROOT
ATOM      1  C   UNL     1       5.038   7.453  17.496  0.00  0.00    +0.000 C 
ATOM      2  C   UNL     1       4.399   6.244  18.097  0.00  0.00    +0.000 A 
ATOM      3  C   UNL     1       4.986   5.043  18.491  0.00  0.00    +0.000 A 
ATOM      4  C   UNL     1       3.943   4.238  19.028  0.00  0.00    +0.000 A 
ATOM      5  C   UNL     1       2.753   4.911  18.858  0.00  0.00    +0.000 A 
ATOM      6  N   UNL     1       3.025   6.139  18.292  0.00  0.00    +0.000 N 
ATOM      7  C   UNL     1       1.394   4.364  19.170  0.00  0.00    +0.000 C 
ATOM      8  C   UNL     1       1.511   3.070  20.005  0.00  0.00    +0.000 C 
ATOM      9  C   UNL     1       2.649   2.157  19.543  0.00  0.00    +0.000 C 
ATOM     10  C   UNL     1       3.974   2.898  19.603  0.00  0.00    +0.000 C 
ATOM     11  O   UNL     1       4.989   2.392  20.067  0.00  0.00    +0.000 OA
ENDROOT
BRANCH   3  12
ATOM     12  C   UNL     1       6.419   4.607  18.345  0.00  0.00    +0.000 C 
BRANCH  12  13
ATOM     13  C   UNL     1       7.040   5.179  17.068  0.00  0.00    +0.000 C 
ATOM     14  O   UNL     1       7.880   6.084  17.099  0.00  0.00    +0.000 OA
ATOM     15  N   UNL     1       6.629   4.638  15.887  0.00  0.00    +0.000 N 
ATOM     16  C   UNL     1       7.026   4.967  14.538  0.00  0.00    +0.000 C 
ATOM     17  C   UNL     1       5.911   4.022  14.076  0.00  0.00    +0.000 C 
ATOM     18  C   UNL     1       5.839   3.487  15.511  0.00  0.00    +0.000 C 
ENDBRANCH  12  13
ENDBRANCH   3  12
BRANCH   6  19
ATOM     19  C   UNL     1       2.029   7.173  17.996  0.00  0.00    +0.000 C 
BRANCH  19  20
ATOM     20  C   UNL     1       1.651   8.066  19.152  0.00  0.00    +0.000 A 
ATOM     21  C   UNL     1       1.659   7.678  20.499  0.00  0.00    +0.000 A 
ATOM     22  C   UNL     1       1.316   8.589  21.505  0.00  0.00    +0.000 A 
ATOM     23  C   UNL     1       0.947   9.896  21.183  0.00  0.00    +0.000 A 
ATOM     24  C   UNL     1       0.906  10.289  19.850  0.00  0.00    +0.000 A 
ATOM     25  C   UNL     1       1.252   9.376  18.854  0.00  0.00    +0.000 A 
ATOM     26  F   UNL     1       1.203   9.777  17.575  0.00  0.00    +0.000 F 
ENDBRANCH  19  20
ENDBRANCH   6  19
TORSDOF 4
ENDMDL
MODEL 2
REMARK VINA RESULT:      -7.9      1.704      2.122
REMARK  Name = 
REMARK  5 active torsions:
REMARK  status: ('A' for Active; 'I' for Inactive)
REMARK    1  A    between atoms: C_1  and  C_2
REMARK    2  A    between atoms: C_3  and  C_4
REMARK    3  A    between atoms: C_4  and  C_5
REMARK    4  A    between atoms: N_13  and  C_14
REMARK    5  A    between atoms: C_14  and  C_15
REMARK                            x       y       z     vdW  Elec       q    Type
REMARK                         _______ _______ _______ _____ _____    ______ ____
ROOT
ATOM      1  C   UNL     1       4.449   7.114  17.457  0.00  0.00    +0.000 C 
ATOM      2  C   UNL     1       3.628   6.006  18.031  0.00  0.00    +0.000 A 
ATOM      3  C   UNL     1       3.445   4.709  17.554  0.00  0.00    +0.000 A 
ATOM      4  C   UNL     1       2.597   4.050  18.487  0.00  0.00    +0.000 A 
ATOM      5  C   UNL     1       2.208   4.970  19.436  0.00  0.00    +0.000 A 
ATOM      6  N   UNL     1       2.837   6.167  19.164  0.00  0.00    +0.000 N 
ATOM      7  C   UNL     1       1.213   4.722  20.528  0.00  0.00    +0.000 C 
ATOM      8  C   UNL     1       0.915   3.212  20.655  0.00  0.00    +0.000 C 
ATOM      9  C   UNL     1       0.804   2.505  19.303  0.00  0.00    +0.000 C 
ATOM     10  C   UNL     1       2.086   2.684  18.509  0.00  0.00    +0.000 C 
ATOM     11  O   UNL     1       2.623   1.758  17.912  0.00  0.00    +0.000 OA
ENDROOT
BRANCH   3  12
ATOM     12  C   UNL     1       3.966   4.095  16.282  0.00  0.00    +0.000 C 
BRANCH  12  13
ATOM     13  C   UNL     1       5.487   4.233  16.189  0.00  0.00    +0.000 C 
ATOM     14  O   UNL     1       6.205   4.246  17.194  0.00  0.00    +0.000 OA
ATOM     15  N   UNL     1       6.021   4.333  14.940  0.00  0.00    +0.000 N 
ATOM     16  C   UNL     1       7.401   4.475  14.539  0.00  0.00    +0.000 C 
ATOM     17  C   UNL     1       6.872   4.696  13.118  0.00  0.00    +0.000 C 
ATOM     18  C   UNL     1       5.514   4.168  13.596  0.00  0.00    +0.000 C 
ENDBRANCH  12  13
ENDBRANCH   3  12
BRANCH   6  19
ATOM     19  C   UNL     1       2.720   7.385  19.972  0.00  0.00    +0.000 C 
BRANCH  19  20
ATOM     20  C   UNL     1       1.657   8.361  19.530  0.00  0.00    +0.000 A 
ATOM     21  C   UNL     1       1.505   8.841  18.222  0.00  0.00    +0.000 A 
ATOM     22  C   UNL     1       0.469   9.727  17.904  0.00  0.00    +0.000 A 
ATOM     23  C   UNL     1      -0.422  10.159  18.887  0.00  0.00    +0.000 A 
ATOM     24  C   UNL     1      -0.268   9.715  20.197  0.00  0.00    +0.000 A 
ATOM     25  C   UNL     1       0.765   8.830  20.504  0.00  0.00    +0.000 A 
ATOM     26  F   UNL     1       0.895   8.417  21.773  0.00  0.00    +0.000 F 
ENDBRANCH  19  20
ENDBRANCH   6  19
TORSDOF 4
ENDMDL
MODEL 3
REMARK VINA RESULT:      -7.8      1.580      2.089
REMARK  Name = 
REMARK  5 active torsions:
REMARK  status: ('A' for Active; 'I' for Inactive)
REMARK    1  A    between atoms: C_1  and  C_2
REMARK    2  A    between atoms: C_3  and  C_4
REMARK    3  A    between atoms: C_4  and  C_5
REMARK    4  A    between atoms: N_13  and  C_14
REMARK    5  A    between atoms: C_14  and  C_15
REMARK                            x       y       z     vdW  Elec       q    Type
REMARK                         _______ _______ _______ _____ _____    ______ ____
ROOT
ATOM      1  C   UNL     1       4.294   7.456  17.359  0.00  0.00    +0.000 C 
ATOM      2  C   UNL     1       3.835   6.261  18.128  0.00  0.00    +0.000 A 
ATOM      3  C   UNL     1       4.547   5.115  18.479  0.00  0.00    +0.000 A 
ATOM      4  C   UNL     1       3.658   4.300  19.234  0.00  0.00    +0.000 A 
ATOM      5  C   UNL     1       2.421   4.907  19.239  0.00  0.00    +0.000 A 
ATOM      6  N   UNL     1       2.524   6.107  18.567  0.00  0.00    +0.000 N 
ATOM      7  C   UNL     1       1.170   4.321  19.815  0.00  0.00    +0.000 C 
ATOM      8  C   UNL     1       1.500   3.089  20.686  0.00  0.00    +0.000 C 
ATOM      9  C   UNL     1       2.590   2.201  20.082  0.00  0.00    +0.000 C 
ATOM     10  C   UNL     1       3.862   3.002  19.867  0.00  0.00    +0.000 C 
ATOM     11  O   UNL     1       4.968   2.572  20.173  0.00  0.00    +0.000 OA
ENDROOT
BRANCH   3  12
ATOM     12  C   UNL     1       5.956   4.735  18.108  0.00  0.00    +0.000 C 
BRANCH  12  13
ATOM     13  C   UNL     1       6.973   5.529  18.929  0.00  0.00    +0.000 C 
ATOM     14  O   UNL     1       7.324   5.171  20.059  0.00  0.00    +0.000 OA
ATOM     15  N   UNL     1       7.486   6.654  18.356  0.00  0.00    +0.000 N 
ATOM     16  C   UNL     1       8.446   7.596  18.879  0.00  0.00    +0.000 C 
ATOM     17  C   UNL     1       8.139   8.456  17.648  0.00  0.00    +0.000 C 
ATOM     18  C   UNL     1       7.443   7.236  17.033  0.00  0.00    +0.000 C 
ENDBRANCH  12  13
ENDBRANCH   3  12
BRANCH   6  19
ATOM     19  C   UNL     1       1.436   7.074  18.394  0.00  0.00    +0.000 C 
BRANCH  19  20
ATOM     20  C   UNL     1       1.300   8.108  19.486  0.00  0.00    +0.000 A 
ATOM     21  C   UNL     1       1.391   7.838  20.858  0.00  0.00    +0.000 A 
ATOM     22  C   UNL     1       1.278   8.872  21.796  0.00  0.00    +0.000 A 
ATOM     23  C   UNL     1       1.059  10.186  21.381  0.00  0.00    +0.000 A 
ATOM     24  C   UNL     1       0.938  10.466  20.024  0.00  0.00    +0.000 A 
ATOM     25  C   UNL     1       1.055   9.432  19.096  0.00  0.00    +0.000 A 
ATOM     26  F   UNL     1       0.934   9.726  17.793  0.00  0.00    +0.000 F 
ENDBRANCH  19  20
ENDBRANCH   6  19
TORSDOF 4
ENDMDL
MODEL 4
REMARK VINA RESULT:      -7.8      1.679      4.319
REMARK  Name = 
REMARK  5 active torsions:
REMARK  status: ('A' for Active; 'I' for Inactive)
REMARK    1  A    between atoms: C_1  and  C_2
REMARK    2  A    between atoms: C_3  and  C_4
REMARK    3  A    between atoms: C_4  and  C_5
REMARK    4  A    between atoms: N_13  and  C_14
REMARK    5  A    between atoms: C_14  and  C_15
REMARK                            x       y       z     vdW  Elec       q    Type
REMARK                         _______ _______ _______ _____ _____    ______ ____
ROOT
ATOM      1  C   UNL     1       1.576   5.008  17.654  0.00  0.00    +0.000 C 
ATOM      2  C   UNL     1       3.041   5.298  17.699  0.00  0.00    +0.000 A 
ATOM      3  C   UNL     1       4.108   4.416  17.864  0.00  0.00    +0.000 A 
ATOM      4  C   UNL     1       5.294   5.199  17.801  0.00  0.00    +0.000 A 
ATOM      5  C   UNL     1       4.929   6.524  17.704  0.00  0.00    +0.000 A 
ATOM      6  N   UNL     1       3.552   6.591  17.638  0.00  0.00    +0.000 N 
ATOM      7  C   UNL     1       5.869   7.688  17.739  0.00  0.00    +0.000 C 
ATOM      8  C   UNL     1       7.328   7.210  17.577  0.00  0.00    +0.000 C 
ATOM      9  C   UNL     1       7.628   5.922  18.347  0.00  0.00    +0.000 C 
ATOM     10  C   UNL     1       6.697   4.811  17.895  0.00  0.00    +0.000 C 
ATOM     11  O   UNL     1       7.095   3.675  17.663  0.00  0.00    +0.000 OA
ENDROOT
BRANCH   3  12
ATOM     12  C   UNL     1       4.068   2.934  18.123  0.00  0.00    +0.000 C 
BRANCH  12  13
ATOM     13  C   UNL     1       4.130   2.637  19.622  0.00  0.00    +0.000 C 
ATOM     14  O   UNL     1       5.189   2.346  20.188  0.00  0.00    +0.000 OA
ATOM     15  N   UNL     1       2.959   2.713  20.315  0.00  0.00    +0.000 N 
ATOM     16  C   UNL     1       2.705   2.486  21.718  0.00  0.00    +0.000 C 
ATOM     17  C   UNL     1       1.216   2.605  21.375  0.00  0.00    +0.000 C 
ATOM     18  C   UNL     1       1.627   3.191  20.019  0.00  0.00    +0.000 C 
ENDBRANCH  12  13
ENDBRANCH   3  12
BRANCH   6  19
ATOM     19  C   UNL     1       2.773   7.822  17.481  0.00  0.00    +0.000 C 
BRANCH  19  20
ATOM     20  C   UNL     1       2.049   8.298  18.717  0.00  0.00    +0.000 A 
ATOM     21  C   UNL     1       2.053   7.636  19.953  0.00  0.00    +0.000 A 
ATOM     22  C   UNL     1       1.370   8.172  21.051  0.00  0.00    +0.000 A 
ATOM     23  C   UNL     1       0.662   9.369  20.931  0.00  0.00    +0.000 A 
ATOM     24  C   UNL     1       0.624  10.024  19.705  0.00  0.00    +0.000 A 
ATOM     25  C   UNL     1       1.309   9.485  18.617  0.00  0.00    +0.000 A 
ATOM     26  F   UNL     1       1.257  10.134  17.444  0.00  0.00    +0.000 F 
ENDBRANCH  19  20
ENDBRANCH   6  19
TORSDOF 4
ENDMDL
MODEL 5
REMARK VINA RESULT:      -7.7      7.730     10.911
REMARK  Name = 
REMARK  5 active torsions:
REMARK  status: ('A' for Active; 'I' for Inactive)
REMARK    1  A    between atoms: C_1  and  C_2
REMARK    2  A    between atoms: C_3  and  C_4
REMARK    3  A    between atoms: C_4  and  C_5
REMARK    4  A    between atoms: N_13  and  C_14
REMARK    5  A    between atoms: C_14  and  C_15
REMARK                            x       y       z     vdW  Elec       q    Type
REMARK                         _______ _______ _______ _____ _____    ______ ____
ROOT
ATOM      1  C   UNL     1      -3.686  13.928  21.588  0.00  0.00    +0.000 C 
ATOM      2  C   UNL     1      -3.492  13.025  20.414  0.00  0.00    +0.000 A 
ATOM      3  C   UNL     1      -4.433  12.563  19.495  0.00  0.00    +0.000 A 
ATOM      4  C   UNL     1      -3.725  11.761  18.558  0.00  0.00    +0.000 A 
ATOM      5  C   UNL     1      -2.415  11.669  18.976  0.00  0.00    +0.000 A 
ATOM      6  N   UNL     1      -2.266  12.443  20.108  0.00  0.00    +0.000 N 
ATOM      7  C   UNL     1      -1.360  10.815  18.344  0.00  0.00    +0.000 C 
ATOM      8  C   UNL     1      -1.838  10.292  16.973  0.00  0.00    +0.000 C 
ATOM      9  C   UNL     1      -3.310   9.871  16.968  0.00  0.00    +0.000 C 
ATOM     10  C   UNL     1      -4.191  11.038  17.380  0.00  0.00    +0.000 C 
ATOM     11  O   UNL     1      -5.224  11.322  16.785  0.00  0.00    +0.000 OA
ENDROOT
BRANCH   3  12
ATOM     12  C   UNL     1      -5.922  12.786  19.485  0.00  0.00    +0.000 C 
BRANCH  12  13
ATOM     13  C   UNL     1      -6.605  11.986  20.595  0.00  0.00    +0.000 C 
ATOM     14  O   UNL     1      -6.820  12.468  21.712  0.00  0.00    +0.000 OA
ATOM     15  N   UNL     1      -6.976  10.709  20.296  0.00  0.00    +0.000 N 
ATOM     16  C   UNL     1      -7.628   9.723  21.126  0.00  0.00    +0.000 C 
ATOM     17  C   UNL     1      -7.373   8.729  19.987  0.00  0.00    +0.000 C 
ATOM     18  C   UNL     1      -7.048   9.925  19.084  0.00  0.00    +0.000 C 
ENDBRANCH  12  13
ENDBRANCH   3  12
BRANCH   6  19
ATOM     19  C   UNL     1      -1.008  12.647  20.832  0.00  0.00    +0.000 C 
BRANCH  19  20
ATOM     20  C   UNL     1      -0.422  11.418  21.483  0.00  0.00    +0.000 A 
ATOM     21  C   UNL     1       0.681  10.703  20.996  0.00  0.00    +0.000 A 
ATOM     22  C   UNL     1       1.168   9.587  21.688  0.00  0.00    +0.000 A 
ATOM     23  C   UNL     1       0.556   9.160  22.867  0.00  0.00    +0.000 A 
ATOM     24  C   UNL     1      -0.556   9.842  23.350  0.00  0.00    +0.000 A 
ATOM     25  C   UNL     1      -1.034  10.954  22.656  0.00  0.00    +0.000 A 
ATOM     26  F   UNL     1      -2.108  11.594  23.139  0.00  0.00    +0.000 F 
ENDBRANCH  19  20
ENDBRANCH   6  19
TORSDOF 4
ENDMDL
MODEL 6
REMARK VINA RESULT:      -7.6      7.643     11.554
REMARK  Name = 
REMARK  5 active torsions:
REMARK  status: ('A' for Active; 'I' for Inactive)
REMARK    1  A    between atoms: C_1  and  C_2
REMARK    2  A    between atoms: C_3  and  C_4
REMARK    3  A    between atoms: C_4  and  C_5
REMARK    4  A    between atoms: N_13  and  C_14
REMARK    5  A    between atoms: C_14  and  C_15
REMARK                            x       y       z     vdW  Elec       q    Type
REMARK                         _______ _______ _______ _____ _____    ______ ____
ROOT
ATOM      1  C   UNL     1      -3.211  14.149  21.829  0.00  0.00    +0.000 C 
ATOM      2  C   UNL     1      -3.263  13.225  20.657  0.00  0.00    +0.000 A 
ATOM      3  C   UNL     1      -4.359  12.847  19.883  0.00  0.00    +0.000 A 
ATOM      4  C   UNL     1      -3.862  11.976  18.875  0.00  0.00    +0.000 A 
ATOM      5  C   UNL     1      -2.521  11.766  19.113  0.00  0.00    +0.000 A 
ATOM      6  N   UNL     1      -2.149  12.529  20.200  0.00  0.00    +0.000 N 
ATOM      7  C   UNL     1      -1.645  10.812  18.360  0.00  0.00    +0.000 C 
ATOM      8  C   UNL     1      -2.352  10.327  17.076  0.00  0.00    +0.000 C 
ATOM      9  C   UNL     1      -3.842  10.046  17.279  0.00  0.00    +0.000 C 
ATOM     10  C   UNL     1      -4.549  11.292  17.784  0.00  0.00    +0.000 C 
ATOM     11  O   UNL     1      -5.623  11.668  17.329  0.00  0.00    +0.000 OA
ENDROOT
BRANCH   3  12
ATOM     12  C   UNL     1      -5.808  13.207  20.070  0.00  0.00    +0.000 C 
BRANCH  12  13
ATOM     13  C   UNL     1      -6.470  12.302  21.111  0.00  0.00    +0.000 C 
ATOM     14  O   UNL     1      -6.634  11.093  20.916  0.00  0.00    +0.000 OA
ATOM     15  N   UNL     1      -6.868  12.889  22.275  0.00  0.00    +0.000 N 
ATOM     16  C   UNL     1      -7.515  12.302  23.425  0.00  0.00    +0.000 C 
ATOM     17  C   UNL     1      -7.675  13.733  23.951  0.00  0.00    +0.000 C 
ATOM     18  C   UNL     1      -6.667  14.183  22.886  0.00  0.00    +0.000 C 
ENDBRANCH  12  13
ENDBRANCH   3  12
BRANCH   6  19
ATOM     19  C   UNL     1      -0.790  12.620  20.742  0.00  0.00    +0.000 C 
BRANCH  19  20
ATOM     20  C   UNL     1      -0.247  11.354  21.359  0.00  0.00    +0.000 A 
ATOM     21  C   UNL     1       0.734  10.537  20.779  0.00  0.00    +0.000 A 
ATOM     22  C   UNL     1       1.193   9.394  21.443  0.00  0.00    +0.000 A 
ATOM     23  C   UNL     1       0.673   9.040  22.689  0.00  0.00    +0.000 A 
ATOM     24  C   UNL     1      -0.321   9.823  23.266  0.00  0.00    +0.000 A 
ATOM     25  C   UNL     1      -0.771  10.962  22.599  0.00  0.00    +0.000 A 
ATOM     26  F   UNL     1      -1.731  11.702  23.174  0.00  0.00    +0.000 F 
ENDBRANCH  19  20
ENDBRANCH   6  19
TORSDOF 4
ENDMDL
MODEL 7
REMARK VINA RESULT:      -7.5      5.479      9.846
REMARK  Name = 
REMARK  5 active torsions:
REMARK  status: ('A' for Active; 'I' for Inactive)
REMARK    1  A    between atoms: C_1  and  C_2
REMARK    2  A    between atoms: C_3  and  C_4
REMARK    3  A    between atoms: C_4  and  C_5
REMARK    4  A    between atoms: N_13  and  C_14
REMARK    5  A    between atoms: C_14  and  C_15
REMARK                            x       y       z     vdW  Elec       q    Type
REMARK                         _______ _______ _______ _____ _____    ______ ____
ROOT
ATOM      1  C   UNL     1       1.121  12.460  20.661  0.00  0.00    +0.000 C 
ATOM      2  C   UNL     1      -0.058  11.987  19.874  0.00  0.00    +0.000 A 
ATOM      3  C   UNL     1      -1.400  12.342  20.002  0.00  0.00    +0.000 A 
ATOM      4  C   UNL     1      -2.105  11.631  18.992  0.00  0.00    +0.000 A 
ATOM      5  C   UNL     1      -1.214  10.799  18.352  0.00  0.00    +0.000 A 
ATOM      6  N   UNL     1       0.040  11.014  18.885  0.00  0.00    +0.000 N 
ATOM      7  C   UNL     1      -1.568   9.784  17.309  0.00  0.00    +0.000 C 
ATOM      8  C   UNL     1      -3.012  10.006  16.808  0.00  0.00    +0.000 C 
ATOM      9  C   UNL     1      -3.989  10.369  17.929  0.00  0.00    +0.000 C 
ATOM     10  C   UNL     1      -3.523  11.624  18.646  0.00  0.00    +0.000 C 
ATOM     11  O   UNL     1      -4.287  12.537  18.936  0.00  0.00    +0.000 OA
ENDROOT
BRANCH   3  12
ATOM     12  C   UNL     1      -2.038  13.244  21.025  0.00  0.00    +0.000 C 
BRANCH  12  13
ATOM     13  C   UNL     1      -2.326  12.486  22.322  0.00  0.00    +0.000 C 
ATOM     14  O   UNL     1      -1.550  11.632  22.766  0.00  0.00    +0.000 OA
ATOM     15  N   UNL     1      -3.479  12.799  22.977  0.00  0.00    +0.000 N 
ATOM     16  C   UNL     1      -4.014  12.259  24.205  0.00  0.00    +0.000 C 
ATOM     17  C   UNL     1      -5.281  13.066  23.901  0.00  0.00    +0.000 C 
ATOM     18  C   UNL     1      -4.477  13.837  22.847  0.00  0.00    +0.000 C 
ENDBRANCH  12  13
ENDBRANCH   3  12
BRANCH   6  19
ATOM     19  C   UNL     1       1.272  10.355  18.440  0.00  0.00    +0.000 C 
BRANCH  19  20
ATOM     20  C   UNL     1       1.568   9.022  19.084  0.00  0.00    +0.000 A 
ATOM     21  C   UNL     1       1.201   8.664  20.389  0.00  0.00    +0.000 A 
ATOM     22  C   UNL     1       1.499   7.390  20.889  0.00  0.00    +0.000 A 
ATOM     23  C   UNL     1       2.178   6.460  20.101  0.00  0.00    +0.000 A 
ATOM     24  C   UNL     1       2.575   6.809  18.815  0.00  0.00    +0.000 A 
ATOM     25  C   UNL     1       2.272   8.078  18.323  0.00  0.00    +0.000 A 
ATOM     26  F   UNL     1       2.666   8.393  17.081  0.00  0.00    +0.000 F 
ENDBRANCH  19  20
ENDBRANCH   6  19
TORSDOF 4
ENDMDL
MODEL 8
REMARK VINA RESULT:      -7.4      0.966      1.356
REMARK  Name = 
REMARK  5 active torsions:
REMARK  status: ('A' for Active; 'I' for Inactive)
REMARK    1  A    between atoms: C_1  and  C_2
REMARK    2  A    between atoms: C_3  and  C_4
REMARK    3  A    between atoms: C_4  and  C_5
REMARK    4  A    between atoms: N_13  and  C_14
REMARK    5  A    between atoms: C_14  and  C_15
REMARK                            x       y       z     vdW  Elec       q    Type
REMARK                         _______ _______ _______ _____ _____    ______ ____
ROOT
ATOM      1  C   UNL     1       4.707   7.509  17.522  0.00  0.00    +0.000 C 
ATOM      2  C   UNL     1       4.181   6.203  18.022  0.00  0.00    +0.000 A 
ATOM      3  C   UNL     1       4.885   5.083  18.463  0.00  0.00    +0.000 A 
ATOM      4  C   UNL     1       3.912   4.123  18.859  0.00  0.00    +0.000 A 
ATOM      5  C   UNL     1       2.665   4.629  18.561  0.00  0.00    +0.000 A 
ATOM      6  N   UNL     1       2.824   5.901  18.052  0.00  0.00    +0.000 N 
ATOM      7  C   UNL     1       1.372   3.887  18.701  0.00  0.00    +0.000 C 
ATOM      8  C   UNL     1       1.576   2.595  19.521  0.00  0.00    +0.000 C 
ATOM      9  C   UNL     1       2.878   1.866  19.182  0.00  0.00    +0.000 C 
ATOM     10  C   UNL     1       4.068   2.782  19.411  0.00  0.00    +0.000 C 
ATOM     11  O   UNL     1       5.084   2.407  19.983  0.00  0.00    +0.000 OA
ENDROOT
BRANCH   3  12
ATOM     12  C   UNL     1       6.373   4.857  18.480  0.00  0.00    +0.000 C 
BRANCH  12  13
ATOM     13  C   UNL     1       7.018   5.352  17.185  0.00  0.00    +0.000 C 
ATOM     14  O   UNL     1       7.844   6.271  17.175  0.00  0.00    +0.000 OA
ATOM     15  N   UNL     1       6.647   4.727  16.032  0.00  0.00    +0.000 N 
ATOM     16  C   UNL     1       7.075   4.971  14.675  0.00  0.00    +0.000 C 
ATOM     17  C   UNL     1       5.987   3.979  14.249  0.00  0.00    +0.000 C 
ATOM     18  C   UNL     1       5.885   3.540  15.715  0.00  0.00    +0.000 C 
ENDBRANCH  12  13
ENDBRANCH   3  12
BRANCH   6  19
ATOM     19  C   UNL     1       1.731   6.794  17.657  0.00  0.00    +0.000 C 
BRANCH  19  20
ATOM     20  C   UNL     1       1.573   8.042  18.492  0.00  0.00    +0.000 A 
ATOM     21  C   UNL     1       1.502   9.345  17.979  0.00  0.00    +0.000 A 
ATOM     22  C   UNL     1       1.327  10.439  18.835  0.00  0.00    +0.000 A 
ATOM     23  C   UNL     1       1.236  10.253  20.215  0.00  0.00    +0.000 A 
ATOM     24  C   UNL     1       1.334   8.970  20.743  0.00  0.00    +0.000 A 
ATOM     25  C   UNL     1       1.504   7.885  19.883  0.00  0.00    +0.000 A 
ATOM     26  F   UNL     1       1.596   6.657  20.415  0.00  0.00    +0.000 F 
ENDBRANCH  19  20
ENDBRANCH   6  19
TORSDOF 4
ENDMDL
MODEL 9
REMARK VINA RESULT:      -7.3      1.847      4.432
REMARK  Name = 
REMARK  5 active torsions:
REMARK  status: ('A' for Active; 'I' for Inactive)
REMARK    1  A    between atoms: C_1  and  C_2
REMARK    2  A    between atoms: C_3  and  C_4
REMARK    3  A    between atoms: C_4  and  C_5
REMARK    4  A    between atoms: N_13  and  C_14
REMARK    5  A    between atoms: C_14  and  C_15
REMARK                            x       y       z     vdW  Elec       q    Type
REMARK                         _______ _______ _______ _____ _____    ______ ____
ROOT
ATOM      1  C   UNL     1       1.908   4.850  17.714  0.00  0.00    +0.000 C 
ATOM      2  C   UNL     1       3.346   5.254  17.750  0.00  0.00    +0.000 A 
ATOM      3  C   UNL     1       4.477   4.463  17.947  0.00  0.00    +0.000 A 
ATOM      4  C   UNL     1       5.600   5.331  17.859  0.00  0.00    +0.000 A 
ATOM      5  C   UNL     1       5.134   6.620  17.716  0.00  0.00    +0.000 A 
ATOM      6  N   UNL     1       3.757   6.579  17.646  0.00  0.00    +0.000 N 
ATOM      7  C   UNL     1       5.982   7.854  17.713  0.00  0.00    +0.000 C 
ATOM      8  C   UNL     1       7.474   7.484  17.569  0.00  0.00    +0.000 C 
ATOM      9  C   UNL     1       7.869   6.250  18.383  0.00  0.00    +0.000 C 
ATOM     10  C   UNL     1       7.028   5.055  17.968  0.00  0.00    +0.000 C 
ATOM     11  O   UNL     1       7.512   3.947  17.775  0.00  0.00    +0.000 OA
ENDROOT
BRANCH   3  12
ATOM     12  C   UNL     1       4.550   2.992  18.256  0.00  0.00    +0.000 C 
BRANCH  12  13
ATOM     13  C   UNL     1       3.155   2.409  18.490  0.00  0.00    +0.000 C 
ATOM     14  O   UNL     1       2.533   1.822  17.597  0.00  0.00    +0.000 OA
ATOM     15  N   UNL     1       2.624   2.560  19.736  0.00  0.00    +0.000 N 
ATOM     16  C   UNL     1       1.345   2.127  20.248  0.00  0.00    +0.000 C 
ATOM     17  C   UNL     1       1.682   2.928  21.511  0.00  0.00    +0.000 C 
ATOM     18  C   UNL     1       3.131   3.005  21.014  0.00  0.00    +0.000 C 
ENDBRANCH  12  13
ENDBRANCH   3  12
BRANCH   6  19
ATOM     19  C   UNL     1       2.886   7.741  17.447  0.00  0.00    +0.000 C 
BRANCH  19  20
ATOM     20  C   UNL     1       2.137   8.214  18.670  0.00  0.00    +0.000 A 
ATOM     21  C   UNL     1       2.109   7.542  19.900  0.00  0.00    +0.000 A 
ATOM     22  C   UNL     1       1.406   8.076  20.987  0.00  0.00    +0.000 A 
ATOM     23  C   UNL     1       0.710   9.279  20.860  0.00  0.00    +0.000 A 
ATOM     24  C   UNL     1       0.704   9.943  19.638  0.00  0.00    +0.000 A 
ATOM     25  C   UNL     1       1.409   9.406  18.561  0.00  0.00    +0.000 A 
ATOM     26  F   UNL     1       1.388  10.064  17.393  0.00  0.00    +0.000 F 
ENDBRANCH  19  20
ENDBRANCH   6  19
TORSDOF 4
ENDMDL
