MODEL 1
REMARK VINA RESULT:      -8.3      0.000      0.000
REMARK  Name = 
REMARK  6 active torsions:
REMARK  status: ('A' for Active; 'I' for Inactive)
REMARK    1  A    between atoms: C_1  and  N_2
REMARK    2  A    between atoms: N_2  and  C_3
REMARK    3  A    between atoms: N_2  and  C_4
REMARK    4  A    between atoms: C_7  and  C_8
REMARK    5  A    between atoms: C_16  and  C_17
REMARK    6  A    between atoms: C_27  and  C_28
REMARK                            x       y       z     vdW  Elec       q    Type
REMARK                         _______ _______ _______ _____ _____    ______ ____
ROOT
ATOM      1  C   UNL     1      -6.273  14.032  21.372  0.00  0.00    +0.000 C 
ATOM      2  C   UNL     1      -5.618  13.960  19.976  0.00  0.00    +0.000 C 
ATOM      3  C   UNL     1      -4.506  12.915  19.902  0.00  0.00    +0.000 C 
ATOM      4  C   UNL     1      -3.375  13.094  20.947  0.00  0.00    +0.000 C 
ATOM      5  C   UNL     1      -2.565  14.374  20.632  0.00  0.00    +0.000 C 
ATOM      6  C   UNL     1      -4.011  13.258  22.327  0.00  0.00    +0.000 C 
ATOM      7  C   UNL     1      -3.585  12.585  23.412  0.00  0.00    +0.000 C 
ATOM      8  C   UNL     1      -2.439  11.624  23.429  0.00  0.00    +0.000 C 
ATOM      9  C   UNL     1      -1.572  11.681  22.164  0.00  0.00    +0.000 C 
ATOM     10  C   UNL     1      -0.720  10.416  22.027  0.00  0.00    +0.000 C 
ATOM     11  C   UNL     1       0.178   9.969  23.174  0.00  0.00    +0.000 C 
ATOM     12  C   UNL     1       1.017   8.964  22.436  0.00  0.00    +0.000 C 
ATOM     13  C   UNL     1       0.994   9.162  21.100  0.00  0.00    +0.000 C 
ATOM     14  C   UNL     1       0.208  10.428  20.786  0.00  0.00    +0.000 C 
ATOM     15  C   UNL     1       1.179  11.636  20.756  0.00  0.00    +0.000 C 
ATOM     16  C   UNL     1      -0.723  10.434  19.561  0.00  0.00    +0.000 C 
ATOM     17  C   UNL     1      -1.663  11.650  19.578  0.00  0.00    +0.000 C 
ATOM     18  C   UNL     1      -2.465  11.808  20.898  0.00  0.00    +0.000 C 
ATOM     19  C   UNL     1      -5.163  14.240  22.437  0.00  0.00    +0.000 C 
ENDROOT
BRANCH  13  20
ATOM     20  C   UNL     1       1.659   8.303  20.109  0.00  0.00    +0.000 A 
ATOM     21  C   UNL     1       2.023   8.772  18.843  0.00  0.00    +0.000 A 
ATOM     22  C   UNL     1       2.647   7.941  17.907  0.00  0.00    +0.000 A 
ATOM     23  C   UNL     1       2.929   6.606  18.219  0.00  0.00    +0.000 A 
ATOM     24  C   UNL     1       3.572   5.756  17.312  0.00  0.00    +0.000 A 
ATOM     25  C   UNL     1       3.819   4.446  17.692  0.00  0.00    +0.000 A 
ATOM     26  N   UNL     1       3.470   3.929  18.887  0.00  0.00    +0.000 NA
ATOM     27  C   UNL     1       2.847   4.769  19.748  0.00  0.00    +0.000 A 
ATOM     28  C   UNL     1       2.558   6.109  19.478  0.00  0.00    +0.000 A 
ATOM     29  C   UNL     1       1.923   6.955  20.407  0.00  0.00    +0.000 A 
ENDBRANCH  13  20
BRANCH   1  31
ATOM     30  C   UNL     1      -7.138  16.095  20.355  0.00  0.00    +0.000 C 
ATOM     31  N   UNL     1      -7.309  15.105  21.425  0.00  0.00    +0.000 NA
ATOM     32  C   UNL     1      -7.321  15.811  22.711  0.00  0.00    +0.000 C 
ENDBRANCH   1  31
TORSDOF 2
ENDMDL
MODEL 2
REMARK VINA RESULT:      -8.1      3.544     10.008
REMARK  Name = 
REMARK  6 active torsions:
REMARK  status: ('A' for Active; 'I' for Inactive)
REMARK    1  A    between atoms: C_1  and  N_2
REMARK    2  A    between atoms: N_2  and  C_3
REMARK    3  A    between atoms: N_2  and  C_4
REMARK    4  A    between atoms: C_7  and  C_8
REMARK    5  A    between atoms: C_16  and  C_17
REMARK    6  A    between atoms: C_27  and  C_28
REMARK                            x       y       z     vdW  Elec       q    Type
REMARK                         _______ _______ _______ _____ _____    ______ ____
ROOT
ATOM      1  C   UNL     1       4.035   4.204  19.074  0.00  0.00    +0.000 C 
ATOM      2  C   UNL     1       4.161   5.071  17.803  0.00  0.00    +0.000 C 
ATOM      3  C   UNL     1       3.783   6.530  18.047  0.00  0.00    +0.000 C 
ATOM      4  C   UNL     1       2.361   6.744  18.625  0.00  0.00    +0.000 C 
ATOM      5  C   UNL     1       1.299   6.362  17.568  0.00  0.00    +0.000 C 
ATOM      6  C   UNL     1       2.186   5.825  19.834  0.00  0.00    +0.000 C 
ATOM      7  C   UNL     1       1.675   6.247  21.006  0.00  0.00    +0.000 C 
ATOM      8  C   UNL     1       1.193   7.637  21.278  0.00  0.00    +0.000 C 
ATOM      9  C   UNL     1       1.038   8.493  20.014  0.00  0.00    +0.000 C 
ATOM     10  C   UNL     1       0.988   9.982  20.363  0.00  0.00    +0.000 C 
ATOM     11  C   UNL     1      -0.020  10.495  21.385  0.00  0.00    +0.000 C 
ATOM     12  C   UNL     1       0.087  11.968  21.099  0.00  0.00    +0.000 C 
ATOM     13  C   UNL     1       0.600  12.214  19.874  0.00  0.00    +0.000 C 
ATOM     14  C   UNL     1       0.796  10.900  19.129  0.00  0.00    +0.000 C 
ATOM     15  C   UNL     1      -0.486  10.579  18.317  0.00  0.00    +0.000 C 
ATOM     16  C   UNL     1       2.057  10.720  18.267  0.00  0.00    +0.000 C 
ATOM     17  C   UNL     1       2.252   9.252  17.857  0.00  0.00    +0.000 C 
ATOM     18  C   UNL     1       2.236   8.258  19.049  0.00  0.00    +0.000 C 
ATOM     19  C   UNL     1       2.608   4.377  19.660  0.00  0.00    +0.000 C 
ENDROOT
BRANCH  13  20
ATOM     20  C   UNL     1       0.890  13.551  19.335  0.00  0.00    +0.000 A 
ATOM     21  C   UNL     1       2.174  13.928  18.930  0.00  0.00    +0.000 A 
ATOM     22  C   UNL     1       2.437  15.206  18.426  0.00  0.00    +0.000 A 
ATOM     23  C   UNL     1       1.409  16.149  18.311  0.00  0.00    +0.000 A 
ATOM     24  C   UNL     1       1.636  17.428  17.791  0.00  0.00    +0.000 A 
ATOM     25  C   UNL     1       0.569  18.308  17.706  0.00  0.00    +0.000 A 
ATOM     26  N   UNL     1      -0.686  18.013  18.105  0.00  0.00    +0.000 NA
ATOM     27  C   UNL     1      -0.881  16.770  18.606  0.00  0.00    +0.000 A 
ATOM     28  C   UNL     1       0.115  15.798  18.727  0.00  0.00    +0.000 A 
ATOM     29  C   UNL     1      -0.132  14.510  19.239  0.00  0.00    +0.000 A 
ENDBRANCH  13  20
BRANCH   1  31
ATOM     30  C   UNL     1       3.374   2.162  17.875  0.00  0.00    +0.000 C 
ATOM     31  N   UNL     1       4.351   2.774  18.784  0.00  0.00    +0.000 NA
ATOM     32  C   UNL     1       4.427   1.957  20.000  0.00  0.00    +0.000 C 
ENDBRANCH   1  31
TORSDOF 2
ENDMDL
MODEL 3
REMARK VINA RESULT:      -7.8      1.888      3.162
REMARK  Name = 
REMARK  6 active torsions:
REMARK  status: ('A' for Active; 'I' for Inactive)
REMARK    1  A    between atoms: C_1  and  N_2
REMARK    2  A    between atoms: N_2  and  C_3
REMARK    3  A    between atoms: N_2  and  C_4
REMARK    4  A    between atoms: C_7  and  C_8
REMARK    5  A    between atoms: C_16  and  C_17
REMARK    6  A    between atoms: C_27  and  C_28
REMARK                            x       y       z     vdW  Elec       q    Type
REMARK                         _______ _______ _______ _____ _____    ______ ____
ROOT
ATOM      1  C   UNL     1      -2.826  14.964  23.965  0.00  0.00    +0.000 C 
ATOM      2  C   UNL     1      -3.210  13.470  24.045  0.00  0.00    +0.000 C 
ATOM      3  C   UNL     1      -2.234  12.571  23.288  0.00  0.00    +0.000 C 
ATOM      4  C   UNL     1      -2.046  12.932  21.792  0.00  0.00    +0.000 C 
ATOM      5  C   UNL     1      -3.347  12.637  21.011  0.00  0.00    +0.000 C 
ATOM      6  C   UNL     1      -1.753  14.428  21.687  0.00  0.00    +0.000 C 
ATOM      7  C   UNL     1      -0.755  14.927  20.934  0.00  0.00    +0.000 C 
ATOM      8  C   UNL     1       0.173  14.109  20.092  0.00  0.00    +0.000 C 
ATOM      9  C   UNL     1      -0.287  12.657  19.904  0.00  0.00    +0.000 C 
ATOM     10  C   UNL     1       0.872  11.771  19.441  0.00  0.00    +0.000 C 
ATOM     11  C   UNL     1       1.683  12.154  18.209  0.00  0.00    +0.000 C 
ATOM     12  C   UNL     1       2.399  10.851  17.986  0.00  0.00    +0.000 C 
ATOM     13  C   UNL     1       1.772   9.815  18.584  0.00  0.00    +0.000 C 
ATOM     14  C   UNL     1       0.463  10.297  19.197  0.00  0.00    +0.000 C 
ATOM     15  C   UNL     1      -0.675  10.138  18.156  0.00  0.00    +0.000 C 
ATOM     16  C   UNL     1       0.042   9.742  20.568  0.00  0.00    +0.000 C 
ATOM     17  C   UNL     1      -1.112  10.557  21.173  0.00  0.00    +0.000 C 
ATOM     18  C   UNL     1      -0.836  12.084  21.242  0.00  0.00    +0.000 C 
ATOM     19  C   UNL     1      -2.658  15.359  22.473  0.00  0.00    +0.000 C 
ENDROOT
BRANCH  13  20
ATOM     20  C   UNL     1       2.264   8.429  18.605  0.00  0.00    +0.000 A 
ATOM     21  C   UNL     1       3.074   7.912  17.590  0.00  0.00    +0.000 A 
ATOM     22  C   UNL     1       3.529   6.590  17.619  0.00  0.00    +0.000 A 
ATOM     23  C   UNL     1       3.183   5.743  18.679  0.00  0.00    +0.000 A 
ATOM     24  C   UNL     1       3.639   4.422  18.747  0.00  0.00    +0.000 A 
ATOM     25  C   UNL     1       3.256   3.644  19.828  0.00  0.00    +0.000 A 
ATOM     26  N   UNL     1       2.456   4.077  20.823  0.00  0.00    +0.000 NA
ATOM     27  C   UNL     1       2.025   5.358  20.735  0.00  0.00    +0.000 A 
ATOM     28  C   UNL     1       2.356   6.237  19.700  0.00  0.00    +0.000 A 
ATOM     29  C   UNL     1       1.900   7.567  19.654  0.00  0.00    +0.000 A 
ENDBRANCH  13  20
BRANCH   1  31
ATOM     30  C   UNL     1      -5.090  15.920  23.905  0.00  0.00    +0.000 C 
ATOM     31  N   UNL     1      -3.835  15.816  24.660  0.00  0.00    +0.000 NA
ATOM     32  C   UNL     1      -3.339  17.172  24.924  0.00  0.00    +0.000 C 
ENDBRANCH   1  31
TORSDOF 2
ENDMDL
MODEL 4
REMARK VINA RESULT:      -7.8      2.142      3.555
REMARK  Name = 
REMARK  6 active torsions:
REMARK  status: ('A' for Active; 'I' for Inactive)
REMARK    1  A    between atoms: C_1  and  N_2
REMARK    2  A    between atoms: N_2  and  C_3
REMARK    3  A    between atoms: N_2  and  C_4
REMARK    4  A    between atoms: C_7  and  C_8
REMARK    5  A    between atoms: C_16  and  C_17
REMARK    6  A    between atoms: C_27  and  C_28
REMARK                            x       y       z     vdW  Elec       q    Type
REMARK                         _______ _______ _______ _____ _____    ______ ____
ROOT
ATOM      1  C   UNL     1      -2.044  15.859  23.782  0.00  0.00    +0.000 C 
ATOM      2  C   UNL     1      -2.544  14.437  24.119  0.00  0.00    +0.000 C 
ATOM      3  C   UNL     1      -1.717  13.347  23.439  0.00  0.00    +0.000 C 
ATOM      4  C   UNL     1      -1.632  13.464  21.896  0.00  0.00    +0.000 C 
ATOM      5  C   UNL     1      -3.017  13.185  21.269  0.00  0.00    +0.000 C 
ATOM      6  C   UNL     1      -1.225  14.894  21.541  0.00  0.00    +0.000 C 
ATOM      7  C   UNL     1      -0.258  15.178  20.648  0.00  0.00    +0.000 C 
ATOM      8  C   UNL     1       0.519  14.161  19.874  0.00  0.00    +0.000 C 
ATOM      9  C   UNL     1      -0.075  12.748  19.947  0.00  0.00    +0.000 C 
ATOM     10  C   UNL     1       0.960  11.696  19.541  0.00  0.00    +0.000 C 
ATOM     11  C   UNL     1       1.689  11.814  18.208  0.00  0.00    +0.000 C 
ATOM     12  C   UNL     1       2.270  10.430  18.136  0.00  0.00    +0.000 C 
ATOM     13  C   UNL     1       1.613   9.558  18.931  0.00  0.00    +0.000 C 
ATOM     14  C   UNL     1       0.408  10.248  19.559  0.00  0.00    +0.000 C 
ATOM     15  C   UNL     1      -0.827  10.049  18.642  0.00  0.00    +0.000 C 
ATOM     16  C   UNL     1       0.064   9.944  21.026  0.00  0.00    +0.000 C 
ATOM     17  C   UNL     1      -0.959  10.946  21.582  0.00  0.00    +0.000 C 
ATOM     18  C   UNL     1      -0.550  12.432  21.394  0.00  0.00    +0.000 C 
ATOM     19  C   UNL     1      -1.975  16.013  22.239  0.00  0.00    +0.000 C 
ENDROOT
BRANCH  13  20
ATOM     20  C   UNL     1       1.987   8.149  19.129  0.00  0.00    +0.000 A 
ATOM     21  C   UNL     1       1.638   7.442  20.283  0.00  0.00    +0.000 A 
ATOM     22  C   UNL     1       2.007   6.105  20.461  0.00  0.00    +0.000 A 
ATOM     23  C   UNL     1       2.741   5.433  19.476  0.00  0.00    +0.000 A 
ATOM     24  C   UNL     1       3.108   4.090  19.615  0.00  0.00    +0.000 A 
ATOM     25  C   UNL     1       3.833   3.492  18.597  0.00  0.00    +0.000 A 
ATOM     26  N   UNL     1       4.222   4.129  17.474  0.00  0.00    +0.000 NA
ATOM     27  C   UNL     1       3.859   5.428  17.362  0.00  0.00    +0.000 A 
ATOM     28  C   UNL     1       3.117   6.130  18.317  0.00  0.00    +0.000 A 
ATOM     29  C   UNL     1       2.745   7.477  18.155  0.00  0.00    +0.000 A 
ENDBRANCH  13  20
BRANCH   1  31
ATOM     30  C   UNL     1      -2.279  17.516  25.582  0.00  0.00    +0.000 C 
ATOM     31  N   UNL     1      -2.912  16.897  24.411  0.00  0.00    +0.000 NA
ATOM     32  C   UNL     1      -4.219  16.367  24.817  0.00  0.00    +0.000 C 
ENDBRANCH   1  31
TORSDOF 2
ENDMDL
MODEL 5
REMARK VINA RESULT:      -7.7      3.631      9.815
REMARK  Name = 
REMARK  6 active torsions:
REMARK  status: ('A' for Active; 'I' for Inactive)
REMARK    1  A    between atoms: C_1  and  N_2
REMARK    2  A    between atoms: N_2  and  C_3
REMARK    3  A    between atoms: N_2  and  C_4
REMARK    4  A    between atoms: C_7  and  C_8
REMARK    5  A    between atoms: C_16  and  C_17
REMARK    6  A    between atoms: C_27  and  C_28
REMARK                            x       y       z     vdW  Elec       q    Type
REMARK                         _______ _______ _______ _____ _____    ______ ____
ROOT
ATOM      1  C   UNL     1       4.161   4.628  18.906  0.00  0.00    +0.000 C 
ATOM      2  C   UNL     1       4.159   5.525  17.649  0.00  0.00    +0.000 C 
ATOM      3  C   UNL     1       3.684   6.947  17.943  0.00  0.00    +0.000 C 
ATOM      4  C   UNL     1       2.280   7.041  18.594  0.00  0.00    +0.000 C 
ATOM      5  C   UNL     1       1.199   6.598  17.580  0.00  0.00    +0.000 C 
ATOM      6  C   UNL     1       2.234   6.089  19.789  0.00  0.00    +0.000 C 
ATOM      7  C   UNL     1       1.751   6.450  20.992  0.00  0.00    +0.000 C 
ATOM      8  C   UNL     1       1.180   7.794  21.318  0.00  0.00    +0.000 C 
ATOM      9  C   UNL     1       0.900   8.658  20.082  0.00  0.00    +0.000 C 
ATOM     10  C   UNL     1       0.756  10.133  20.466  0.00  0.00    +0.000 C 
ATOM     11  C   UNL     1      -0.236  10.549  21.546  0.00  0.00    +0.000 C 
ATOM     12  C   UNL     1      -0.255  12.030  21.288  0.00  0.00    +0.000 C 
ATOM     13  C   UNL     1       0.177  12.337  20.045  0.00  0.00    +0.000 C 
ATOM     14  C   UNL     1       0.434  11.055  19.263  0.00  0.00    +0.000 C 
ATOM     15  C   UNL     1      -0.858  10.653  18.507  0.00  0.00    +0.000 C 
ATOM     16  C   UNL     1       1.661  10.988  18.338  0.00  0.00    +0.000 C 
ATOM     17  C   UNL     1       1.945   9.547  17.887  0.00  0.00    +0.000 C 
ATOM     18  C   UNL     1       2.063   8.532  19.056  0.00  0.00    +0.000 C 
ATOM     19  C   UNL     1       2.755   4.681  19.562  0.00  0.00    +0.000 C 
ENDROOT
BRANCH  13  20
ATOM     20  C   UNL     1       0.339  13.702  19.522  0.00  0.00    +0.000 A 
ATOM     21  C   UNL     1      -0.706  14.631  19.531  0.00  0.00    +0.000 A 
ATOM     22  C   UNL     1      -0.541  15.923  19.023  0.00  0.00    +0.000 A 
ATOM     23  C   UNL     1       0.690  16.325  18.490  0.00  0.00    +0.000 A 
ATOM     24  C   UNL     1       0.893  17.617  17.993  0.00  0.00    +0.000 A 
ATOM     25  C   UNL     1       2.139  17.942  17.482  0.00  0.00    +0.000 A 
ATOM     26  N   UNL     1       3.178  17.083  17.422  0.00  0.00    +0.000 NA
ATOM     27  C   UNL     1       2.958  15.838  17.906  0.00  0.00    +0.000 A 
ATOM     28  C   UNL     1       1.748  15.403  18.455  0.00  0.00    +0.000 A 
ATOM     29  C   UNL     1       1.564  14.103  18.964  0.00  0.00    +0.000 A 
ENDBRANCH  13  20
BRANCH   1  31
ATOM     30  C   UNL     1       3.754   2.660  17.490  0.00  0.00    +0.000 C 
ATOM     31  N   UNL     1       4.568   3.232  18.569  0.00  0.00    +0.000 NA
ATOM     32  C   UNL     1       4.502   2.332  19.726  0.00  0.00    +0.000 C 
ENDBRANCH   1  31
TORSDOF 2
ENDMDL
MODEL 6
REMARK VINA RESULT:      -7.6      3.970      9.915
REMARK  Name = 
REMARK  6 active torsions:
REMARK  status: ('A' for Active; 'I' for Inactive)
REMARK    1  A    between atoms: C_1  and  N_2
REMARK    2  A    between atoms: N_2  and  C_3
REMARK    3  A    between atoms: N_2  and  C_4
REMARK    4  A    between atoms: C_7  and  C_8
REMARK    5  A    between atoms: C_16  and  C_17
REMARK    6  A    between atoms: C_27  and  C_28
REMARK                            x       y       z     vdW  Elec       q    Type
REMARK                         _______ _______ _______ _____ _____    ______ ____
ROOT
ATOM      1  C   UNL     1       4.271   3.652  19.409  0.00  0.00    +0.000 C 
ATOM      2  C   UNL     1       4.505   4.535  18.164  0.00  0.00    +0.000 C 
ATOM      3  C   UNL     1       4.051   5.979  18.375  0.00  0.00    +0.000 C 
ATOM      4  C   UNL     1       2.568   6.139  18.797  0.00  0.00    +0.000 C 
ATOM      5  C   UNL     1       1.641   5.732  17.628  0.00  0.00    +0.000 C 
ATOM      6  C   UNL     1       2.295   5.201  19.973  0.00  0.00    +0.000 C 
ATOM      7  C   UNL     1       1.646   5.595  21.085  0.00  0.00    +0.000 C 
ATOM      8  C   UNL     1       1.089   6.965  21.313  0.00  0.00    +0.000 C 
ATOM      9  C   UNL     1       1.044   7.827  20.045  0.00  0.00    +0.000 C 
ATOM     10  C   UNL     1       0.904   9.311  20.396  0.00  0.00    +0.000 C 
ATOM     11  C   UNL     1      -0.226   9.779  21.306  0.00  0.00    +0.000 C 
ATOM     12  C   UNL     1      -0.140  11.257  21.043  0.00  0.00    +0.000 C 
ATOM     13  C   UNL     1       0.495  11.533  19.883  0.00  0.00    +0.000 C 
ATOM     14  C   UNL     1       0.815  10.234  19.155  0.00  0.00    +0.000 C 
ATOM     15  C   UNL     1      -0.359   9.878  18.207  0.00  0.00    +0.000 C 
ATOM     16  C   UNL     1       2.168  10.106  18.434  0.00  0.00    +0.000 C 
ATOM     17  C   UNL     1       2.457   8.649  18.038  0.00  0.00    +0.000 C 
ATOM     18  C   UNL     1       2.346   7.643  19.215  0.00  0.00    +0.000 C 
ATOM     19  C   UNL     1       2.784   3.771  19.837  0.00  0.00    +0.000 C 
ENDROOT
BRANCH  13  20
ATOM     20  C   UNL     1       0.795  12.885  19.387  0.00  0.00    +0.000 A 
ATOM     21  C   UNL     1      -0.209  13.827  19.142  0.00  0.00    +0.000 A 
ATOM     22  C   UNL     1       0.091  15.107  18.663  0.00  0.00    +0.000 A 
ATOM     23  C   UNL     1       1.417  15.480  18.416  0.00  0.00    +0.000 A 
ATOM     24  C   UNL     1       1.751  16.759  17.957  0.00  0.00    +0.000 A 
ATOM     25  C   UNL     1       3.086  17.057  17.737  0.00  0.00    +0.000 A 
ATOM     26  N   UNL     1       4.095  16.183  17.929  0.00  0.00    +0.000 NA
ATOM     27  C   UNL     1       3.749  14.951  18.371  0.00  0.00    +0.000 A 
ATOM     28  C   UNL     1       2.439  14.544  18.639  0.00  0.00    +0.000 A 
ATOM     29  C   UNL     1       2.122  13.258  19.115  0.00  0.00    +0.000 A 
ENDBRANCH  13  20
BRANCH   1  31
ATOM     30  C   UNL     1       3.648   1.509  18.377  0.00  0.00    +0.000 C 
ATOM     31  N   UNL     1       4.666   2.237  19.145  0.00  0.00    +0.000 NA
ATOM     32  C   UNL     1       4.937   1.489  20.378  0.00  0.00    +0.000 C 
ENDBRANCH   1  31
TORSDOF 2
ENDMDL
MODEL 7
REMARK VINA RESULT:      -7.5      2.033      3.297
REMARK  Name = 
REMARK  6 active torsions:
REMARK  status: ('A' for Active; 'I' for Inactive)
REMARK    1  A    between atoms: C_1  and  N_2
REMARK    2  A    between atoms: N_2  and  C_3
REMARK    3  A    between atoms: N_2  and  C_4
REMARK    4  A    between atoms: C_7  and  C_8
REMARK    5  A    between atoms: C_16  and  C_17
REMARK    6  A    between atoms: C_27  and  C_28
REMARK                            x       y       z     vdW  Elec       q    Type
REMARK                         _______ _______ _______ _____ _____    ______ ____
ROOT
ATOM      1  C   UNL     1      -2.956  15.867  24.288  0.00  0.00    +0.000 C 
ATOM      2  C   UNL     1      -3.326  14.392  24.552  0.00  0.00    +0.000 C 
ATOM      3  C   UNL     1      -2.409  13.416  23.818  0.00  0.00    +0.000 C 
ATOM      4  C   UNL     1      -2.340  13.618  22.283  0.00  0.00    +0.000 C 
ATOM      5  C   UNL     1      -3.698  13.249  21.641  0.00  0.00    +0.000 C 
ATOM      6  C   UNL     1      -2.063  15.095  22.001  0.00  0.00    +0.000 C 
ATOM      7  C   UNL     1      -1.129  15.509  21.124  0.00  0.00    +0.000 C 
ATOM      8  C   UNL     1      -0.267  14.605  20.300  0.00  0.00    +0.000 C 
ATOM      9  C   UNL     1      -0.734  13.143  20.301  0.00  0.00    +0.000 C 
ATOM     10  C   UNL     1       0.389  12.209  19.842  0.00  0.00    +0.000 C 
ATOM     11  C   UNL     1       1.099  12.459  18.517  0.00  0.00    +0.000 C 
ATOM     12  C   UNL     1       1.802  11.137  18.375  0.00  0.00    +0.000 C 
ATOM     13  C   UNL     1       1.227  10.171  19.125  0.00  0.00    +0.000 C 
ATOM     14  C   UNL     1      -0.032  10.719  19.786  0.00  0.00    +0.000 C 
ATOM     15  C   UNL     1      -1.247  10.457  18.859  0.00  0.00    +0.000 C 
ATOM     16  C   UNL     1      -0.341  10.311  21.235  0.00  0.00    +0.000 C 
ATOM     17  C   UNL     1      -1.447  11.189  21.841  0.00  0.00    +0.000 C 
ATOM     18  C   UNL     1      -1.173  12.713  21.730  0.00  0.00    +0.000 C 
ATOM     19  C   UNL     1      -2.908  16.106  22.755  0.00  0.00    +0.000 C 
ENDROOT
BRANCH  13  20
ATOM     20  C   UNL     1       1.726   8.793  19.251  0.00  0.00    +0.000 A 
ATOM     21  C   UNL     1       1.462   8.006  20.376  0.00  0.00    +0.000 A 
ATOM     22  C   UNL     1       1.948   6.700  20.485  0.00  0.00    +0.000 A 
ATOM     23  C   UNL     1       2.719   6.141  19.459  0.00  0.00    +0.000 A 
ATOM     24  C   UNL     1       3.203   4.829  19.530  0.00  0.00    +0.000 A 
ATOM     25  C   UNL     1       3.958   4.344  18.474  0.00  0.00    +0.000 A 
ATOM     26  N   UNL     1       4.268   5.062  17.375  0.00  0.00    +0.000 NA
ATOM     27  C   UNL     1       3.791   6.329  17.329  0.00  0.00    +0.000 A 
ATOM     28  C   UNL     1       3.011   6.919  18.327  0.00  0.00    +0.000 A 
ATOM     29  C   UNL     1       2.520   8.235  18.235  0.00  0.00    +0.000 A 
ENDBRANCH  13  20
BRANCH   1  31
ATOM     30  C   UNL     1      -5.098  17.065  24.149  0.00  0.00    +0.000 C 
ATOM     31  N   UNL     1      -3.911  16.791  24.968  0.00  0.00    +0.000 NA
ATOM     32  C   UNL     1      -3.293  18.072  25.330  0.00  0.00    +0.000 C 
ENDBRANCH   1  31
TORSDOF 2
ENDMDL
MODEL 8
REMARK VINA RESULT:      -7.4      3.253      9.902
REMARK  Name = 
REMARK  6 active torsions:
REMARK  status: ('A' for Active; 'I' for Inactive)
REMARK    1  A    between atoms: C_1  and  N_2
REMARK    2  A    between atoms: N_2  and  C_3
REMARK    3  A    between atoms: N_2  and  C_4
REMARK    4  A    between atoms: C_7  and  C_8
REMARK    5  A    between atoms: C_16  and  C_17
REMARK    6  A    between atoms: C_27  and  C_28
REMARK                            x       y       z     vdW  Elec       q    Type
REMARK                         _______ _______ _______ _____ _____    ______ ____
ROOT
ATOM      1  C   UNL     1       4.375   5.240  18.308  0.00  0.00    +0.000 C 
ATOM      2  C   UNL     1       4.242   6.303  17.196  0.00  0.00    +0.000 C 
ATOM      3  C   UNL     1       3.680   7.626  17.713  0.00  0.00    +0.000 C 
ATOM      4  C   UNL     1       2.309   7.515  18.427  0.00  0.00    +0.000 C 
ATOM      5  C   UNL     1       1.212   7.136  17.405  0.00  0.00    +0.000 C 
ATOM      6  C   UNL     1       2.396   6.403  19.472  0.00  0.00    +0.000 C 
ATOM      7  C   UNL     1       1.952   6.550  20.734  0.00  0.00    +0.000 C 
ATOM      8  C   UNL     1       1.301   7.784  21.275  0.00  0.00    +0.000 C 
ATOM      9  C   UNL     1       0.895   8.790  20.190  0.00  0.00    +0.000 C 
ATOM     10  C   UNL     1       0.663  10.179  20.790  0.00  0.00    +0.000 C 
ATOM     11  C   UNL     1      -0.299  10.357  21.958  0.00  0.00    +0.000 C 
ATOM     12  C   UNL     1      -0.440  11.853  21.919  0.00  0.00    +0.000 C 
ATOM     13  C   UNL     1      -0.096  12.367  20.718  0.00  0.00    +0.000 C 
ATOM     14  C   UNL     1       0.213  11.234  19.748  0.00  0.00    +0.000 C 
ATOM     15  C   UNL     1      -1.085  10.841  18.995  0.00  0.00    +0.000 C 
ATOM     16  C   UNL     1       1.391  11.397  18.774  0.00  0.00    +0.000 C 
ATOM     17  C   UNL     1       1.756  10.061  18.106  0.00  0.00    +0.000 C 
ATOM     18  C   UNL     1       2.008   8.904  19.110  0.00  0.00    +0.000 C 
ATOM     19  C   UNL     1       3.006   5.087  19.022  0.00  0.00    +0.000 C 
ENDROOT
BRANCH  13  20
ATOM     20  C   UNL     1      -0.063  13.801  20.393  0.00  0.00    +0.000 A 
ATOM     21  C   UNL     1      -1.226  14.533  20.136  0.00  0.00    +0.000 A 
ATOM     22  C   UNL     1      -1.178  15.895  19.820  0.00  0.00    +0.000 A 
ATOM     23  C   UNL     1       0.049  16.566  19.755  0.00  0.00    +0.000 A 
ATOM     24  C   UNL     1       0.128  17.933  19.462  0.00  0.00    +0.000 A 
ATOM     25  C   UNL     1       1.378  18.529  19.417  0.00  0.00    +0.000 A 
ATOM     26  N   UNL     1       2.536  17.871  19.629  0.00  0.00    +0.000 NA
ATOM     27  C   UNL     1       2.435  16.550  19.908  0.00  0.00    +0.000 A 
ATOM     28  C   UNL     1       1.230  15.847  19.992  0.00  0.00    +0.000 A 
ATOM     29  C   UNL     1       1.167  14.475  20.302  0.00  0.00    +0.000 A 
ENDBRANCH  13  20
BRANCH   1  31
ATOM     30  C   UNL     1       5.460   4.096  16.421  0.00  0.00    +0.000 C 
ATOM     31  N   UNL     1       4.866   3.943  17.755  0.00  0.00    +0.000 NA
ATOM     32  C   UNL     1       3.808   2.929  17.677  0.00  0.00    +0.000 C 
ENDBRANCH   1  31
TORSDOF 2
ENDMDL
MODEL 9
REMARK VINA RESULT:      -7.4      2.266      3.726
REMARK  Name = 
REMARK  6 active torsions:
REMARK  status: ('A' for Active; 'I' for Inactive)
REMARK    1  A    between atoms: C_1  and  N_2
REMARK    2  A    between atoms: N_2  and  C_3
REMARK    3  A    between atoms: N_2  and  C_4
REMARK    4  A    between atoms: C_7  and  C_8
REMARK    5  A    between atoms: C_16  and  C_17
REMARK    6  A    between atoms: C_27  and  C_28
REMARK                            x       y       z     vdW  Elec       q    Type
REMARK                         _______ _______ _______ _____ _____    ______ ____
ROOT
ATOM      1  C   UNL     1      -1.570  15.902  22.742  0.00  0.00    +0.000 C 
ATOM      2  C   UNL     1      -2.301  14.582  23.071  0.00  0.00    +0.000 C 
ATOM      3  C   UNL     1      -1.551  13.353  22.562  0.00  0.00    +0.000 C 
ATOM      4  C   UNL     1      -1.250  13.359  21.041  0.00  0.00    +0.000 C 
ATOM      5  C   UNL     1      -2.568  13.223  20.243  0.00  0.00    +0.000 C 
ATOM      6  C   UNL     1      -0.608  14.699  20.680  0.00  0.00    +0.000 C 
ATOM      7  C   UNL     1       0.496  14.797  19.916  0.00  0.00    +0.000 C 
ATOM      8  C   UNL     1       1.220  13.639  19.303  0.00  0.00    +0.000 C 
ATOM      9  C   UNL     1       0.432  12.324  19.358  0.00  0.00    +0.000 C 
ATOM     10  C   UNL     1       1.357  11.123  19.146  0.00  0.00    +0.000 C 
ATOM     11  C   UNL     1       2.261  11.060  17.921  0.00  0.00    +0.000 C 
ATOM     12  C   UNL     1       2.652   9.609  17.993  0.00  0.00    +0.000 C 
ATOM     13  C   UNL     1       1.783   8.883  18.730  0.00  0.00    +0.000 C 
ATOM     14  C   UNL     1       0.613   9.763  19.154  0.00  0.00    +0.000 C 
ATOM     15  C   UNL     1      -0.508   9.668  18.087  0.00  0.00    +0.000 C 
ATOM     16  C   UNL     1       0.044   9.600  20.573  0.00  0.00    +0.000 C 
ATOM     17  C   UNL     1      -0.895  10.760  20.937  0.00  0.00    +0.000 C 
ATOM     18  C   UNL     1      -0.265  12.166  20.740  0.00  0.00    +0.000 C 
ATOM     19  C   UNL     1      -1.282  15.948  21.217  0.00  0.00    +0.000 C 
ENDROOT
BRANCH  13  20
ATOM     20  C   UNL     1       1.931   7.453  19.041  0.00  0.00    +0.000 A 
ATOM     21  C   UNL     1       1.765   6.952  20.335  0.00  0.00    +0.000 A 
ATOM     22  C   UNL     1       1.916   5.591  20.618  0.00  0.00    +0.000 A 
ATOM     23  C   UNL     1       2.239   4.686  19.600  0.00  0.00    +0.000 A 
ATOM     24  C   UNL     1       2.376   3.315  19.847  0.00  0.00    +0.000 A 
ATOM     25  C   UNL     1       2.696   2.480  18.789  0.00  0.00    +0.000 A 
ATOM     26  N   UNL     1       2.894   2.906  17.525  0.00  0.00    +0.000 NA
ATOM     27  C   UNL     1       2.758   4.236  17.309  0.00  0.00    +0.000 A 
ATOM     28  C   UNL     1       2.427   5.170  18.296  0.00  0.00    +0.000 A 
ATOM     29  C   UNL     1       2.278   6.543  18.028  0.00  0.00    +0.000 A 
ENDBRANCH  13  20
BRANCH   1  31
ATOM     30  C   UNL     1      -3.567  17.291  22.385  0.00  0.00    +0.000 C 
ATOM     31  N   UNL     1      -2.362  17.082  23.198  0.00  0.00    +0.000 NA
ATOM     32  C   UNL     1      -1.577  18.322  23.190  0.00  0.00    +0.000 C 
ENDBRANCH   1  31
TORSDOF 2
ENDMDL
