MODEL 1
REMARK VINA RESULT:      -7.7      0.000      0.000
REMARK  Name = 
REMARK  8 active torsions:
REMARK  status: ('A' for Active; 'I' for Inactive)
REMARK    1  A    between atoms: C_1  and  C_2
REMARK    2  A    between atoms: N_4  and  C_5
REMARK    3  A    between atoms: C_8  and  C_9
REMARK    4  A    between atoms: C_9  and  C_10
REMARK    5  A    between atoms: C_10  and  N_11
REMARK    6  A    between atoms: N_14  and  C_15
REMARK    7  A    between atoms: C_17  and  C_18
REMARK    8  A    between atoms: C_21  and  C_22
REMARK                            x       y       z     vdW  Elec       q    Type
REMARK                         _______ _______ _______ _____ _____    ______ ____
ROOT
ATOM      1  N   UNL     1       0.076  10.377  20.090  0.00  0.00    +0.000 NA
ATOM      2  C   UNL     1       0.345  10.070  18.667  0.00  0.00    +0.000 C 
ATOM      3  C   UNL     1       1.720   9.422  18.390  0.00  0.00    +0.000 C 
ATOM      4  N   UNL     1       1.845   8.189  19.182  0.00  0.00    +0.000 N 
ATOM      5  C   UNL     1       1.581   8.348  20.625  0.00  0.00    +0.000 C 
ATOM      6  C   UNL     1       0.257   9.123  20.868  0.00  0.00    +0.000 C 
ENDROOT
BRANCH   4   7
ATOM      7  C   UNL     1       2.473   7.073  18.666  0.00  0.00    +0.000 A 
ATOM      8  C   UNL     1       2.233   5.781  19.158  0.00  0.00    +0.000 A 
ATOM      9  C   UNL     1       2.960   4.668  18.710  0.00  0.00    +0.000 A 
ATOM     10  C   UNL     1       3.949   4.828  17.740  0.00  0.00    +0.000 A 
ATOM     11  C   UNL     1       4.205   6.097  17.209  0.00  0.00    +0.000 A 
ATOM     12  C   UNL     1       3.457   7.196  17.674  0.00  0.00    +0.000 A 
BRANCH  11  13
ATOM     13  C   UNL     1       5.283   6.316  16.175  0.00  0.00    +0.000 C 
ATOM     14  F   UNL     1       6.377   6.964  16.665  0.00  0.00    +0.000 F 
ATOM     15  F   UNL     1       5.741   5.149  15.650  0.00  0.00    +0.000 F 
ATOM     16  F   UNL     1       4.849   7.058  15.121  0.00  0.00    +0.000 F 
ENDBRANCH  11  13
BRANCH   9  17
ATOM     17  C   UNL     1       2.702   3.375  19.271  0.00  0.00    +0.000 C 
ATOM     18  N   UNL     1       2.500   2.322  19.719  0.00  0.00    +0.000 NA
ENDBRANCH   9  17
ENDBRANCH   4   7
BRANCH   1  19
ATOM     19  C   UNL     1       0.916  11.461  20.621  0.00  0.00    +0.000 C 
BRANCH  19  20
ATOM     20  C   UNL     1       0.139  12.673  21.168  0.00  0.00    +0.000 C 
BRANCH  20  24
ATOM     21  C   UNL     1      -4.078  13.008  22.556  0.00  0.00    +0.000 C 
ATOM     22  C   UNL     1      -3.035  12.276  23.410  0.00  0.00    +0.000 C 
ATOM     23  C   UNL     1      -1.588  12.611  23.061  0.00  0.00    +0.000 C 
ATOM     24  C   UNL     1      -1.328  12.410  21.565  0.00  0.00    +0.000 C 
ATOM     25  C   UNL     1      -2.250  13.352  20.777  0.00  0.00    +0.000 C 
ATOM     26  C   UNL     1      -3.724  13.086  21.063  0.00  0.00    +0.000 C 
BRANCH  21  30
ATOM     27  C   UNL     1      -7.734  12.119  23.084  0.00  0.00    +0.000 C 
ATOM     28  C   UNL     1      -6.514  13.001  23.091  0.00  0.00    +0.000 C 
ATOM     29  O   UNL     1      -6.559  14.188  23.392  0.00  0.00    +0.000 OA
ATOM     30  N   UNL     1      -5.368  12.337  22.722  0.00  0.00    +0.000 N 
ATOM     31  H   UNL     1      -5.482  11.436  22.274  0.00  0.00    +0.000 HD
ENDBRANCH  21  30
ENDBRANCH  20  24
ENDBRANCH  19  20
ENDBRANCH   1  19
TORSDOF 7
ENDMDL
MODEL 2
REMARK VINA RESULT:      -7.7      2.557      3.095
REMARK  Name = 
REMARK  8 active torsions:
REMARK  status: ('A' for Active; 'I' for Inactive)
REMARK    1  A    between atoms: C_1  and  C_2
REMARK    2  A    between atoms: N_4  and  C_5
REMARK    3  A    between atoms: C_8  and  C_9
REMARK    4  A    between atoms: C_9  and  C_10
REMARK    5  A    between atoms: C_10  and  N_11
REMARK    6  A    between atoms: N_14  and  C_15
REMARK    7  A    between atoms: C_17  and  C_18
REMARK    8  A    between atoms: C_21  and  C_22
REMARK                            x       y       z     vdW  Elec       q    Type
REMARK                         _______ _______ _______ _____ _____    ______ ____
ROOT
ATOM      1  N   UNL     1       0.182  10.346  19.793  0.00  0.00    +0.000 NA
ATOM      2  C   UNL     1       0.558   9.757  18.488  0.00  0.00    +0.000 C 
ATOM      3  C   UNL     1       1.891   8.976  18.486  0.00  0.00    +0.000 C 
ATOM      4  N   UNL     1       1.832   7.910  19.498  0.00  0.00    +0.000 N 
ATOM      5  C   UNL     1       1.446   8.357  20.851  0.00  0.00    +0.000 C 
ATOM      6  C   UNL     1       0.178   9.253  20.801  0.00  0.00    +0.000 C 
ENDROOT
BRANCH   4   7
ATOM      7  C   UNL     1       2.406   6.676  19.266  0.00  0.00    +0.000 A 
ATOM      8  C   UNL     1       3.297   6.449  18.206  0.00  0.00    +0.000 A 
ATOM      9  C   UNL     1       3.784   5.169  17.905  0.00  0.00    +0.000 A 
ATOM     10  C   UNL     1       3.391   4.076  18.678  0.00  0.00    +0.000 A 
ATOM     11  C   UNL     1       2.520   4.263  19.757  0.00  0.00    +0.000 A 
ATOM     12  C   UNL     1       2.050   5.560  20.038  0.00  0.00    +0.000 A 
BRANCH  11  13
ATOM     13  C   UNL     1       2.052   3.103  20.602  0.00  0.00    +0.000 C 
ATOM     14  F   UNL     1       1.936   1.939  19.905  0.00  0.00    +0.000 F 
ATOM     15  F   UNL     1       2.898   2.841  21.633  0.00  0.00    +0.000 F 
ATOM     16  F   UNL     1       0.834   3.327  21.164  0.00  0.00    +0.000 F 
ENDBRANCH  11  13
BRANCH   9  17
ATOM     17  C   UNL     1       4.662   4.984  16.789  0.00  0.00    +0.000 C 
ATOM     18  N   UNL     1       5.367   4.835  15.876  0.00  0.00    +0.000 NA
ENDBRANCH   9  17
ENDBRANCH   4   7
BRANCH   1  19
ATOM     19  C   UNL     1       1.060  11.451  20.208  0.00  0.00    +0.000 C 
BRANCH  19  20
ATOM     20  C   UNL     1       0.428  12.437  21.209  0.00  0.00    +0.000 C 
BRANCH  20  24
ATOM     21  C   UNL     1      -3.859  12.954  22.293  0.00  0.00    +0.000 C 
ATOM     22  C   UNL     1      -2.915  12.164  23.210  0.00  0.00    +0.000 C 
ATOM     23  C   UNL     1      -1.433  12.434  22.971  0.00  0.00    +0.000 C 
ATOM     24  C   UNL     1      -1.074  12.238  21.495  0.00  0.00    +0.000 C 
ATOM     25  C   UNL     1      -1.892  13.231  20.656  0.00  0.00    +0.000 C 
ATOM     26  C   UNL     1      -3.393  13.031  20.831  0.00  0.00    +0.000 C 
BRANCH  21  30
ATOM     27  C   UNL     1      -7.586  12.216  22.278  0.00  0.00    +0.000 C 
ATOM     28  C   UNL     1      -6.350  13.075  22.315  0.00  0.00    +0.000 C 
ATOM     29  O   UNL     1      -6.395  14.299  22.303  0.00  0.00    +0.000 OA
ATOM     30  N   UNL     1      -5.186  12.342  22.355  0.00  0.00    +0.000 N 
ATOM     31  H   UNL     1      -5.254  11.358  22.126  0.00  0.00    +0.000 HD
ENDBRANCH  21  30
ENDBRANCH  20  24
ENDBRANCH  19  20
ENDBRANCH   1  19
TORSDOF 7
ENDMDL
MODEL 3
REMARK VINA RESULT:      -7.7      1.034      1.360
REMARK  Name = 
REMARK  8 active torsions:
REMARK  status: ('A' for Active; 'I' for Inactive)
REMARK    1  A    between atoms: C_1  and  C_2
REMARK    2  A    between atoms: N_4  and  C_5
REMARK    3  A    between atoms: C_8  and  C_9
REMARK    4  A    between atoms: C_9  and  C_10
REMARK    5  A    between atoms: C_10  and  N_11
REMARK    6  A    between atoms: N_14  and  C_15
REMARK    7  A    between atoms: C_17  and  C_18
REMARK    8  A    between atoms: C_21  and  C_22
REMARK                            x       y       z     vdW  Elec       q    Type
REMARK                         _______ _______ _______ _____ _____    ______ ____
ROOT
ATOM      1  N   UNL     1       0.033  10.533  19.934  0.00  0.00    +0.000 NA
ATOM      2  C   UNL     1       0.459   9.884  18.673  0.00  0.00    +0.000 C 
ATOM      3  C   UNL     1       1.772   9.076  18.768  0.00  0.00    +0.000 C 
ATOM      4  N   UNL     1       1.639   8.053  19.816  0.00  0.00    +0.000 N 
ATOM      5  C   UNL     1       1.199   8.562  21.130  0.00  0.00    +0.000 C 
ATOM      6  C   UNL     1      -0.044   9.482  20.982  0.00  0.00    +0.000 C 
ENDROOT
BRANCH   4   7
ATOM      7  C   UNL     1       2.196   6.799  19.661  0.00  0.00    +0.000 A 
ATOM      8  C   UNL     1       1.888   5.729  20.515  0.00  0.00    +0.000 A 
ATOM      9  C   UNL     1       2.544   4.493  20.425  0.00  0.00    +0.000 A 
ATOM     10  C   UNL     1       3.529   4.298  19.456  0.00  0.00    +0.000 A 
ATOM     11  C   UNL     1       3.851   5.333  18.572  0.00  0.00    +0.000 A 
ATOM     12  C   UNL     1       3.173   6.562  18.683  0.00  0.00    +0.000 A 
BRANCH  11  13
ATOM     13  C   UNL     1       4.928   5.170  17.526  0.00  0.00    +0.000 C 
ATOM     14  F   UNL     1       4.583   5.684  16.312  0.00  0.00    +0.000 F 
ATOM     15  F   UNL     1       6.088   5.785  17.878  0.00  0.00    +0.000 F 
ATOM     16  F   UNL     1       5.245   3.866  17.305  0.00  0.00    +0.000 F 
ENDBRANCH  11  13
BRANCH   9  17
ATOM     17  C   UNL     1       2.220   3.444  21.344  0.00  0.00    +0.000 C 
ATOM     18  N   UNL     1       1.946   2.592  22.088  0.00  0.00    +0.000 NA
ENDBRANCH   9  17
ENDBRANCH   4   7
BRANCH   1  19
ATOM     19  C   UNL     1       0.915  11.636  20.347  0.00  0.00    +0.000 C 
BRANCH  19  20
ATOM     20  C   UNL     1       0.213  12.770  21.118  0.00  0.00    +0.000 C 
BRANCH  20  24
ATOM     21  C   UNL     1      -3.960  13.073  22.639  0.00  0.00    +0.000 C 
ATOM     22  C   UNL     1      -2.937  12.175  23.348  0.00  0.00    +0.000 C 
ATOM     23  C   UNL     1      -1.483  12.496  23.020  0.00  0.00    +0.000 C 
ATOM     24  C   UNL     1      -1.257  12.513  21.505  0.00  0.00    +0.000 C 
ATOM     25  C   UNL     1      -2.147  13.602  20.890  0.00  0.00    +0.000 C 
ATOM     26  C   UNL     1      -3.627  13.360  21.166  0.00  0.00    +0.000 C 
BRANCH  21  30
ATOM     27  C   UNL     1      -7.627  12.249  23.197  0.00  0.00    +0.000 C 
ATOM     28  C   UNL     1      -6.357  13.047  23.328  0.00  0.00    +0.000 C 
ATOM     29  O   UNL     1      -6.312  14.128  23.903  0.00  0.00    +0.000 OA
ATOM     30  N   UNL     1      -5.276  12.441  22.732  0.00  0.00    +0.000 N 
ATOM     31  H   UNL     1      -5.471  11.679  22.092  0.00  0.00    +0.000 HD
ENDBRANCH  21  30
ENDBRANCH  20  24
ENDBRANCH  19  20
ENDBRANCH   1  19
TORSDOF 7
ENDMDL
MODEL 4
REMARK VINA RESULT:      -7.7      2.308      3.087
REMARK  Name = 
REMARK  8 active torsions:
REMARK  status: ('A' for Active; 'I' for Inactive)
REMARK    1  A    between atoms: C_1  and  C_2
REMARK    2  A    between atoms: N_4  and  C_5
REMARK    3  A    between atoms: C_8  and  C_9
REMARK    4  A    between atoms: C_9  and  C_10
REMARK    5  A    between atoms: C_10  and  N_11
REMARK    6  A    between atoms: N_14  and  C_15
REMARK    7  A    between atoms: C_17  and  C_18
REMARK    8  A    between atoms: C_21  and  C_22
REMARK                            x       y       z     vdW  Elec       q    Type
REMARK                         _______ _______ _______ _____ _____    ______ ____
ROOT
ATOM      1  N   UNL     1      -0.361  10.457  19.607  0.00  0.00    +0.000 NA
ATOM      2  C   UNL     1       0.068   9.991  18.269  0.00  0.00    +0.000 C 
ATOM      3  C   UNL     1       1.528   9.493  18.190  0.00  0.00    +0.000 C 
ATOM      4  N   UNL     1       1.726   8.410  19.165  0.00  0.00    +0.000 N 
ATOM      5  C   UNL     1       1.318   8.734  20.546  0.00  0.00    +0.000 C 
ATOM      6  C   UNL     1      -0.104   9.358  20.575  0.00  0.00    +0.000 C 
ENDROOT
BRANCH   4   7
ATOM      7  C   UNL     1       2.524   7.323  18.868  0.00  0.00    +0.000 A 
ATOM      8  C   UNL     1       3.415   7.318  17.784  0.00  0.00    +0.000 A 
ATOM      9  C   UNL     1       4.135   6.171  17.418  0.00  0.00    +0.000 A 
ATOM     10  C   UNL     1       3.982   4.993  18.148  0.00  0.00    +0.000 A 
ATOM     11  C   UNL     1       3.118   4.961  19.248  0.00  0.00    +0.000 A 
ATOM     12  C   UNL     1       2.412   6.128  19.595  0.00  0.00    +0.000 A 
BRANCH  11  13
ATOM     13  C   UNL     1       2.907   3.699  20.049  0.00  0.00    +0.000 C 
ATOM     14  F   UNL     1       2.074   2.808  19.443  0.00  0.00    +0.000 F 
ATOM     15  F   UNL     1       4.069   3.031  20.277  0.00  0.00    +0.000 F 
ATOM     16  F   UNL     1       2.367   3.944  21.273  0.00  0.00    +0.000 F 
ENDBRANCH  11  13
BRANCH   9  17
ATOM     17  C   UNL     1       5.004   6.208  16.281  0.00  0.00    +0.000 C 
ATOM     18  N   UNL     1       5.712   6.248  15.358  0.00  0.00    +0.000 NA
ENDBRANCH   9  17
ENDBRANCH   4   7
BRANCH   1  19
ATOM     19  C   UNL     1       0.296  11.704  20.028  0.00  0.00    +0.000 C 
BRANCH  19  20
ATOM     20  C   UNL     1       0.155  12.036  21.525  0.00  0.00    +0.000 C 
BRANCH  20  24
ATOM     21  C   UNL     1      -4.156  12.702  22.417  0.00  0.00    +0.000 C 
ATOM     22  C   UNL     1      -3.473  13.459  21.270  0.00  0.00    +0.000 C 
ATOM     23  C   UNL     1      -2.168  12.833  20.791  0.00  0.00    +0.000 C 
ATOM     24  C   UNL     1      -1.208  12.609  21.963  0.00  0.00    +0.000 C 
ATOM     25  C   UNL     1      -1.871  11.650  22.962  0.00  0.00    +0.000 C 
ATOM     26  C   UNL     1      -3.189  12.199  23.499  0.00  0.00    +0.000 C 
BRANCH  21  30
ATOM     27  C   UNL     1      -7.235  14.209  24.056  0.00  0.00    +0.000 C 
ATOM     28  C   UNL     1      -6.428  13.159  23.340  0.00  0.00    +0.000 C 
ATOM     29  O   UNL     1      -6.871  12.047  23.082  0.00  0.00    +0.000 OA
ATOM     30  N   UNL     1      -5.158  13.581  23.022  0.00  0.00    +0.000 N 
ATOM     31  H   UNL     1      -4.822  14.418  23.482  0.00  0.00    +0.000 HD
ENDBRANCH  21  30
ENDBRANCH  20  24
ENDBRANCH  19  20
ENDBRANCH   1  19
TORSDOF 7
ENDMDL
MODEL 5
REMARK VINA RESULT:      -7.7      2.266      3.071
REMARK  Name = 
REMARK  8 active torsions:
REMARK  status: ('A' for Active; 'I' for Inactive)
REMARK    1  A    between atoms: C_1  and  C_2
REMARK    2  A    between atoms: N_4  and  C_5
REMARK    3  A    between atoms: C_8  and  C_9
REMARK    4  A    between atoms: C_9  and  C_10
REMARK    5  A    between atoms: C_10  and  N_11
REMARK    6  A    between atoms: N_14  and  C_15
REMARK    7  A    between atoms: C_17  and  C_18
REMARK    8  A    between atoms: C_21  and  C_22
REMARK                            x       y       z     vdW  Elec       q    Type
REMARK                         _______ _______ _______ _____ _____    ______ ____
ROOT
ATOM      1  N   UNL     1       0.207  10.028  19.354  0.00  0.00    +0.000 NA
ATOM      2  C   UNL     1       0.583   9.625  17.980  0.00  0.00    +0.000 C 
ATOM      3  C   UNL     1       2.001   9.029  17.842  0.00  0.00    +0.000 C 
ATOM      4  N   UNL     1       2.131   7.869  18.737  0.00  0.00    +0.000 N 
ATOM      5  C   UNL     1       1.767   8.127  20.144  0.00  0.00    +0.000 C 
ATOM      6  C   UNL     1       0.396   8.850  20.241  0.00  0.00    +0.000 C 
ENDROOT
BRANCH   4   7
ATOM      7  C   UNL     1       2.843   6.750  18.354  0.00  0.00    +0.000 A 
ATOM      8  C   UNL     1       4.098   6.834  17.733  0.00  0.00    +0.000 A 
ATOM      9  C   UNL     1       4.761   5.700  17.240  0.00  0.00    +0.000 A 
ATOM     10  C   UNL     1       4.176   4.441  17.372  0.00  0.00    +0.000 A 
ATOM     11  C   UNL     1       2.934   4.312  18.003  0.00  0.00    +0.000 A 
ATOM     12  C   UNL     1       2.293   5.466  18.492  0.00  0.00    +0.000 A 
BRANCH  11  13
ATOM     13  C   UNL     1       2.256   2.970  18.143  0.00  0.00    +0.000 C 
ATOM     14  F   UNL     1       2.732   2.232  19.184  0.00  0.00    +0.000 F 
ATOM     15  F   UNL     1       0.917   3.087  18.346  0.00  0.00    +0.000 F 
ATOM     16  F   UNL     1       2.403   2.195  17.036  0.00  0.00    +0.000 F 
ENDBRANCH  11  13
BRANCH   9  17
ATOM     17  C   UNL     1       6.024   5.843  16.580  0.00  0.00    +0.000 C 
ATOM     18  N   UNL     1       7.052   5.968  16.050  0.00  0.00    +0.000 NA
ENDBRANCH   9  17
ENDBRANCH   4   7
BRANCH   1  19
ATOM     19  C   UNL     1       0.960  11.192  19.845  0.00  0.00    +0.000 C 
BRANCH  19  20
ATOM     20  C   UNL     1       0.768  11.501  21.342  0.00  0.00    +0.000 C 
BRANCH  20  24
ATOM     21  C   UNL     1      -3.459  12.703  22.057  0.00  0.00    +0.000 C 
ATOM     22  C   UNL     1      -2.651  13.342  20.919  0.00  0.00    +0.000 C 
ATOM     23  C   UNL     1      -1.415  12.551  20.504  0.00  0.00    +0.000 C 
ATOM     24  C   UNL     1      -0.530  12.245  21.716  0.00  0.00    +0.000 C 
ATOM     25  C   UNL     1      -1.338  11.400  22.711  0.00  0.00    +0.000 C 
ATOM     26  C   UNL     1      -2.597  12.118  23.186  0.00  0.00    +0.000 C 
BRANCH  21  30
ATOM     27  C   UNL     1      -6.307  14.590  23.720  0.00  0.00    +0.000 C 
ATOM     28  C   UNL     1      -5.607  13.404  23.113  0.00  0.00    +0.000 C 
ATOM     29  O   UNL     1      -6.105  12.284  23.090  0.00  0.00    +0.000 OA
ATOM     30  N   UNL     1      -4.367  13.712  22.604  0.00  0.00    +0.000 N 
ATOM     31  H   UNL     1      -3.963  14.597  22.882  0.00  0.00    +0.000 HD
ENDBRANCH  21  30
ENDBRANCH  20  24
ENDBRANCH  19  20
ENDBRANCH   1  19
TORSDOF 7
ENDMDL
MODEL 6
REMARK VINA RESULT:      -7.6      2.223      2.872
REMARK  Name = 
REMARK  8 active torsions:
REMARK  status: ('A' for Active; 'I' for Inactive)
REMARK    1  A    between atoms: C_1  and  C_2
REMARK    2  A    between atoms: N_4  and  C_5
REMARK    3  A    between atoms: C_8  and  C_9
REMARK    4  A    between atoms: C_9  and  C_10
REMARK    5  A    between atoms: C_10  and  N_11
REMARK    6  A    between atoms: N_14  and  C_15
REMARK    7  A    between atoms: C_17  and  C_18
REMARK    8  A    between atoms: C_21  and  C_22
REMARK                            x       y       z     vdW  Elec       q    Type
REMARK                         _______ _______ _______ _____ _____    ______ ____
ROOT
ATOM      1  N   UNL     1       0.021  10.420  19.727  0.00  0.00    +0.000 NA
ATOM      2  C   UNL     1       0.319   9.982  18.344  0.00  0.00    +0.000 C 
ATOM      3  C   UNL     1       1.721   9.363  18.146  0.00  0.00    +0.000 C 
ATOM      4  N   UNL     1       1.882   8.221  19.059  0.00  0.00    +0.000 N 
ATOM      5  C   UNL     1       1.595   8.514  20.477  0.00  0.00    +0.000 C 
ATOM      6  C   UNL     1       0.240   9.259  20.629  0.00  0.00    +0.000 C 
ENDROOT
BRANCH   4   7
ATOM      7  C   UNL     1       2.558   7.084  18.664  0.00  0.00    +0.000 A 
ATOM      8  C   UNL     1       3.576   7.112  17.699  0.00  0.00    +0.000 A 
ATOM      9  C   UNL     1       4.176   5.939  17.217  0.00  0.00    +0.000 A 
ATOM     10  C   UNL     1       3.769   4.698  17.708  0.00  0.00    +0.000 A 
ATOM     11  C   UNL     1       2.771   4.629  18.686  0.00  0.00    +0.000 A 
ATOM     12  C   UNL     1       2.189   5.822  19.154  0.00  0.00    +0.000 A 
BRANCH  11  13
ATOM     13  C   UNL     1       2.286   3.304  19.225  0.00  0.00    +0.000 C 
ATOM     14  F   UNL     1       1.652   3.410  20.426  0.00  0.00    +0.000 F 
ATOM     15  F   UNL     1       1.405   2.697  18.387  0.00  0.00    +0.000 F 
ATOM     16  F   UNL     1       3.300   2.417  19.412  0.00  0.00    +0.000 F 
ENDBRANCH  11  13
BRANCH   9  17
ATOM     17  C   UNL     1       5.185   6.019  16.204  0.00  0.00    +0.000 C 
ATOM     18  N   UNL     1       6.012   6.086  15.389  0.00  0.00    +0.000 NA
ENDBRANCH   9  17
ENDBRANCH   4   7
BRANCH   1  19
ATOM     19  C   UNL     1       0.814  11.584  20.153  0.00  0.00    +0.000 C 
BRANCH  19  20
ATOM     20  C   UNL     1       0.260  12.328  21.382  0.00  0.00    +0.000 C 
BRANCH  20  24
ATOM     21  C   UNL     1      -4.048  12.974  22.301  0.00  0.00    +0.000 C 
ATOM     22  C   UNL     1      -3.137  12.258  23.307  0.00  0.00    +0.000 C 
ATOM     23  C   UNL     1      -1.647  12.494  23.087  0.00  0.00    +0.000 C 
ATOM     24  C   UNL     1      -1.251  12.168  21.643  0.00  0.00    +0.000 C 
ATOM     25  C   UNL     1      -2.035  13.091  20.700  0.00  0.00    +0.000 C 
ATOM     26  C   UNL     1      -3.543  12.921  20.850  0.00  0.00    +0.000 C 
BRANCH  21  30
ATOM     27  C   UNL     1      -7.775  12.245  22.171  0.00  0.00    +0.000 C 
ATOM     28  C   UNL     1      -6.534  13.097  22.143  0.00  0.00    +0.000 C 
ATOM     29  O   UNL     1      -6.565  14.302  21.925  0.00  0.00    +0.000 OA
ATOM     30  N   UNL     1      -5.383  12.382  22.379  0.00  0.00    +0.000 N 
ATOM     31  H   UNL     1      -5.447  11.373  22.314  0.00  0.00    +0.000 HD
ENDBRANCH  21  30
ENDBRANCH  20  24
ENDBRANCH  19  20
ENDBRANCH   1  19
TORSDOF 7
ENDMDL
MODEL 7
REMARK VINA RESULT:      -7.6      0.787      1.395
REMARK  Name = 
REMARK  8 active torsions:
REMARK  status: ('A' for Active; 'I' for Inactive)
REMARK    1  A    between atoms: C_1  and  C_2
REMARK    2  A    between atoms: N_4  and  C_5
REMARK    3  A    between atoms: C_8  and  C_9
REMARK    4  A    between atoms: C_9  and  C_10
REMARK    5  A    between atoms: C_10  and  N_11
REMARK    6  A    between atoms: N_14  and  C_15
REMARK    7  A    between atoms: C_17  and  C_18
REMARK    8  A    between atoms: C_21  and  C_22
REMARK                            x       y       z     vdW  Elec       q    Type
REMARK                         _______ _______ _______ _____ _____    ______ ____
ROOT
ATOM      1  N   UNL     1      -0.394  10.483  19.609  0.00  0.00    +0.000 NA
ATOM      2  C   UNL     1      -0.011  10.021  18.256  0.00  0.00    +0.000 C 
ATOM      3  C   UNL     1       1.442   9.509  18.131  0.00  0.00    +0.000 C 
ATOM      4  N   UNL     1       1.658   8.418  19.093  0.00  0.00    +0.000 N 
ATOM      5  C   UNL     1       1.296   8.739  20.488  0.00  0.00    +0.000 C 
ATOM      6  C   UNL     1      -0.119   9.377  20.563  0.00  0.00    +0.000 C 
ENDROOT
BRANCH   4   7
ATOM      7  C   UNL     1       2.436   7.326  18.767  0.00  0.00    +0.000 A 
ATOM      8  C   UNL     1       2.356   6.111  19.464  0.00  0.00    +0.000 A 
ATOM      9  C   UNL     1       3.230   5.045  19.204  0.00  0.00    +0.000 A 
ATOM     10  C   UNL     1       4.209   5.174  18.218  0.00  0.00    +0.000 A 
ATOM     11  C   UNL     1       4.308   6.362  17.486  0.00  0.00    +0.000 A 
ATOM     12  C   UNL     1       3.415   7.413  17.765  0.00  0.00    +0.000 A 
BRANCH  11  13
ATOM     13  C   UNL     1       5.369   6.549  16.428  0.00  0.00    +0.000 C 
ATOM     14  F   UNL     1       6.014   5.395  16.100  0.00  0.00    +0.000 F 
ATOM     15  F   UNL     1       4.859   7.037  15.266  0.00  0.00    +0.000 F 
ATOM     16  F   UNL     1       6.336   7.424  16.810  0.00  0.00    +0.000 F 
ENDBRANCH  11  13
BRANCH   9  17
ATOM     17  C   UNL     1       3.132   3.839  19.970  0.00  0.00    +0.000 C 
ATOM     18  N   UNL     1       3.061   2.856  20.587  0.00  0.00    +0.000 NA
ENDBRANCH   9  17
ENDBRANCH   4   7
BRANCH   1  19
ATOM     19  C   UNL     1       0.287  11.722  20.016  0.00  0.00    +0.000 C 
BRANCH  19  20
ATOM     20  C   UNL     1       0.149  12.075  21.509  0.00  0.00    +0.000 C 
BRANCH  20  24
ATOM     21  C   UNL     1      -4.157  12.810  22.365  0.00  0.00    +0.000 C 
ATOM     22  C   UNL     1      -3.451  13.564  21.231  0.00  0.00    +0.000 C 
ATOM     23  C   UNL     1      -2.152  12.919  20.759  0.00  0.00    +0.000 C 
ATOM     24  C   UNL     1      -1.207  12.668  21.939  0.00  0.00    +0.000 C 
ATOM     25  C   UNL     1      -1.897  11.713  22.923  0.00  0.00    +0.000 C 
ATOM     26  C   UNL     1      -3.210  12.280  23.453  0.00  0.00    +0.000 C 
BRANCH  21  30
ATOM     27  C   UNL     1      -7.200  14.347  24.043  0.00  0.00    +0.000 C 
ATOM     28  C   UNL     1      -6.404  13.279  23.342  0.00  0.00    +0.000 C 
ATOM     29  O   UNL     1      -6.843  12.153  23.140  0.00  0.00    +0.000 OA
ATOM     30  N   UNL     1      -5.149  13.700  22.968  0.00  0.00    +0.000 N 
ATOM     31  H   UNL     1      -4.809  14.558  23.386  0.00  0.00    +0.000 HD
ENDBRANCH  21  30
ENDBRANCH  20  24
ENDBRANCH  19  20
ENDBRANCH   1  19
TORSDOF 7
ENDMDL
MODEL 8
REMARK VINA RESULT:      -7.6      2.568      3.190
REMARK  Name = 
REMARK  8 active torsions:
REMARK  status: ('A' for Active; 'I' for Inactive)
REMARK    1  A    between atoms: C_1  and  C_2
REMARK    2  A    between atoms: N_4  and  C_5
REMARK    3  A    between atoms: C_8  and  C_9
REMARK    4  A    between atoms: C_9  and  C_10
REMARK    5  A    between atoms: C_10  and  N_11
REMARK    6  A    between atoms: N_14  and  C_15
REMARK    7  A    between atoms: C_17  and  C_18
REMARK    8  A    between atoms: C_21  and  C_22
REMARK                            x       y       z     vdW  Elec       q    Type
REMARK                         _______ _______ _______ _____ _____    ______ ____
ROOT
ATOM      1  N   UNL     1       0.306  10.054  19.371  0.00  0.00    +0.000 NA
ATOM      2  C   UNL     1       0.636   9.642  17.988  0.00  0.00    +0.000 C 
ATOM      3  C   UNL     1       2.041   9.024  17.810  0.00  0.00    +0.000 C 
ATOM      4  N   UNL     1       2.179   7.865  18.705  0.00  0.00    +0.000 N 
ATOM      5  C   UNL     1       1.860   8.131  20.121  0.00  0.00    +0.000 C 
ATOM      6  C   UNL     1       0.503   8.875  20.256  0.00  0.00    +0.000 C 
ENDROOT
BRANCH   4   7
ATOM      7  C   UNL     1       2.862   6.734  18.305  0.00  0.00    +0.000 A 
ATOM      8  C   UNL     1       4.098   6.797  17.642  0.00  0.00    +0.000 A 
ATOM      9  C   UNL     1       4.729   5.652  17.134  0.00  0.00    +0.000 A 
ATOM     10  C   UNL     1       4.131   4.402  17.291  0.00  0.00    +0.000 A 
ATOM     11  C   UNL     1       2.909   4.293  17.964  0.00  0.00    +0.000 A 
ATOM     12  C   UNL     1       2.300   5.459  18.467  0.00  0.00    +0.000 A 
BRANCH  11  13
ATOM     13  C   UNL     1       2.218   2.962  18.133  0.00  0.00    +0.000 C 
ATOM     14  F   UNL     1       2.577   2.308  19.273  0.00  0.00    +0.000 F 
ATOM     15  F   UNL     1       0.865   3.084  18.181  0.00  0.00    +0.000 F 
ATOM     16  F   UNL     1       2.481   2.105  17.111  0.00  0.00    +0.000 F 
ENDBRANCH  11  13
BRANCH   9  17
ATOM     17  C   UNL     1       5.971   5.775  16.433  0.00  0.00    +0.000 C 
ATOM     18  N   UNL     1       6.983   5.864  15.867  0.00  0.00    +0.000 NA
ENDBRANCH   9  17
ENDBRANCH   4   7
BRANCH   1  19
ATOM     19  C   UNL     1       1.091  11.208  19.837  0.00  0.00    +0.000 C 
BRANCH  19  20
ATOM     20  C   UNL     1       0.913  11.550  21.328  0.00  0.00    +0.000 C 
BRANCH  20  24
ATOM     21  C   UNL     1      -2.444  13.606  23.407  0.00  0.00    +0.000 C 
ATOM     22  C   UNL     1      -2.477  12.088  23.193  0.00  0.00    +0.000 C 
ATOM     23  C   UNL     1      -1.118  11.465  22.890  0.00  0.00    +0.000 C 
ATOM     24  C   UNL     1      -0.439  12.181  21.718  0.00  0.00    +0.000 C 
ATOM     25  C   UNL     1      -0.227  13.653  22.101  0.00  0.00    +0.000 C 
ATOM     26  C   UNL     1      -1.540  14.360  22.419  0.00  0.00    +0.000 C 
BRANCH  21  30
ATOM     27  C   UNL     1      -5.690  15.551  23.757  0.00  0.00    +0.000 C 
ATOM     28  C   UNL     1      -4.295  15.117  24.123  0.00  0.00    +0.000 C 
ATOM     29  O   UNL     1      -3.668  15.620  25.047  0.00  0.00    +0.000 OA
ATOM     30  N   UNL     1      -3.812  14.118  23.311  0.00  0.00    +0.000 N 
ATOM     31  H   UNL     1      -4.312  13.945  22.447  0.00  0.00    +0.000 HD
ENDBRANCH  21  30
ENDBRANCH  20  24
ENDBRANCH  19  20
ENDBRANCH   1  19
TORSDOF 7
ENDMDL
MODEL 9
REMARK VINA RESULT:      -7.5      1.082      1.854
REMARK  Name = 
REMARK  8 active torsions:
REMARK  status: ('A' for Active; 'I' for Inactive)
REMARK    1  A    between atoms: C_1  and  C_2
REMARK    2  A    between atoms: N_4  and  C_5
REMARK    3  A    between atoms: C_8  and  C_9
REMARK    4  A    between atoms: C_9  and  C_10
REMARK    5  A    between atoms: C_10  and  N_11
REMARK    6  A    between atoms: N_14  and  C_15
REMARK    7  A    between atoms: C_17  and  C_18
REMARK    8  A    between atoms: C_21  and  C_22
REMARK                            x       y       z     vdW  Elec       q    Type
REMARK                         _______ _______ _______ _____ _____    ______ ____
ROOT
ATOM      1  N   UNL     1       0.751  11.018  20.478  0.00  0.00    +0.000 NA
ATOM      2  C   UNL     1       1.223   9.876  21.293  0.00  0.00    +0.000 C 
ATOM      3  C   UNL     1       1.053   8.490  20.632  0.00  0.00    +0.000 C 
ATOM      4  N   UNL     1       1.751   8.480  19.337  0.00  0.00    +0.000 N 
ATOM      5  C   UNL     1       1.387   9.584  18.426  0.00  0.00    +0.000 C 
ATOM      6  C   UNL     1       1.437  10.951  19.161  0.00  0.00    +0.000 C 
ENDROOT
BRANCH   4   7
ATOM      7  C   UNL     1       2.425   7.358  18.901  0.00  0.00    +0.000 A 
ATOM      8  C   UNL     1       2.276   6.104  19.514  0.00  0.00    +0.000 A 
ATOM      9  C   UNL     1       3.052   4.997  19.142  0.00  0.00    +0.000 A 
ATOM     10  C   UNL     1       3.999   5.121  18.126  0.00  0.00    +0.000 A 
ATOM     11  C   UNL     1       4.165   6.348  17.475  0.00  0.00    +0.000 A 
ATOM     12  C   UNL     1       3.370   7.442  17.866  0.00  0.00    +0.000 A 
BRANCH  11  13
ATOM     13  C   UNL     1       5.196   6.530  16.387  0.00  0.00    +0.000 C 
ATOM     14  F   UNL     1       5.786   5.365  16.002  0.00  0.00    +0.000 F 
ATOM     15  F   UNL     1       4.666   7.074  15.260  0.00  0.00    +0.000 F 
ATOM     16  F   UNL     1       6.208   7.357  16.763  0.00  0.00    +0.000 F 
ENDBRANCH  11  13
BRANCH   9  17
ATOM     17  C   UNL     1       2.886   3.749  19.826  0.00  0.00    +0.000 C 
ATOM     18  N   UNL     1       2.754   2.730  20.371  0.00  0.00    +0.000 NA
ENDBRANCH   9  17
ENDBRANCH   4   7
BRANCH   1  19
ATOM     19  C   UNL     1      -0.711  11.053  20.317  0.00  0.00    +0.000 C 
BRANCH  19  20
ATOM     20  C   UNL     1      -1.286  12.430  19.936  0.00  0.00    +0.000 C 
BRANCH  20  24
ATOM     21  C   UNL     1      -5.134  12.567  22.172  0.00  0.00    +0.000 C 
ATOM     22  C   UNL     1      -5.073  13.003  20.702  0.00  0.00    +0.000 C 
ATOM     23  C   UNL     1      -3.848  12.499  19.946  0.00  0.00    +0.000 C 
ATOM     24  C   UNL     1      -2.560  12.861  20.691  0.00  0.00    +0.000 C 
ATOM     25  C   UNL     1      -2.589  12.192  22.073  0.00  0.00    +0.000 C 
ATOM     26  C   UNL     1      -3.785  12.642  22.905  0.00  0.00    +0.000 C 
BRANCH  21  30
ATOM     27  C   UNL     1      -7.896  13.950  24.385  0.00  0.00    +0.000 C 
ATOM     28  C   UNL     1      -7.076  12.886  23.703  0.00  0.00    +0.000 C 
ATOM     29  O   UNL     1      -7.256  11.690  23.895  0.00  0.00    +0.000 OA
ATOM     30  N   UNL     1      -6.117  13.401  22.864  0.00  0.00    +0.000 N 
ATOM     31  H   UNL     1      -5.903  14.387  22.960  0.00  0.00    +0.000 HD
ENDBRANCH  21  30
ENDBRANCH  20  24
ENDBRANCH  19  20
ENDBRANCH   1  19
TORSDOF 7
ENDMDL
