MODEL 1
REMARK VINA RESULT:      -8.7      0.000      0.000
REMARK  Name = 
REMARK  8 active torsions:
REMARK  status: ('A' for Active; 'I' for Inactive)
REMARK    1  A    between atoms: C_1  and  N_2
REMARK    2  A    between atoms: N_5  and  C_6
REMARK    3  A    between atoms: C_6  and  C_7
REMARK    4  A    between atoms: C_7  and  C_8
REMARK    5  A    between atoms: C_7  and  C_9
REMARK    6  A    between atoms: C_7  and  C_10
REMARK    7  A    between atoms: C_14  and  C_15
REMARK    8  A    between atoms: C_23  and  C_25
REMARK                            x       y       z     vdW  Elec       q    Type
REMARK                         _______ _______ _______ _____ _____    ______ ____
ROOT
ATOM      1  C   UNL     1       0.090   9.363  23.086  0.00  0.00    +0.000 C 
ATOM      2  N   UNL     1       0.244  10.110  21.874  0.00  0.00    +0.000 N 
ATOM      3  C   UNL     1      -0.063  11.473  21.696  0.00  0.00    +0.000 A 
ATOM      4  O   UNL     1      -0.480  12.250  22.540  0.00  0.00    +0.000 OA
ATOM      5  N   UNL     1       0.221  11.769  20.343  0.00  0.00    +0.000 N 
ATOM      6  C   UNL     1       0.711  10.610  19.738  0.00  0.00    +0.000 A 
ATOM      7  C   UNL     1       1.127  10.387  18.450  0.00  0.00    +0.000 A 
ATOM      8  C   UNL     1       1.620   9.119  18.178  0.00  0.00    +0.000 A 
ATOM      9  C   UNL     1       1.719   8.165  19.208  0.00  0.00    +0.000 A 
ATOM     10  N   UNL     1       1.250   8.368  20.470  0.00  0.00    +0.000 NA
ATOM     11  C   UNL     1       0.753   9.593  20.684  0.00  0.00    +0.000 A 
ENDROOT
BRANCH   9  12
ATOM     12  C   UNL     1       2.477   6.933  18.982  0.00  0.00    +0.000 C 
ATOM     13  C   UNL     1       3.397   6.430  19.834  0.00  0.00    +0.000 C 
ATOM     14  C   UNL     1       3.949   5.074  19.464  0.00  0.00    +0.000 C 
ATOM     15  C   UNL     1       2.738   4.116  19.346  0.00  0.00    +0.000 C 
ATOM     16  C   UNL     1       1.721   4.674  18.315  0.00  0.00    +0.000 C 
ATOM     17  C   UNL     1       2.216   6.035  17.783  0.00  0.00    +0.000 C 
ATOM     18  C   UNL     1       3.597   5.787  17.132  0.00  0.00    +0.000 C 
ATOM     19  N   UNL     1       4.544   5.233  18.127  0.00  0.00    +0.000 N 
ATOM     20  C   UNL     1       5.808   4.698  17.879  0.00  0.00    +0.000 C 
ATOM     21  O   UNL     1       6.499   4.209  18.774  0.00  0.00    +0.000 OA
BRANCH  20  22
ATOM     22  C   UNL     1       6.339   4.614  16.493  0.00  0.00    +0.000 A 
ATOM     23  C   UNL     1       5.759   3.703  15.604  0.00  0.00    +0.000 A 
ATOM     24  C   UNL     1       6.150   3.696  14.265  0.00  0.00    +0.000 A 
ATOM     25  C   UNL     1       7.112   4.603  13.855  0.00  0.00    +0.000 A 
ATOM     26  N   UNL     1       7.752   5.438  14.698  0.00  0.00    +0.000 NA
ATOM     27  C   UNL     1       7.374   5.392  16.001  0.00  0.00    +0.000 A 
ENDBRANCH  20  22
ENDBRANCH   9  12
BRANCH   5  28
ATOM     28  C   UNL     1       0.162  13.068  19.722  0.00  0.00    +0.000 C 
BRANCH  28  29
ATOM     29  C   UNL     1       1.465  13.903  19.801  0.00  0.00    +0.000 C 
ATOM     30  C   UNL     1       2.114  14.013  18.412  0.00  0.00    +0.000 C 
ATOM     31  C   UNL     1       1.085  15.307  20.314  0.00  0.00    +0.000 C 
ATOM     32  C   UNL     1       2.496  13.309  20.777  0.00  0.00    +0.000 C 
ENDBRANCH  28  29
ENDBRANCH   5  28
TORSDOF 4
ENDMDL
MODEL 2
REMARK VINA RESULT:      -8.6      0.806      1.305
REMARK  Name = 
REMARK  8 active torsions:
REMARK  status: ('A' for Active; 'I' for Inactive)
REMARK    1  A    between atoms: C_1  and  N_2
REMARK    2  A    between atoms: N_5  and  C_6
REMARK    3  A    between atoms: C_6  and  C_7
REMARK    4  A    between atoms: C_7  and  C_8
REMARK    5  A    between atoms: C_7  and  C_9
REMARK    6  A    between atoms: C_7  and  C_10
REMARK    7  A    between atoms: C_14  and  C_15
REMARK    8  A    between atoms: C_23  and  C_25
REMARK                            x       y       z     vdW  Elec       q    Type
REMARK                         _______ _______ _______ _____ _____    ______ ____
ROOT
ATOM      1  C   UNL     1      -0.180   9.234  23.253  0.00  0.00    +0.000 C 
ATOM      2  N   UNL     1       0.136  10.080  22.141  0.00  0.00    +0.000 N 
ATOM      3  C   UNL     1      -0.050  11.475  22.082  0.00  0.00    +0.000 A 
ATOM      4  O   UNL     1      -0.479  12.199  22.966  0.00  0.00    +0.000 OA
ATOM      5  N   UNL     1       0.373  11.875  20.794  0.00  0.00    +0.000 N 
ATOM      6  C   UNL     1       0.825  10.743  20.113  0.00  0.00    +0.000 A 
ATOM      7  C   UNL     1       1.334  10.613  18.846  0.00  0.00    +0.000 A 
ATOM      8  C   UNL     1       1.751   9.340  18.483  0.00  0.00    +0.000 A 
ATOM      9  C   UNL     1       1.687   8.285  19.413  0.00  0.00    +0.000 A 
ATOM     10  N   UNL     1       1.126   8.403  20.648  0.00  0.00    +0.000 NA
ATOM     11  C   UNL     1       0.707   9.640  20.949  0.00  0.00    +0.000 A 
ENDROOT
BRANCH   9  12
ATOM     12  C   UNL     1       2.366   7.021  19.122  0.00  0.00    +0.000 C 
ATOM     13  C   UNL     1       3.184   6.373  19.981  0.00  0.00    +0.000 C 
ATOM     14  C   UNL     1       3.659   5.015  19.521  0.00  0.00    +0.000 C 
ATOM     15  C   UNL     1       2.392   4.171  19.236  0.00  0.00    +0.000 C 
ATOM     16  C   UNL     1       1.494   4.898  18.199  0.00  0.00    +0.000 C 
ATOM     17  C   UNL     1       2.126   6.257  17.829  0.00  0.00    +0.000 C 
ATOM     18  C   UNL     1       3.527   5.958  17.248  0.00  0.00    +0.000 C 
ATOM     19  N   UNL     1       4.357   5.244  18.246  0.00  0.00    +0.000 N 
ATOM     20  C   UNL     1       5.593   4.634  18.030  0.00  0.00    +0.000 C 
ATOM     21  O   UNL     1       6.181   4.013  18.918  0.00  0.00    +0.000 OA
BRANCH  20  22
ATOM     22  C   UNL     1       6.213   4.630  16.679  0.00  0.00    +0.000 A 
ATOM     23  C   UNL     1       5.759   3.707  15.731  0.00  0.00    +0.000 A 
ATOM     24  C   UNL     1       6.230   3.770  14.420  0.00  0.00    +0.000 A 
ATOM     25  C   UNL     1       7.147   4.756  14.096  0.00  0.00    +0.000 A 
ATOM     26  N   UNL     1       7.670   5.608  15.000  0.00  0.00    +0.000 NA
ATOM     27  C   UNL     1       7.217   5.496  16.274  0.00  0.00    +0.000 A 
ENDBRANCH  20  22
ENDBRANCH   9  12
BRANCH   5  28
ATOM     28  C   UNL     1       0.467  13.228  20.308  0.00  0.00    +0.000 C 
BRANCH  28  29
ATOM     29  C   UNL     1      -0.805  13.775  19.611  0.00  0.00    +0.000 C 
ATOM     30  C   UNL     1      -1.740  14.429  20.641  0.00  0.00    +0.000 C 
ATOM     31  C   UNL     1      -0.351  14.824  18.577  0.00  0.00    +0.000 C 
ATOM     32  C   UNL     1      -1.589  12.684  18.862  0.00  0.00    +0.000 C 
ENDBRANCH  28  29
ENDBRANCH   5  28
TORSDOF 4
ENDMDL
MODEL 3
REMARK VINA RESULT:      -8.2      1.498      2.496
REMARK  Name = 
REMARK  8 active torsions:
REMARK  status: ('A' for Active; 'I' for Inactive)
REMARK    1  A    between atoms: C_1  and  N_2
REMARK    2  A    between atoms: N_5  and  C_6
REMARK    3  A    between atoms: C_6  and  C_7
REMARK    4  A    between atoms: C_7  and  C_8
REMARK    5  A    between atoms: C_7  and  C_9
REMARK    6  A    between atoms: C_7  and  C_10
REMARK    7  A    between atoms: C_14  and  C_15
REMARK    8  A    between atoms: C_23  and  C_25
REMARK                            x       y       z     vdW  Elec       q    Type
REMARK                         _______ _______ _______ _____ _____    ______ ____
ROOT
ATOM      1  C   UNL     1       2.350  11.996  17.855  0.00  0.00    +0.000 C 
ATOM      2  N   UNL     1       1.315  11.604  18.764  0.00  0.00    +0.000 N 
ATOM      3  C   UNL     1       0.241  12.408  19.193  0.00  0.00    +0.000 A 
ATOM      4  O   UNL     1      -0.008  13.551  18.846  0.00  0.00    +0.000 OA
ATOM      5  N   UNL     1      -0.504  11.620  20.100  0.00  0.00    +0.000 N 
ATOM      6  C   UNL     1       0.102  10.366  20.186  0.00  0.00    +0.000 A 
ATOM      7  C   UNL     1      -0.242   9.261  20.923  0.00  0.00    +0.000 A 
ATOM      8  C   UNL     1       0.546   8.134  20.739  0.00  0.00    +0.000 A 
ATOM      9  C   UNL     1       1.595   8.153  19.801  0.00  0.00    +0.000 A 
ATOM     10  N   UNL     1       1.973   9.267  19.117  0.00  0.00    +0.000 NA
ATOM     11  C   UNL     1       1.207  10.342  19.344  0.00  0.00    +0.000 A 
ENDROOT
BRANCH   9  12
ATOM     12  C   UNL     1       2.247   6.898  19.420  0.00  0.00    +0.000 C 
ATOM     13  C   UNL     1       3.016   6.151  20.243  0.00  0.00    +0.000 C 
ATOM     14  C   UNL     1       3.467   4.825  19.681  0.00  0.00    +0.000 C 
ATOM     15  C   UNL     1       2.187   4.050  19.283  0.00  0.00    +0.000 C 
ATOM     16  C   UNL     1       1.346   4.893  18.286  0.00  0.00    +0.000 C 
ATOM     17  C   UNL     1       2.029   6.258  18.058  0.00  0.00    +0.000 C 
ATOM     18  C   UNL     1       3.439   5.967  17.497  0.00  0.00    +0.000 C 
ATOM     19  N   UNL     1       4.214   5.142  18.453  0.00  0.00    +0.000 N 
ATOM     20  C   UNL     1       5.439   4.514  18.223  0.00  0.00    +0.000 C 
ATOM     21  O   UNL     1       5.978   3.800  19.070  0.00  0.00    +0.000 OA
BRANCH  20  22
ATOM     22  C   UNL     1       6.104   4.609  16.896  0.00  0.00    +0.000 A 
ATOM     23  C   UNL     1       5.698   3.744  15.876  0.00  0.00    +0.000 A 
ATOM     24  C   UNL     1       6.212   3.901  14.588  0.00  0.00    +0.000 A 
ATOM     25  C   UNL     1       7.122   4.920  14.361  0.00  0.00    +0.000 A 
ATOM     26  N   UNL     1       7.600   5.718  15.337  0.00  0.00    +0.000 NA
ATOM     27  C   UNL     1       7.105   5.515  16.585  0.00  0.00    +0.000 A 
ENDBRANCH  20  22
ENDBRANCH   9  12
BRANCH   5  28
ATOM     28  C   UNL     1      -1.754  11.982  20.718  0.00  0.00    +0.000 C 
BRANCH  28  29
ATOM     29  C   UNL     1      -1.643  12.567  22.149  0.00  0.00    +0.000 C 
ATOM     30  C   UNL     1      -0.303  13.298  22.326  0.00  0.00    +0.000 C 
ATOM     31  C   UNL     1      -2.809  13.559  22.336  0.00  0.00    +0.000 C 
ATOM     32  C   UNL     1      -1.762  11.492  23.243  0.00  0.00    +0.000 C 
ENDBRANCH  28  29
ENDBRANCH   5  28
TORSDOF 4
ENDMDL
MODEL 4
REMARK VINA RESULT:      -7.6      1.820      9.233
REMARK  Name = 
REMARK  8 active torsions:
REMARK  status: ('A' for Active; 'I' for Inactive)
REMARK    1  A    between atoms: C_1  and  N_2
REMARK    2  A    between atoms: N_5  and  C_6
REMARK    3  A    between atoms: C_6  and  C_7
REMARK    4  A    between atoms: C_7  and  C_8
REMARK    5  A    between atoms: C_7  and  C_9
REMARK    6  A    between atoms: C_7  and  C_10
REMARK    7  A    between atoms: C_14  and  C_15
REMARK    8  A    between atoms: C_23  and  C_25
REMARK                            x       y       z     vdW  Elec       q    Type
REMARK                         _______ _______ _______ _____ _____    ______ ____
ROOT
ATOM      1  C   UNL     1       2.222   4.566  21.194  0.00  0.00    +0.000 C 
ATOM      2  N   UNL     1       2.726   4.891  19.893  0.00  0.00    +0.000 N 
ATOM      3  C   UNL     1       3.365   4.003  19.006  0.00  0.00    +0.000 A 
ATOM      4  O   UNL     1       3.570   2.812  19.177  0.00  0.00    +0.000 OA
ATOM      5  N   UNL     1       3.711   4.764  17.866  0.00  0.00    +0.000 N 
ATOM      6  C   UNL     1       3.263   6.071  18.064  0.00  0.00    +0.000 A 
ATOM      7  C   UNL     1       3.354   7.174  17.253  0.00  0.00    +0.000 A 
ATOM      8  C   UNL     1       2.749   8.330  17.724  0.00  0.00    +0.000 A 
ATOM      9  C   UNL     1       2.046   8.312  18.943  0.00  0.00    +0.000 A 
ATOM     10  N   UNL     1       2.009   7.234  19.774  0.00  0.00    +0.000 NA
ATOM     11  C   UNL     1       2.631   6.148  19.299  0.00  0.00    +0.000 A 
ENDROOT
BRANCH   9  12
ATOM     12  C   UNL     1       1.193   9.446  19.303  0.00  0.00    +0.000 C 
ATOM     13  C   UNL     1       0.507  10.203  18.418  0.00  0.00    +0.000 C 
ATOM     14  C   UNL     1      -0.421  11.228  19.026  0.00  0.00    +0.000 C 
ATOM     15  C   UNL     1      -1.395  10.456  19.949  0.00  0.00    +0.000 C 
ATOM     16  C   UNL     1      -0.595   9.643  21.001  0.00  0.00    +0.000 C 
ATOM     17  C   UNL     1       0.918   9.819  20.751  0.00  0.00    +0.000 C 
ATOM     18  C   UNL     1       1.218  11.331  20.863  0.00  0.00    +0.000 C 
ATOM     19  N   UNL     1       0.426  12.089  19.866  0.00  0.00    +0.000 N 
ATOM     20  C   UNL     1       0.273  13.474  19.790  0.00  0.00    +0.000 C 
ATOM     21  O   UNL     1      -0.456  14.007  18.952  0.00  0.00    +0.000 OA
BRANCH  20  22
ATOM     22  C   UNL     1       0.920  14.366  20.788  0.00  0.00    +0.000 A 
ATOM     23  C   UNL     1       2.137  14.972  20.462  0.00  0.00    +0.000 A 
ATOM     24  C   UNL     1       2.697  15.914  21.326  0.00  0.00    +0.000 A 
ATOM     25  C   UNL     1       2.020  16.220  22.494  0.00  0.00    +0.000 A 
ATOM     26  N   UNL     1       0.889  15.597  22.882  0.00  0.00    +0.000 NA
ATOM     27  C   UNL     1       0.392  14.660  22.035  0.00  0.00    +0.000 A 
ENDBRANCH  20  22
ENDBRANCH   9  12
BRANCH   5  28
ATOM     28  C   UNL     1       4.291   4.260  16.647  0.00  0.00    +0.000 C 
BRANCH  28  29
ATOM     29  C   UNL     1       5.778   4.629  16.416  0.00  0.00    +0.000 C 
ATOM     30  C   UNL     1       6.562   4.543  17.735  0.00  0.00    +0.000 C 
ATOM     31  C   UNL     1       6.352   3.621  15.400  0.00  0.00    +0.000 C 
ATOM     32  C   UNL     1       5.958   6.041  15.831  0.00  0.00    +0.000 C 
ENDBRANCH  28  29
ENDBRANCH   5  28
TORSDOF 4
ENDMDL
MODEL 5
REMARK VINA RESULT:      -7.5      1.601      2.443
REMARK  Name = 
REMARK  8 active torsions:
REMARK  status: ('A' for Active; 'I' for Inactive)
REMARK    1  A    between atoms: C_1  and  N_2
REMARK    2  A    between atoms: N_5  and  C_6
REMARK    3  A    between atoms: C_6  and  C_7
REMARK    4  A    between atoms: C_7  and  C_8
REMARK    5  A    between atoms: C_7  and  C_9
REMARK    6  A    between atoms: C_7  and  C_10
REMARK    7  A    between atoms: C_14  and  C_15
REMARK    8  A    between atoms: C_23  and  C_25
REMARK                            x       y       z     vdW  Elec       q    Type
REMARK                         _______ _______ _______ _____ _____    ______ ____
ROOT
ATOM      1  C   UNL     1      -1.352  10.204  17.107  0.00  0.00    +0.000 C 
ATOM      2  N   UNL     1      -1.070  10.428  18.494  0.00  0.00    +0.000 N 
ATOM      3  C   UNL     1      -1.733  11.342  19.336  0.00  0.00    +0.000 A 
ATOM      4  O   UNL     1      -2.669  12.068  19.044  0.00  0.00    +0.000 OA
ATOM      5  N   UNL     1      -1.106  11.240  20.599  0.00  0.00    +0.000 N 
ATOM      6  C   UNL     1      -0.108  10.268  20.513  0.00  0.00    +0.000 A 
ATOM      7  C   UNL     1       0.768   9.806  21.462  0.00  0.00    +0.000 A 
ATOM      8  C   UNL     1       1.610   8.776  21.067  0.00  0.00    +0.000 A 
ATOM      9  C   UNL     1       1.500   8.232  19.773  0.00  0.00    +0.000 A 
ATOM     10  N   UNL     1       0.673   8.732  18.814  0.00  0.00    +0.000 NA
ATOM     11  C   UNL     1      -0.101   9.745  19.225  0.00  0.00    +0.000 A 
ENDROOT
BRANCH   9  12
ATOM     12  C   UNL     1       2.197   6.986  19.451  0.00  0.00    +0.000 C 
ATOM     13  C   UNL     1       3.008   6.318  20.301  0.00  0.00    +0.000 C 
ATOM     14  C   UNL     1       3.505   4.980  19.805  0.00  0.00    +0.000 C 
ATOM     15  C   UNL     1       2.252   4.134  19.474  0.00  0.00    +0.000 C 
ATOM     16  C   UNL     1       1.362   4.885  18.447  0.00  0.00    +0.000 C 
ATOM     17  C   UNL     1       1.984   6.261  18.131  0.00  0.00    +0.000 C 
ATOM     18  C   UNL     1       3.396   5.996  17.562  0.00  0.00    +0.000 C 
ATOM     19  N   UNL     1       4.219   5.258  18.549  0.00  0.00    +0.000 N 
ATOM     20  C   UNL     1       5.465   4.668  18.332  0.00  0.00    +0.000 C 
ATOM     21  O   UNL     1       6.046   4.025  19.208  0.00  0.00    +0.000 OA
BRANCH  20  22
ATOM     22  C   UNL     1       6.105   4.714  16.991  0.00  0.00    +0.000 A 
ATOM     23  C   UNL     1       5.679   3.814  16.009  0.00  0.00    +0.000 A 
ATOM     24  C   UNL     1       6.169   3.924  14.708  0.00  0.00    +0.000 A 
ATOM     25  C   UNL     1       7.075   4.933  14.428  0.00  0.00    +0.000 A 
ATOM     26  N   UNL     1       7.572   5.765  15.365  0.00  0.00    +0.000 NA
ATOM     27  C   UNL     1       7.101   5.607  16.628  0.00  0.00    +0.000 A 
ENDBRANCH  20  22
ENDBRANCH   9  12
BRANCH   5  28
ATOM     28  C   UNL     1      -1.511  11.908  21.810  0.00  0.00    +0.000 C 
BRANCH  28  29
ATOM     29  C   UNL     1      -1.039  13.378  21.948  0.00  0.00    +0.000 C 
ATOM     30  C   UNL     1      -1.065  13.811  23.423  0.00  0.00    +0.000 C 
ATOM     31  C   UNL     1       0.403  13.454  21.407  0.00  0.00    +0.000 C 
ATOM     32  C   UNL     1      -1.900  14.360  21.135  0.00  0.00    +0.000 C 
ENDBRANCH  28  29
ENDBRANCH   5  28
TORSDOF 4
ENDMDL
MODEL 6
REMARK VINA RESULT:      -7.5      2.760     10.288
REMARK  Name = 
REMARK  8 active torsions:
REMARK  status: ('A' for Active; 'I' for Inactive)
REMARK    1  A    between atoms: C_1  and  N_2
REMARK    2  A    between atoms: N_5  and  C_6
REMARK    3  A    between atoms: C_6  and  C_7
REMARK    4  A    between atoms: C_7  and  C_8
REMARK    5  A    between atoms: C_7  and  C_9
REMARK    6  A    between atoms: C_7  and  C_10
REMARK    7  A    between atoms: C_14  and  C_15
REMARK    8  A    between atoms: C_23  and  C_25
REMARK                            x       y       z     vdW  Elec       q    Type
REMARK                         _______ _______ _______ _____ _____    ______ ____
ROOT
ATOM      1  C   UNL     1       3.523   7.738  17.020  0.00  0.00    +0.000 C 
ATOM      2  N   UNL     1       3.077   7.059  18.200  0.00  0.00    +0.000 N 
ATOM      3  C   UNL     1       3.465   5.769  18.610  0.00  0.00    +0.000 A 
ATOM      4  O   UNL     1       4.261   5.029  18.056  0.00  0.00    +0.000 OA
ATOM      5  N   UNL     1       2.758   5.506  19.806  0.00  0.00    +0.000 N 
ATOM      6  C   UNL     1       1.985   6.628  20.110  0.00  0.00    +0.000 A 
ATOM      7  C   UNL     1       1.135   6.863  21.161  0.00  0.00    +0.000 A 
ATOM      8  C   UNL     1       0.553   8.122  21.206  0.00  0.00    +0.000 A 
ATOM      9  C   UNL     1       0.887   9.088  20.238  0.00  0.00    +0.000 A 
ATOM     10  N   UNL     1       1.682   8.833  19.163  0.00  0.00    +0.000 NA
ATOM     11  C   UNL     1       2.200   7.598  19.139  0.00  0.00    +0.000 A 
ENDROOT
BRANCH   9  12
ATOM     12  C   UNL     1       0.483  10.481  20.438  0.00  0.00    +0.000 C 
ATOM     13  C   UNL     1       1.173  11.383  21.171  0.00  0.00    +0.000 C 
ATOM     14  C   UNL     1       0.646  12.797  21.120  0.00  0.00    +0.000 C 
ATOM     15  C   UNL     1       0.626  13.213  19.628  0.00  0.00    +0.000 C 
ATOM     16  C   UNL     1      -0.224  12.204  18.810  0.00  0.00    +0.000 C 
ATOM     17  C   UNL     1      -0.727  11.078  19.737  0.00  0.00    +0.000 C 
ATOM     18  C   UNL     1      -1.568  11.751  20.846  0.00  0.00    +0.000 C 
ATOM     19  N   UNL     1      -0.744  12.726  21.598  0.00  0.00    +0.000 N 
ATOM     20  C   UNL     1      -1.190  13.665  22.529  0.00  0.00    +0.000 C 
ATOM     21  O   UNL     1      -0.428  14.473  23.061  0.00  0.00    +0.000 OA
BRANCH  20  22
ATOM     22  C   UNL     1      -2.637  13.788  22.849  0.00  0.00    +0.000 A 
ATOM     23  C   UNL     1      -3.193  12.925  23.798  0.00  0.00    +0.000 A 
ATOM     24  C   UNL     1      -4.513  13.107  24.212  0.00  0.00    +0.000 A 
ATOM     25  C   UNL     1      -5.239  14.149  23.660  0.00  0.00    +0.000 A 
ATOM     26  N   UNL     1      -4.765  14.947  22.683  0.00  0.00    +0.000 NA
ATOM     27  C   UNL     1      -3.489  14.720  22.278  0.00  0.00    +0.000 A 
ENDBRANCH  20  22
ENDBRANCH   9  12
BRANCH   5  28
ATOM     28  C   UNL     1       2.910   4.349  20.650  0.00  0.00    +0.000 C 
BRANCH  28  29
ATOM     29  C   UNL     1       2.007   3.141  20.293  0.00  0.00    +0.000 C 
ATOM     30  C   UNL     1       2.796   2.106  19.475  0.00  0.00    +0.000 C 
ATOM     31  C   UNL     1       1.533   2.509  21.618  0.00  0.00    +0.000 C 
ATOM     32  C   UNL     1       0.757   3.547  19.493  0.00  0.00    +0.000 C 
ENDBRANCH  28  29
ENDBRANCH   5  28
TORSDOF 4
ENDMDL
MODEL 7
REMARK VINA RESULT:      -7.4      2.534      9.653
REMARK  Name = 
REMARK  8 active torsions:
REMARK  status: ('A' for Active; 'I' for Inactive)
REMARK    1  A    between atoms: C_1  and  N_2
REMARK    2  A    between atoms: N_5  and  C_6
REMARK    3  A    between atoms: C_6  and  C_7
REMARK    4  A    between atoms: C_7  and  C_8
REMARK    5  A    between atoms: C_7  and  C_9
REMARK    6  A    between atoms: C_7  and  C_10
REMARK    7  A    between atoms: C_14  and  C_15
REMARK    8  A    between atoms: C_23  and  C_25
REMARK                            x       y       z     vdW  Elec       q    Type
REMARK                         _______ _______ _______ _____ _____    ______ ____
ROOT
ATOM      1  C   UNL     1       1.530   5.566  21.083  0.00  0.00    +0.000 C 
ATOM      2  N   UNL     1       2.321   5.951  19.951  0.00  0.00    +0.000 N 
ATOM      3  C   UNL     1       3.277   5.150  19.298  0.00  0.00    +0.000 A 
ATOM      4  O   UNL     1       3.573   3.995  19.560  0.00  0.00    +0.000 OA
ATOM      5  N   UNL     1       3.820   5.947  18.264  0.00  0.00    +0.000 N 
ATOM      6  C   UNL     1       3.179   7.187  18.289  0.00  0.00    +0.000 A 
ATOM      7  C   UNL     1       3.348   8.291  17.492  0.00  0.00    +0.000 A 
ATOM      8  C   UNL     1       2.502   9.361  17.744  0.00  0.00    +0.000 A 
ATOM      9  C   UNL     1       1.506   9.256  18.733  0.00  0.00    +0.000 A 
ATOM     10  N   UNL     1       1.380   8.183  19.563  0.00  0.00    +0.000 NA
ATOM     11  C   UNL     1       2.235   7.184  19.309  0.00  0.00    +0.000 A 
ENDROOT
BRANCH   9  12
ATOM     12  C   UNL     1       0.456  10.272  18.813  0.00  0.00    +0.000 C 
ATOM     13  C   UNL     1       0.665  11.603  18.707  0.00  0.00    +0.000 C 
ATOM     14  C   UNL     1      -0.582  12.454  18.676  0.00  0.00    +0.000 C 
ATOM     15  C   UNL     1      -1.441  11.944  17.493  0.00  0.00    +0.000 C 
ATOM     16  C   UNL     1      -1.728  10.428  17.662  0.00  0.00    +0.000 C 
ATOM     17  C   UNL     1      -1.015   9.904  18.926  0.00  0.00    +0.000 C 
ATOM     18  C   UNL     1      -1.564  10.716  20.121  0.00  0.00    +0.000 C 
ATOM     19  N   UNL     1      -1.300  12.161  19.927  0.00  0.00    +0.000 N 
ATOM     20  C   UNL     1      -1.812  13.219  20.679  0.00  0.00    +0.000 C 
ATOM     21  O   UNL     1      -1.574  14.396  20.400  0.00  0.00    +0.000 OA
BRANCH  20  22
ATOM     22  C   UNL     1      -2.750  12.967  21.805  0.00  0.00    +0.000 A 
ATOM     23  C   UNL     1      -2.254  12.981  23.112  0.00  0.00    +0.000 A 
ATOM     24  C   UNL     1      -3.134  12.879  24.189  0.00  0.00    +0.000 A 
ATOM     25  C   UNL     1      -4.489  12.764  23.925  0.00  0.00    +0.000 A 
ATOM     26  N   UNL     1      -4.995  12.662  22.679  0.00  0.00    +0.000 NA
ATOM     27  C   UNL     1      -4.107  12.729  21.655  0.00  0.00    +0.000 A 
ENDBRANCH  20  22
ENDBRANCH   9  12
BRANCH   5  28
ATOM     28  C   UNL     1       4.761   5.519  17.261  0.00  0.00    +0.000 C 
BRANCH  28  29
ATOM     29  C   UNL     1       6.255   5.721  17.622  0.00  0.00    +0.000 C 
ATOM     30  C   UNL     1       6.486   5.443  19.117  0.00  0.00    +0.000 C 
ATOM     31  C   UNL     1       7.075   4.728  16.773  0.00  0.00    +0.000 C 
ATOM     32  C   UNL     1       6.759   7.139  17.305  0.00  0.00    +0.000 C 
ENDBRANCH  28  29
ENDBRANCH   5  28
TORSDOF 4
ENDMDL
MODEL 8
REMARK VINA RESULT:      -7.4      1.918      9.202
REMARK  Name = 
REMARK  8 active torsions:
REMARK  status: ('A' for Active; 'I' for Inactive)
REMARK    1  A    between atoms: C_1  and  N_2
REMARK    2  A    between atoms: N_5  and  C_6
REMARK    3  A    between atoms: C_6  and  C_7
REMARK    4  A    between atoms: C_7  and  C_8
REMARK    5  A    between atoms: C_7  and  C_9
REMARK    6  A    between atoms: C_7  and  C_10
REMARK    7  A    between atoms: C_14  and  C_15
REMARK    8  A    between atoms: C_23  and  C_25
REMARK                            x       y       z     vdW  Elec       q    Type
REMARK                         _______ _______ _______ _____ _____    ______ ____
ROOT
ATOM      1  C   UNL     1       2.194   3.688  21.378  0.00  0.00    +0.000 C 
ATOM      2  N   UNL     1       2.598   4.242  20.120  0.00  0.00    +0.000 N 
ATOM      3  C   UNL     1       3.176   3.533  19.049  0.00  0.00    +0.000 A 
ATOM      4  O   UNL     1       3.403   2.335  18.997  0.00  0.00    +0.000 OA
ATOM      5  N   UNL     1       3.431   4.486  18.037  0.00  0.00    +0.000 N 
ATOM      6  C   UNL     1       2.989   5.730  18.489  0.00  0.00    +0.000 A 
ATOM      7  C   UNL     1       3.011   6.957  17.876  0.00  0.00    +0.000 A 
ATOM      8  C   UNL     1       2.434   8.003  18.582  0.00  0.00    +0.000 A 
ATOM      9  C   UNL     1       1.823   7.761  19.827  0.00  0.00    +0.000 A 
ATOM     10  N   UNL     1       1.856   6.556  20.460  0.00  0.00    +0.000 NA
ATOM     11  C   UNL     1       2.450   5.580  19.760  0.00  0.00    +0.000 A 
ENDROOT
BRANCH   9  12
ATOM     12  C   UNL     1       0.991   8.799  20.438  0.00  0.00    +0.000 C 
ATOM     13  C   UNL     1      -0.351   8.888  20.299  0.00  0.00    +0.000 C 
ATOM     14  C   UNL     1      -1.019   9.953  21.136  0.00  0.00    +0.000 C 
ATOM     15  C   UNL     1      -0.644   9.663  22.610  0.00  0.00    +0.000 C 
ATOM     16  C   UNL     1       0.900   9.628  22.767  0.00  0.00    +0.000 C 
ATOM     17  C   UNL     1       1.565   9.836  21.391  0.00  0.00    +0.000 C 
ATOM     18  C   UNL     1       1.085  11.207  20.861  0.00  0.00    +0.000 C 
ATOM     19  N   UNL     1      -0.391  11.225  20.742  0.00  0.00    +0.000 N 
ATOM     20  C   UNL     1      -1.202  12.333  20.495  0.00  0.00    +0.000 C 
ATOM     21  O   UNL     1      -2.431  12.253  20.469  0.00  0.00    +0.000 OA
BRANCH  20  22
ATOM     22  C   UNL     1      -0.610  13.689  20.342  0.00  0.00    +0.000 A 
ATOM     23  C   UNL     1      -0.246  14.125  19.064  0.00  0.00    +0.000 A 
ATOM     24  C   UNL     1       0.187  15.438  18.877  0.00  0.00    +0.000 A 
ATOM     25  C   UNL     1       0.245  16.276  19.977  0.00  0.00    +0.000 A 
ATOM     26  N   UNL     1      -0.017  15.868  21.235  0.00  0.00    +0.000 NA
ATOM     27  C   UNL     1      -0.400  14.575  21.386  0.00  0.00    +0.000 A 
ENDBRANCH  20  22
ENDBRANCH   9  12
BRANCH   5  28
ATOM     28  C   UNL     1       3.923   4.211  16.710  0.00  0.00    +0.000 C 
BRANCH  28  29
ATOM     29  C   UNL     1       5.399   4.607  16.452  0.00  0.00    +0.000 C 
ATOM     30  C   UNL     1       6.216   4.497  17.749  0.00  0.00    +0.000 C 
ATOM     31  C   UNL     1       5.961   3.636  15.395  0.00  0.00    +0.000 C 
ATOM     32  C   UNL     1       5.544   6.037  15.903  0.00  0.00    +0.000 C 
ENDBRANCH  28  29
ENDBRANCH   5  28
TORSDOF 4
ENDMDL
MODEL 9
REMARK VINA RESULT:      -7.4      2.405      9.614
REMARK  Name = 
REMARK  8 active torsions:
REMARK  status: ('A' for Active; 'I' for Inactive)
REMARK    1  A    between atoms: C_1  and  N_2
REMARK    2  A    between atoms: N_5  and  C_6
REMARK    3  A    between atoms: C_6  and  C_7
REMARK    4  A    between atoms: C_7  and  C_8
REMARK    5  A    between atoms: C_7  and  C_9
REMARK    6  A    between atoms: C_7  and  C_10
REMARK    7  A    between atoms: C_14  and  C_15
REMARK    8  A    between atoms: C_23  and  C_25
REMARK                            x       y       z     vdW  Elec       q    Type
REMARK                         _______ _______ _______ _____ _____    ______ ____
ROOT
ATOM      1  C   UNL     1       1.536   5.487  21.020  0.00  0.00    +0.000 C 
ATOM      2  N   UNL     1       2.330   5.879  19.894  0.00  0.00    +0.000 N 
ATOM      3  C   UNL     1       3.259   5.069  19.214  0.00  0.00    +0.000 A 
ATOM      4  O   UNL     1       3.523   3.900  19.443  0.00  0.00    +0.000 OA
ATOM      5  N   UNL     1       3.819   5.878  18.198  0.00  0.00    +0.000 N 
ATOM      6  C   UNL     1       3.214   7.134  18.260  0.00  0.00    +0.000 A 
ATOM      7  C   UNL     1       3.410   8.254  17.492  0.00  0.00    +0.000 A 
ATOM      8  C   UNL     1       2.596   9.341  17.777  0.00  0.00    +0.000 A 
ATOM      9  C   UNL     1       1.604   9.237  18.770  0.00  0.00    +0.000 A 
ATOM     10  N   UNL     1       1.452   8.147  19.572  0.00  0.00    +0.000 NA
ATOM     11  C   UNL     1       2.276   7.131  19.285  0.00  0.00    +0.000 A 
ENDROOT
BRANCH   9  12
ATOM     12  C   UNL     1       0.583  10.281  18.884  0.00  0.00    +0.000 C 
ATOM     13  C   UNL     1       0.700  11.528  18.376  0.00  0.00    +0.000 C 
ATOM     14  C   UNL     1      -0.535  12.390  18.488  0.00  0.00    +0.000 C 
ATOM     15  C   UNL     1      -1.681  11.623  17.786  0.00  0.00    +0.000 C 
ATOM     16  C   UNL     1      -1.846  10.217  18.424  0.00  0.00    +0.000 C 
ATOM     17  C   UNL     1      -0.774  10.015  19.515  0.00  0.00    +0.000 C 
ATOM     18  C   UNL     1      -0.981  11.134  20.561  0.00  0.00    +0.000 C 
ATOM     19  N   UNL     1      -0.843  12.465  19.926  0.00  0.00    +0.000 N 
ATOM     20  C   UNL     1      -1.153  13.704  20.489  0.00  0.00    +0.000 C 
ATOM     21  O   UNL     1      -1.055  14.755  19.854  0.00  0.00    +0.000 OA
BRANCH  20  22
ATOM     22  C   UNL     1      -1.710  13.794  21.865  0.00  0.00    +0.000 A 
ATOM     23  C   UNL     1      -0.876  14.219  22.903  0.00  0.00    +0.000 A 
ATOM     24  C   UNL     1      -1.407  14.438  24.175  0.00  0.00    +0.000 A 
ATOM     25  C   UNL     1      -2.761  14.223  24.369  0.00  0.00    +0.000 A 
ATOM     26  N   UNL     1      -3.578  13.734  23.416  0.00  0.00    +0.000 NA
ATOM     27  C   UNL     1      -3.021  13.497  22.201  0.00  0.00    +0.000 A 
ENDBRANCH  20  22
ENDBRANCH   9  12
BRANCH   5  28
ATOM     28  C   UNL     1       4.742   5.450  17.178  0.00  0.00    +0.000 C 
BRANCH  28  29
ATOM     29  C   UNL     1       6.243   5.593  17.537  0.00  0.00    +0.000 C 
ATOM     30  C   UNL     1       7.076   4.548  16.777  0.00  0.00    +0.000 C 
ATOM     31  C   UNL     1       6.684   7.012  17.128  0.00  0.00    +0.000 C 
ATOM     32  C   UNL     1       6.513   5.432  19.043  0.00  0.00    +0.000 C 
ENDBRANCH  28  29
ENDBRANCH   5  28
TORSDOF 4
ENDMDL
