MODEL 1
REMARK VINA RESULT:      -8.9      0.000      0.000
REMARK  Name = 
REMARK  9 active torsions:
REMARK  status: ('A' for Active; 'I' for Inactive)
REMARK    1  A    between atoms: N_1  and  C_2
REMARK    2  A    between atoms: C_7  and  N_8
REMARK    3  A    between atoms: C_9  and  C_11
REMARK    4  A    between atoms: C_14  and  C_15
REMARK    5  A    between atoms: C_15  and  N_16
REMARK    6  A    between atoms: N_16  and  C_17
REMARK    7  A    between atoms: C_17  and  C_18
REMARK    8  A    between atoms: C_20  and  C_21
REMARK    9  A    between atoms: C_24  and  C_25
REMARK                            x       y       z     vdW  Elec       q    Type
REMARK                         _______ _______ _______ _____ _____    ______ ____
ROOT
ATOM      1  C   UNL     1       7.870   8.191  18.058  0.00  0.00    +0.000 A 
ATOM      2  C   UNL     1       6.937   7.874  17.068  0.00  0.00    +0.000 A 
ATOM      3  C   UNL     1       6.457   6.569  16.964  0.00  0.00    +0.000 A 
ATOM      4  C   UNL     1       6.915   5.562  17.829  0.00  0.00    +0.000 A 
ATOM      5  C   UNL     1       7.887   5.877  18.787  0.00  0.00    +0.000 A 
ATOM      6  C   UNL     1       8.367   7.184  18.897  0.00  0.00    +0.000 A 
ENDROOT
BRANCH   1   8
ATOM      7  N   UNL     1       9.275   9.759  19.262  0.00  0.00    +0.000 N 
ATOM      8  C   UNL     1       8.383   9.577  18.219  0.00  0.00    +0.000 C 
ATOM      9  O   UNL     1       8.018  10.416  17.404  0.00  0.00    +0.000 OA
ATOM     10  H   UNL     1       9.668   8.932  19.683  0.00  0.00    +0.000 HD
BRANCH   7  16
ATOM     11  C   UNL     1      10.767  11.658  18.850  0.00  0.00    +0.000 A 
ATOM     12  C   UNL     1      11.251  12.914  19.255  0.00  0.00    +0.000 A 
ATOM     13  C   UNL     1      10.903  13.463  20.491  0.00  0.00    +0.000 A 
ATOM     14  C   UNL     1      10.041  12.774  21.330  0.00  0.00    +0.000 A 
ATOM     15  C   UNL     1       9.512  11.548  20.927  0.00  0.00    +0.000 A 
ATOM     16  C   UNL     1       9.836  10.990  19.683  0.00  0.00    +0.000 A 
BRANCH  11  17
ATOM     17  N   UNL     1      11.043  11.251  17.529  0.00  0.00    +0.000 N 
ATOM     18  H   UNL     1      10.659  11.879  16.830  0.00  0.00    +0.000 HD
ATOM     19  H   UNL     1      12.008  11.022  17.331  0.00  0.00    +0.000 HD
ENDBRANCH  11  17
ENDBRANCH   7  16
ENDBRANCH   1   8
BRANCH   4  20
ATOM     20  C   UNL     1       6.346   4.168  17.724  0.00  0.00    +0.000 C 
BRANCH  20  21
ATOM     21  N   UNL     1       5.811   3.735  19.009  0.00  0.00    +0.000 NA
ATOM     22  H   UNL     1       5.913   4.495  19.683  0.00  0.00    +0.000 HD
BRANCH  21  23
ATOM     23  C   UNL     1       4.397   3.370  18.899  0.00  0.00    +0.000 C 
BRANCH  23  24
ATOM     24  C   UNL     1       3.523   4.493  19.334  0.00  0.00    +0.000 A 
ATOM     25  N   UNL     1       3.356   5.677  18.792  0.00  0.00    +0.000 NA
ATOM     26  C   UNL     1       2.474   6.280  19.665  0.00  0.00    +0.000 A 
ATOM     27  N   UNL     1       2.100   5.496  20.691  0.00  0.00    +0.000 NA
ATOM     28  O   UNL     1       2.801   4.311  20.476  0.00  0.00    +0.000 OA
BRANCH  26  29
ATOM     29  C   UNL     1       2.007   7.647  19.464  0.00  0.00    +0.000 A 
ATOM     30  C   UNL     1       1.341   8.318  20.500  0.00  0.00    +0.000 A 
ATOM     31  C   UNL     1       0.889   9.630  20.326  0.00  0.00    +0.000 A 
ATOM     32  C   UNL     1       1.091  10.296  19.110  0.00  0.00    +0.000 A 
ATOM     33  C   UNL     1       1.751   9.623  18.071  0.00  0.00    +0.000 A 
ATOM     34  C   UNL     1       2.206   8.312  18.247  0.00  0.00    +0.000 A 
BRANCH  32  35
ATOM     35  C   UNL     1       0.617  11.715  18.911  0.00  0.00    +0.000 C 
ATOM     36  F   UNL     1       0.422  12.393  20.076  0.00  0.00    +0.000 F 
ATOM     37  F   UNL     1       1.501  12.461  18.190  0.00  0.00    +0.000 F 
ATOM     38  F   UNL     1      -0.565  11.781  18.237  0.00  0.00    +0.000 F 
ENDBRANCH  32  35
ENDBRANCH  26  29
ENDBRANCH  23  24
ENDBRANCH  21  23
ENDBRANCH  20  21
ENDBRANCH   4  20
TORSDOF 9
ENDMDL
MODEL 2
REMARK VINA RESULT:      -8.7      0.839      1.448
REMARK  Name = 
REMARK  9 active torsions:
REMARK  status: ('A' for Active; 'I' for Inactive)
REMARK    1  A    between atoms: N_1  and  C_2
REMARK    2  A    between atoms: C_7  and  N_8
REMARK    3  A    between atoms: C_9  and  C_11
REMARK    4  A    between atoms: C_14  and  C_15
REMARK    5  A    between atoms: C_15  and  N_16
REMARK    6  A    between atoms: N_16  and  C_17
REMARK    7  A    between atoms: C_17  and  C_18
REMARK    8  A    between atoms: C_20  and  C_21
REMARK    9  A    between atoms: C_24  and  C_25
REMARK                            x       y       z     vdW  Elec       q    Type
REMARK                         _______ _______ _______ _____ _____    ______ ____
ROOT
ATOM      1  C   UNL     1       8.077   8.271  18.173  0.00  0.00    +0.000 A 
ATOM      2  C   UNL     1       8.444   7.298  19.105  0.00  0.00    +0.000 A 
ATOM      3  C   UNL     1       8.038   5.977  18.919  0.00  0.00    +0.000 A 
ATOM      4  C   UNL     1       7.246   5.614  17.818  0.00  0.00    +0.000 A 
ATOM      5  C   UNL     1       6.841   6.606  16.915  0.00  0.00    +0.000 A 
ATOM      6  C   UNL     1       7.250   7.930  17.095  0.00  0.00    +0.000 A 
ENDROOT
BRANCH   1   8
ATOM      7  N   UNL     1       9.432   9.913  19.334  0.00  0.00    +0.000 N 
ATOM      8  C   UNL     1       8.515   9.684  18.321  0.00  0.00    +0.000 C 
ATOM      9  O   UNL     1       8.075  10.503  17.523  0.00  0.00    +0.000 OA
ATOM     10  H   UNL     1       9.885   9.109  19.738  0.00  0.00    +0.000 HD
BRANCH   7  16
ATOM     11  C   UNL     1      10.881  11.847  18.928  0.00  0.00    +0.000 A 
ATOM     12  C   UNL     1      11.309  13.128  19.315  0.00  0.00    +0.000 A 
ATOM     13  C   UNL     1      10.892  13.701  20.518  0.00  0.00    +0.000 A 
ATOM     14  C   UNL     1      10.017  13.009  21.341  0.00  0.00    +0.000 A 
ATOM     15  C   UNL     1       9.544  11.756  20.953  0.00  0.00    +0.000 A 
ATOM     16  C   UNL     1       9.936  11.174  19.741  0.00  0.00    +0.000 A 
BRANCH  11  17
ATOM     17  N   UNL     1      11.224  11.411  17.632  0.00  0.00    +0.000 N 
ATOM     18  H   UNL     1      11.973  10.726  17.627  0.00  0.00    +0.000 HD
ATOM     19  H   UNL     1      10.452  11.120  17.046  0.00  0.00    +0.000 HD
ENDBRANCH  11  17
ENDBRANCH   7  16
ENDBRANCH   1   8
BRANCH   4  20
ATOM     20  C   UNL     1       6.858   4.171  17.617  0.00  0.00    +0.000 C 
BRANCH  20  21
ATOM     21  N   UNL     1       5.849   4.053  16.570  0.00  0.00    +0.000 NA
ATOM     22  H   UNL     1       6.206   3.443  15.833  0.00  0.00    +0.000 HD
BRANCH  21  23
ATOM     23  C   UNL     1       4.600   3.498  17.096  0.00  0.00    +0.000 C 
BRANCH  23  24
ATOM     24  C   UNL     1       3.906   4.485  17.966  0.00  0.00    +0.000 A 
ATOM     25  N   UNL     1       3.379   5.647  17.652  0.00  0.00    +0.000 NA
ATOM     26  C   UNL     1       2.936   6.110  18.873  0.00  0.00    +0.000 A 
ATOM     27  N   UNL     1       3.162   5.264  19.893  0.00  0.00    +0.000 NA
ATOM     28  O   UNL     1       3.813   4.187  19.293  0.00  0.00    +0.000 OA
BRANCH  26  29
ATOM     29  C   UNL     1       2.281   7.406  19.014  0.00  0.00    +0.000 A 
ATOM     30  C   UNL     1       2.188   8.266  17.910  0.00  0.00    +0.000 A 
ATOM     31  C   UNL     1       1.562   9.511  18.026  0.00  0.00    +0.000 A 
ATOM     32  C   UNL     1       1.017   9.921  19.250  0.00  0.00    +0.000 A 
ATOM     33  C   UNL     1       1.115   9.064  20.356  0.00  0.00    +0.000 A 
ATOM     34  C   UNL     1       1.739   7.818  20.239  0.00  0.00    +0.000 A 
BRANCH  32  35
ATOM     35  C   UNL     1       0.330  11.258  19.387  0.00  0.00    +0.000 C 
ATOM     36  F   UNL     1      -0.538  11.319  20.436  0.00  0.00    +0.000 F 
ATOM     37  F   UNL     1       1.212  12.279  19.575  0.00  0.00    +0.000 F 
ATOM     38  F   UNL     1      -0.395  11.588  18.283  0.00  0.00    +0.000 F 
ENDBRANCH  32  35
ENDBRANCH  26  29
ENDBRANCH  23  24
ENDBRANCH  21  23
ENDBRANCH  20  21
ENDBRANCH   4  20
TORSDOF 9
ENDMDL
MODEL 3
REMARK VINA RESULT:      -8.6      0.821      1.064
REMARK  Name = 
REMARK  9 active torsions:
REMARK  status: ('A' for Active; 'I' for Inactive)
REMARK    1  A    between atoms: N_1  and  C_2
REMARK    2  A    between atoms: C_7  and  N_8
REMARK    3  A    between atoms: C_9  and  C_11
REMARK    4  A    between atoms: C_14  and  C_15
REMARK    5  A    between atoms: C_15  and  N_16
REMARK    6  A    between atoms: N_16  and  C_17
REMARK    7  A    between atoms: C_17  and  C_18
REMARK    8  A    between atoms: C_20  and  C_21
REMARK    9  A    between atoms: C_24  and  C_25
REMARK                            x       y       z     vdW  Elec       q    Type
REMARK                         _______ _______ _______ _____ _____    ______ ____
ROOT
ATOM      1  C   UNL     1       8.063   8.287  18.174  0.00  0.00    +0.000 A 
ATOM      2  C   UNL     1       7.265   7.895  17.096  0.00  0.00    +0.000 A 
ATOM      3  C   UNL     1       6.842   6.571  16.996  0.00  0.00    +0.000 A 
ATOM      4  C   UNL     1       7.225   5.618  17.954  0.00  0.00    +0.000 A 
ATOM      5  C   UNL     1       8.067   6.008  19.004  0.00  0.00    +0.000 A 
ATOM      6  C   UNL     1       8.488   7.336  19.110  0.00  0.00    +0.000 A 
ENDROOT
BRANCH   1   8
ATOM      7  N   UNL     1       9.387   9.926  19.375  0.00  0.00    +0.000 N 
ATOM      8  C   UNL     1       8.508   9.697  18.330  0.00  0.00    +0.000 C 
ATOM      9  O   UNL     1       8.106  10.514  17.509  0.00  0.00    +0.000 OA
ATOM     10  H   UNL     1       9.817   9.120  19.802  0.00  0.00    +0.000 HD
BRANCH   7  16
ATOM     11  C   UNL     1      10.854  11.853  19.002  0.00  0.00    +0.000 A 
ATOM     12  C   UNL     1      11.277  13.133  19.397  0.00  0.00    +0.000 A 
ATOM     13  C   UNL     1      10.834  13.709  20.590  0.00  0.00    +0.000 A 
ATOM     14  C   UNL     1       9.937  13.022  21.392  0.00  0.00    +0.000 A 
ATOM     15  C   UNL     1       9.468  11.770  20.994  0.00  0.00    +0.000 A 
ATOM     16  C   UNL     1       9.887  11.184  19.793  0.00  0.00    +0.000 A 
BRANCH  11  17
ATOM     17  N   UNL     1      11.226  11.414  17.715  0.00  0.00    +0.000 N 
ATOM     18  H   UNL     1      10.475  11.488  17.035  0.00  0.00    +0.000 HD
ATOM     19  H   UNL     1      12.091  11.794  17.353  0.00  0.00    +0.000 HD
ENDBRANCH  11  17
ENDBRANCH   7  16
ENDBRANCH   1   8
BRANCH   4  20
ATOM     20  C   UNL     1       6.718   4.201  17.847  0.00  0.00    +0.000 C 
BRANCH  20  21
ATOM     21  N   UNL     1       5.851   4.054  16.684  0.00  0.00    +0.000 NA
ATOM     22  H   UNL     1       6.286   3.405  16.027  0.00  0.00    +0.000 HD
BRANCH  21  23
ATOM     23  C   UNL     1       4.531   3.548  17.066  0.00  0.00    +0.000 C 
BRANCH  23  24
ATOM     24  C   UNL     1       3.819   4.525  17.933  0.00  0.00    +0.000 A 
ATOM     25  N   UNL     1       3.344   5.712  17.634  0.00  0.00    +0.000 NA
ATOM     26  C   UNL     1       2.847   6.145  18.846  0.00  0.00    +0.000 A 
ATOM     27  N   UNL     1       2.992   5.257  19.845  0.00  0.00    +0.000 NA
ATOM     28  O   UNL     1       3.644   4.183  19.241  0.00  0.00    +0.000 OA
BRANCH  26  29
ATOM     29  C   UNL     1       2.224   7.455  18.998  0.00  0.00    +0.000 A 
ATOM     30  C   UNL     1       1.729   7.854  20.248  0.00  0.00    +0.000 A 
ATOM     31  C   UNL     1       1.131   9.107  20.413  0.00  0.00    +0.000 A 
ATOM     32  C   UNL     1       1.012   9.986  19.328  0.00  0.00    +0.000 A 
ATOM     33  C   UNL     1       1.501   9.586  18.075  0.00  0.00    +0.000 A 
ATOM     34  C   UNL     1       2.102   8.333  17.913  0.00  0.00    +0.000 A 
BRANCH  32  35
ATOM     35  C   UNL     1       0.378  11.345  19.493  0.00  0.00    +0.000 C 
ATOM     36  F   UNL     1       0.893  12.292  18.660  0.00  0.00    +0.000 F 
ATOM     37  F   UNL     1      -0.963  11.325  19.249  0.00  0.00    +0.000 F 
ATOM     38  F   UNL     1       0.521  11.839  20.754  0.00  0.00    +0.000 F 
ENDBRANCH  32  35
ENDBRANCH  26  29
ENDBRANCH  23  24
ENDBRANCH  21  23
ENDBRANCH  20  21
ENDBRANCH   4  20
TORSDOF 9
ENDMDL
MODEL 4
REMARK VINA RESULT:      -8.5      0.841      1.575
REMARK  Name = 
REMARK  9 active torsions:
REMARK  status: ('A' for Active; 'I' for Inactive)
REMARK    1  A    between atoms: N_1  and  C_2
REMARK    2  A    between atoms: C_7  and  N_8
REMARK    3  A    between atoms: C_9  and  C_11
REMARK    4  A    between atoms: C_14  and  C_15
REMARK    5  A    between atoms: C_15  and  N_16
REMARK    6  A    between atoms: N_16  and  C_17
REMARK    7  A    between atoms: C_17  and  C_18
REMARK    8  A    between atoms: C_20  and  C_21
REMARK    9  A    between atoms: C_24  and  C_25
REMARK                            x       y       z     vdW  Elec       q    Type
REMARK                         _______ _______ _______ _____ _____    ______ ____
ROOT
ATOM      1  C   UNL     1       8.011   8.264  18.105  0.00  0.00    +0.000 A 
ATOM      2  C   UNL     1       7.191   7.847  17.054  0.00  0.00    +0.000 A 
ATOM      3  C   UNL     1       6.753   6.524  17.003  0.00  0.00    +0.000 A 
ATOM      4  C   UNL     1       7.143   5.598  17.984  0.00  0.00    +0.000 A 
ATOM      5  C   UNL     1       8.006   6.013  19.007  0.00  0.00    +0.000 A 
ATOM      6  C   UNL     1       8.443   7.338  19.064  0.00  0.00    +0.000 A 
ENDROOT
BRANCH   1   8
ATOM      7  N   UNL     1       9.482   9.897  19.131  0.00  0.00    +0.000 N 
ATOM      8  C   UNL     1       8.473   9.673  18.209  0.00  0.00    +0.000 C 
ATOM      9  O   UNL     1       7.967  10.495  17.453  0.00  0.00    +0.000 OA
ATOM     10  H   UNL     1       9.964   9.090  19.492  0.00  0.00    +0.000 HD
BRANCH   7  16
ATOM     11  C   UNL     1       9.712  11.731  20.739  0.00  0.00    +0.000 A 
ATOM     12  C   UNL     1      10.330  12.940  21.099  0.00  0.00    +0.000 A 
ATOM     13  C   UNL     1      11.171  13.618  20.215  0.00  0.00    +0.000 A 
ATOM     14  C   UNL     1      11.429  13.081  18.964  0.00  0.00    +0.000 A 
ATOM     15  C   UNL     1      10.864  11.857  18.605  0.00  0.00    +0.000 A 
ATOM     16  C   UNL     1      10.032  11.153  19.486  0.00  0.00    +0.000 A 
BRANCH  11  17
ATOM     17  N   UNL     1       9.006  11.038  21.743  0.00  0.00    +0.000 N 
ATOM     18  H   UNL     1       9.032  10.029  21.625  0.00  0.00    +0.000 HD
ATOM     19  H   UNL     1       9.219  11.304  22.696  0.00  0.00    +0.000 HD
ENDBRANCH  11  17
ENDBRANCH   7  16
ENDBRANCH   1   8
BRANCH   4  20
ATOM     20  C   UNL     1       6.621   4.184  17.930  0.00  0.00    +0.000 C 
BRANCH  20  21
ATOM     21  N   UNL     1       5.672   4.030  16.834  0.00  0.00    +0.000 NA
ATOM     22  H   UNL     1       6.053   3.368  16.156  0.00  0.00    +0.000 HD
BRANCH  21  23
ATOM     23  C   UNL     1       4.378   3.543  17.315  0.00  0.00    +0.000 C 
BRANCH  23  24
ATOM     24  C   UNL     1       3.682   4.586  18.116  0.00  0.00    +0.000 A 
ATOM     25  N   UNL     1       3.258   5.773  17.748  0.00  0.00    +0.000 NA
ATOM     26  C   UNL     1       2.750   6.283  18.925  0.00  0.00    +0.000 A 
ATOM     27  N   UNL     1       2.839   5.440  19.968  0.00  0.00    +0.000 NA
ATOM     28  O   UNL     1       3.464   4.315  19.433  0.00  0.00    +0.000 OA
BRANCH  26  29
ATOM     29  C   UNL     1       2.172   7.620  18.998  0.00  0.00    +0.000 A 
ATOM     30  C   UNL     1       2.186   8.452  17.869  0.00  0.00    +0.000 A 
ATOM     31  C   UNL     1       1.634   9.735  17.921  0.00  0.00    +0.000 A 
ATOM     32  C   UNL     1       1.058  10.214  19.105  0.00  0.00    +0.000 A 
ATOM     33  C   UNL     1       1.048   9.385  20.237  0.00  0.00    +0.000 A 
ATOM     34  C   UNL     1       1.598   8.100  20.184  0.00  0.00    +0.000 A 
BRANCH  32  35
ATOM     35  C   UNL     1       0.449  11.593  19.173  0.00  0.00    +0.000 C 
ATOM     36  F   UNL     1       0.285  12.055  20.444  0.00  0.00    +0.000 F 
ATOM     37  F   UNL     1       1.208  12.527  18.533  0.00  0.00    +0.000 F 
ATOM     38  F   UNL     1      -0.781  11.650  18.593  0.00  0.00    +0.000 F 
ENDBRANCH  32  35
ENDBRANCH  26  29
ENDBRANCH  23  24
ENDBRANCH  21  23
ENDBRANCH  20  21
ENDBRANCH   4  20
TORSDOF 9
ENDMDL
MODEL 5
REMARK VINA RESULT:      -8.5      0.892      1.613
REMARK  Name = 
REMARK  9 active torsions:
REMARK  status: ('A' for Active; 'I' for Inactive)
REMARK    1  A    between atoms: N_1  and  C_2
REMARK    2  A    between atoms: C_7  and  N_8
REMARK    3  A    between atoms: C_9  and  C_11
REMARK    4  A    between atoms: C_14  and  C_15
REMARK    5  A    between atoms: C_15  and  N_16
REMARK    6  A    between atoms: N_16  and  C_17
REMARK    7  A    between atoms: C_17  and  C_18
REMARK    8  A    between atoms: C_20  and  C_21
REMARK    9  A    between atoms: C_24  and  C_25
REMARK                            x       y       z     vdW  Elec       q    Type
REMARK                         _______ _______ _______ _____ _____    ______ ____
ROOT
ATOM      1  C   UNL     1       7.968   8.189  18.106  0.00  0.00    +0.000 A 
ATOM      2  C   UNL     1       8.377   7.203  19.008  0.00  0.00    +0.000 A 
ATOM      3  C   UNL     1       7.931   5.892  18.846  0.00  0.00    +0.000 A 
ATOM      4  C   UNL     1       7.060   5.551  17.799  0.00  0.00    +0.000 A 
ATOM      5  C   UNL     1       6.616   6.555  16.929  0.00  0.00    +0.000 A 
ATOM      6  C   UNL     1       7.064   7.869  17.085  0.00  0.00    +0.000 A 
ENDROOT
BRANCH   1   8
ATOM      7  N   UNL     1       9.464   9.789  19.147  0.00  0.00    +0.000 N 
ATOM      8  C   UNL     1       8.446   9.591  18.229  0.00  0.00    +0.000 C 
ATOM      9  O   UNL     1       7.943  10.430  17.491  0.00  0.00    +0.000 OA
ATOM     10  H   UNL     1       9.940   8.971  19.492  0.00  0.00    +0.000 HD
BRANCH   7  16
ATOM     11  C   UNL     1       9.673  11.626  20.755  0.00  0.00    +0.000 A 
ATOM     12  C   UNL     1      10.305  12.822  21.135  0.00  0.00    +0.000 A 
ATOM     13  C   UNL     1      11.198  13.474  20.282  0.00  0.00    +0.000 A 
ATOM     14  C   UNL     1      11.494  12.923  19.046  0.00  0.00    +0.000 A 
ATOM     15  C   UNL     1      10.914  11.712  18.669  0.00  0.00    +0.000 A 
ATOM     16  C   UNL     1      10.030  11.034  19.518  0.00  0.00    +0.000 A 
BRANCH  11  17
ATOM     17  N   UNL     1       8.910  10.956  21.732  0.00  0.00    +0.000 N 
ATOM     18  H   UNL     1       9.432  10.760  22.581  0.00  0.00    +0.000 HD
ATOM     19  H   UNL     1       8.006  11.360  21.939  0.00  0.00    +0.000 HD
ENDBRANCH  11  17
ENDBRANCH   7  16
ENDBRANCH   1   8
BRANCH   4  20
ATOM     20  C   UNL     1       6.628   4.117  17.620  0.00  0.00    +0.000 C 
BRANCH  20  21
ATOM     21  N   UNL     1       5.579   4.020  16.612  0.00  0.00    +0.000 NA
ATOM     22  H   UNL     1       5.897   3.406  15.861  0.00  0.00    +0.000 HD
BRANCH  21  23
ATOM     23  C   UNL     1       4.341   3.486  17.184  0.00  0.00    +0.000 C 
BRANCH  23  24
ATOM     24  C   UNL     1       3.663   4.505  18.029  0.00  0.00    +0.000 A 
ATOM     25  N   UNL     1       3.221   5.698  17.701  0.00  0.00    +0.000 NA
ATOM     26  C   UNL     1       2.745   6.178  18.904  0.00  0.00    +0.000 A 
ATOM     27  N   UNL     1       2.871   5.312  19.925  0.00  0.00    +0.000 NA
ATOM     28  O   UNL     1       3.486   4.204  19.346  0.00  0.00    +0.000 OA
BRANCH  26  29
ATOM     29  C   UNL     1       2.161   7.509  19.025  0.00  0.00    +0.000 A 
ATOM     30  C   UNL     1       1.695   7.958  20.268  0.00  0.00    +0.000 A 
ATOM     31  C   UNL     1       1.135   9.232  20.403  0.00  0.00    +0.000 A 
ATOM     32  C   UNL     1       1.027  10.082  19.294  0.00  0.00    +0.000 A 
ATOM     33  C   UNL     1       1.488   9.632  18.048  0.00  0.00    +0.000 A 
ATOM     34  C   UNL     1       2.051   8.358  17.915  0.00  0.00    +0.000 A 
BRANCH  32  35
ATOM     35  C   UNL     1       0.434  11.464  19.426  0.00  0.00    +0.000 C 
ATOM     36  F   UNL     1       0.161  11.820  20.713  0.00  0.00    +0.000 F 
ATOM     37  F   UNL     1       1.260  12.432  18.940  0.00  0.00    +0.000 F 
ATOM     38  F   UNL     1      -0.738  11.595  18.746  0.00  0.00    +0.000 F 
ENDBRANCH  32  35
ENDBRANCH  26  29
ENDBRANCH  23  24
ENDBRANCH  21  23
ENDBRANCH  20  21
ENDBRANCH   4  20
TORSDOF 9
ENDMDL
MODEL 6
REMARK VINA RESULT:      -8.5      1.065      1.925
REMARK  Name = 
REMARK  9 active torsions:
REMARK  status: ('A' for Active; 'I' for Inactive)
REMARK    1  A    between atoms: N_1  and  C_2
REMARK    2  A    between atoms: C_7  and  N_8
REMARK    3  A    between atoms: C_9  and  C_11
REMARK    4  A    between atoms: C_14  and  C_15
REMARK    5  A    between atoms: C_15  and  N_16
REMARK    6  A    between atoms: N_16  and  C_17
REMARK    7  A    between atoms: C_17  and  C_18
REMARK    8  A    between atoms: C_20  and  C_21
REMARK    9  A    between atoms: C_24  and  C_25
REMARK                            x       y       z     vdW  Elec       q    Type
REMARK                         _______ _______ _______ _____ _____    ______ ____
ROOT
ATOM      1  C   UNL     1       7.810   8.199  18.044  0.00  0.00    +0.000 A 
ATOM      2  C   UNL     1       8.289   7.151  18.835  0.00  0.00    +0.000 A 
ATOM      3  C   UNL     1       7.730   5.881  18.711  0.00  0.00    +0.000 A 
ATOM      4  C   UNL     1       6.675   5.642  17.815  0.00  0.00    +0.000 A 
ATOM      5  C   UNL     1       6.168   6.709  17.062  0.00  0.00    +0.000 A 
ATOM      6  C   UNL     1       6.729   7.983  17.180  0.00  0.00    +0.000 A 
ENDROOT
BRANCH   1   8
ATOM      7  N   UNL     1       9.422   9.704  19.054  0.00  0.00    +0.000 N 
ATOM      8  C   UNL     1       8.402   9.560  18.128  0.00  0.00    +0.000 C 
ATOM      9  O   UNL     1       7.979  10.412  17.355  0.00  0.00    +0.000 OA
ATOM     10  H   UNL     1       9.824   8.861  19.432  0.00  0.00    +0.000 HD
BRANCH   7  16
ATOM     11  C   UNL     1       9.789  11.553  20.618  0.00  0.00    +0.000 A 
ATOM     12  C   UNL     1      10.515  12.705  20.965  0.00  0.00    +0.000 A 
ATOM     13  C   UNL     1      11.446  13.269  20.090  0.00  0.00    +0.000 A 
ATOM     14  C   UNL     1      11.685  12.670  18.863  0.00  0.00    +0.000 A 
ATOM     15  C   UNL     1      11.009  11.499  18.519  0.00  0.00    +0.000 A 
ATOM     16  C   UNL     1      10.086  10.909  19.392  0.00  0.00    +0.000 A 
BRANCH  11  17
ATOM     17  N   UNL     1       8.988  10.965  21.617  0.00  0.00    +0.000 N 
ATOM     18  H   UNL     1       8.383  10.230  21.263  0.00  0.00    +0.000 HD
ATOM     19  H   UNL     1       9.473  10.671  22.456  0.00  0.00    +0.000 HD
ENDBRANCH  11  17
ENDBRANCH   7  16
ENDBRANCH   1   8
BRANCH   4  20
ATOM     20  C   UNL     1       6.117   4.249  17.668  0.00  0.00    +0.000 C 
BRANCH  20  21
ATOM     21  N   UNL     1       5.897   3.644  18.976  0.00  0.00    +0.000 NA
ATOM     22  H   UNL     1       6.176   4.309  19.699  0.00  0.00    +0.000 HD
BRANCH  21  23
ATOM     23  C   UNL     1       4.490   3.284  19.165  0.00  0.00    +0.000 C 
BRANCH  23  24
ATOM     24  C   UNL     1       3.605   4.457  18.928  0.00  0.00    +0.000 A 
ATOM     25  N   UNL     1       3.450   5.543  19.649  0.00  0.00    +0.000 NA
ATOM     26  C   UNL     1       2.472   6.223  18.954  0.00  0.00    +0.000 A 
ATOM     27  N   UNL     1       2.054   5.593  17.843  0.00  0.00    +0.000 NA
ATOM     28  O   UNL     1       2.801   4.416  17.828  0.00  0.00    +0.000 OA
BRANCH  26  29
ATOM     29  C   UNL     1       1.959   7.510  19.409  0.00  0.00    +0.000 A 
ATOM     30  C   UNL     1       1.561   7.673  20.743  0.00  0.00    +0.000 A 
ATOM     31  C   UNL     1       1.069   8.901  21.197  0.00  0.00    +0.000 A 
ATOM     32  C   UNL     1       0.962   9.991  20.322  0.00  0.00    +0.000 A 
ATOM     33  C   UNL     1       1.354   9.827  18.985  0.00  0.00    +0.000 A 
ATOM     34  C   UNL     1       1.849   8.599  18.533  0.00  0.00    +0.000 A 
BRANCH  32  35
ATOM     35  C   UNL     1       0.443  11.325  20.800  0.00  0.00    +0.000 C 
ATOM     36  F   UNL     1      -0.569  11.822  20.034  0.00  0.00    +0.000 F 
ATOM     37  F   UNL     1      -0.047  11.266  22.070  0.00  0.00    +0.000 F 
ATOM     38  F   UNL     1       1.407  12.286  20.814  0.00  0.00    +0.000 F 
ENDBRANCH  32  35
ENDBRANCH  26  29
ENDBRANCH  23  24
ENDBRANCH  21  23
ENDBRANCH  20  21
ENDBRANCH   4  20
TORSDOF 9
ENDMDL
MODEL 7
REMARK VINA RESULT:      -8.4      6.134     10.384
REMARK  Name = 
REMARK  9 active torsions:
REMARK  status: ('A' for Active; 'I' for Inactive)
REMARK    1  A    between atoms: N_1  and  C_2
REMARK    2  A    between atoms: C_7  and  N_8
REMARK    3  A    between atoms: C_9  and  C_11
REMARK    4  A    between atoms: C_14  and  C_15
REMARK    5  A    between atoms: C_15  and  N_16
REMARK    6  A    between atoms: N_16  and  C_17
REMARK    7  A    between atoms: C_17  and  C_18
REMARK    8  A    between atoms: C_20  and  C_21
REMARK    9  A    between atoms: C_24  and  C_25
REMARK                            x       y       z     vdW  Elec       q    Type
REMARK                         _______ _______ _______ _____ _____    ______ ____
ROOT
ATOM      1  C   UNL     1      -0.875  12.080  22.097  0.00  0.00    +0.000 A 
ATOM      2  C   UNL     1      -1.559  11.326  23.054  0.00  0.00    +0.000 A 
ATOM      3  C   UNL     1      -2.575  11.919  23.802  0.00  0.00    +0.000 A 
ATOM      4  C   UNL     1      -2.908  13.271  23.621  0.00  0.00    +0.000 A 
ATOM      5  C   UNL     1      -2.184  14.032  22.694  0.00  0.00    +0.000 A 
ATOM      6  C   UNL     1      -1.168  13.441  21.939  0.00  0.00    +0.000 A 
ENDROOT
BRANCH   1   8
ATOM      7  N   UNL     1      -0.179  10.345  20.552  0.00  0.00    +0.000 N 
ATOM      8  C   UNL     1       0.194  11.475  21.260  0.00  0.00    +0.000 C 
ATOM      9  O   UNL     1       1.281  12.040  21.230  0.00  0.00    +0.000 OA
ATOM     10  H   UNL     1      -1.165  10.149  20.483  0.00  0.00    +0.000 HD
BRANCH   7  16
ATOM     11  C   UNL     1       1.439   8.514  20.372  0.00  0.00    +0.000 A 
ATOM     12  C   UNL     1       2.213   7.673  19.555  0.00  0.00    +0.000 A 
ATOM     13  C   UNL     1       2.304   7.881  18.177  0.00  0.00    +0.000 A 
ATOM     14  C   UNL     1       1.597   8.919  17.591  0.00  0.00    +0.000 A 
ATOM     15  C   UNL     1       0.786   9.737  18.378  0.00  0.00    +0.000 A 
ATOM     16  C   UNL     1       0.668   9.532  19.759  0.00  0.00    +0.000 A 
BRANCH  11  17
ATOM     17  N   UNL     1       1.280   8.142  21.722  0.00  0.00    +0.000 N 
ATOM     18  H   UNL     1       1.306   8.932  22.360  0.00  0.00    +0.000 HD
ATOM     19  H   UNL     1       0.498   7.532  21.921  0.00  0.00    +0.000 HD
ENDBRANCH  11  17
ENDBRANCH   7  16
ENDBRANCH   1   8
BRANCH   4  20
ATOM     20  C   UNL     1      -4.042  13.876  24.411  0.00  0.00    +0.000 C 
BRANCH  20  21
ATOM     21  N   UNL     1      -5.121  12.911  24.580  0.00  0.00    +0.000 NA
ATOM     22  H   UNL     1      -5.405  12.899  25.561  0.00  0.00    +0.000 HD
BRANCH  21  23
ATOM     23  C   UNL     1      -6.274  13.252  23.745  0.00  0.00    +0.000 C 
BRANCH  23  24
ATOM     24  C   UNL     1      -5.905  13.252  22.303  0.00  0.00    +0.000 A 
ATOM     25  N   UNL     1      -5.352  12.301  21.586  0.00  0.00    +0.000 NA
ATOM     26  C   UNL     1      -5.213  12.903  20.353  0.00  0.00    +0.000 A 
ATOM     27  N   UNL     1      -5.677  14.164  20.307  0.00  0.00    +0.000 NA
ATOM     28  O   UNL     1      -6.130  14.399  21.604  0.00  0.00    +0.000 OA
BRANCH  26  29
ATOM     29  C   UNL     1      -4.615  12.208  19.219  0.00  0.00    +0.000 A 
ATOM     30  C   UNL     1      -5.417  11.809  18.140  0.00  0.00    +0.000 A 
ATOM     31  C   UNL     1      -4.859  11.144  17.044  0.00  0.00    +0.000 A 
ATOM     32  C   UNL     1      -3.488  10.861  17.007  0.00  0.00    +0.000 A 
ATOM     33  C   UNL     1      -2.685  11.254  18.088  0.00  0.00    +0.000 A 
ATOM     34  C   UNL     1      -3.243  11.922  19.183  0.00  0.00    +0.000 A 
BRANCH  32  35
ATOM     35  C   UNL     1      -2.870  10.153  15.825  0.00  0.00    +0.000 C 
ATOM     36  F   UNL     1      -1.719   9.490  16.127  0.00  0.00    +0.000 F 
ATOM     37  F   UNL     1      -3.704   9.220  15.286  0.00  0.00    +0.000 F 
ATOM     38  F   UNL     1      -2.556  11.005  14.811  0.00  0.00    +0.000 F 
ENDBRANCH  32  35
ENDBRANCH  26  29
ENDBRANCH  23  24
ENDBRANCH  21  23
ENDBRANCH  20  21
ENDBRANCH   4  20
TORSDOF 9
ENDMDL
MODEL 8
REMARK VINA RESULT:      -8.4      3.663      8.077
REMARK  Name = 
REMARK  9 active torsions:
REMARK  status: ('A' for Active; 'I' for Inactive)
REMARK    1  A    between atoms: N_1  and  C_2
REMARK    2  A    between atoms: C_7  and  N_8
REMARK    3  A    between atoms: C_9  and  C_11
REMARK    4  A    between atoms: C_14  and  C_15
REMARK    5  A    between atoms: C_15  and  N_16
REMARK    6  A    between atoms: N_16  and  C_17
REMARK    7  A    between atoms: C_17  and  C_18
REMARK    8  A    between atoms: C_20  and  C_21
REMARK    9  A    between atoms: C_24  and  C_25
REMARK                            x       y       z     vdW  Elec       q    Type
REMARK                         _______ _______ _______ _____ _____    ______ ____
ROOT
ATOM      1  C   UNL     1       1.904   8.395  19.004  0.00  0.00    +0.000 A 
ATOM      2  C   UNL     1       2.582   8.515  17.788  0.00  0.00    +0.000 A 
ATOM      3  C   UNL     1       3.449   7.502  17.379  0.00  0.00    +0.000 A 
ATOM      4  C   UNL     1       3.666   6.371  18.183  0.00  0.00    +0.000 A 
ATOM      5  C   UNL     1       3.020   6.283  19.423  0.00  0.00    +0.000 A 
ATOM      6  C   UNL     1       2.148   7.293  19.834  0.00  0.00    +0.000 A 
ENDROOT
BRANCH   1   8
ATOM      7  N   UNL     1       1.077   9.816  20.787  0.00  0.00    +0.000 N 
ATOM      8  C   UNL     1       0.951   9.440  19.460  0.00  0.00    +0.000 C 
ATOM      9  O   UNL     1       0.179   9.907  18.630  0.00  0.00    +0.000 OA
ATOM     10  H   UNL     1       1.913   9.529  21.270  0.00  0.00    +0.000 HD
BRANCH   7  16
ATOM     11  C   UNL     1      -0.652  10.226  22.473  0.00  0.00    +0.000 A 
ATOM     12  C   UNL     1      -1.418  11.148  23.207  0.00  0.00    +0.000 A 
ATOM     13  C   UNL     1      -1.381  12.514  22.922  0.00  0.00    +0.000 A 
ATOM     14  C   UNL     1      -0.554  12.983  21.914  0.00  0.00    +0.000 A 
ATOM     15  C   UNL     1       0.250  12.090  21.204  0.00  0.00    +0.000 A 
ATOM     16  C   UNL     1       0.239  10.718  21.488  0.00  0.00    +0.000 A 
BRANCH  11  17
ATOM     17  N   UNL     1      -0.631   8.892  22.926  0.00  0.00    +0.000 N 
ATOM     18  H   UNL     1       0.216   8.656  23.435  0.00  0.00    +0.000 HD
ATOM     19  H   UNL     1      -1.457   8.581  23.421  0.00  0.00    +0.000 HD
ENDBRANCH  11  17
ENDBRANCH   7  16
ENDBRANCH   1   8
BRANCH   4  20
ATOM     20  C   UNL     1       4.574   5.269  17.696  0.00  0.00    +0.000 C 
BRANCH  20  21
ATOM     21  N   UNL     1       5.022   5.538  16.335  0.00  0.00    +0.000 NA
ATOM     22  H   UNL     1       4.731   6.480  16.071  0.00  0.00    +0.000 HD
BRANCH  21  23
ATOM     23  C   UNL     1       6.478   5.432  16.224  0.00  0.00    +0.000 C 
BRANCH  23  24
ATOM     24  C   UNL     1       7.152   6.421  17.108  0.00  0.00    +0.000 A 
ATOM     25  N   UNL     1       7.316   7.713  16.939  0.00  0.00    +0.000 NA
ATOM     26  C   UNL     1       8.049   8.066  18.053  0.00  0.00    +0.000 A 
ATOM     27  N   UNL     1       8.310   7.040  18.882  0.00  0.00    +0.000 NA
ATOM     28  O   UNL     1       7.721   5.946  18.251  0.00  0.00    +0.000 OA
BRANCH  26  29
ATOM     29  C   UNL     1       8.485   9.438  18.284  0.00  0.00    +0.000 A 
ATOM     30  C   UNL     1       8.003  10.473  17.470  0.00  0.00    +0.000 A 
ATOM     31  C   UNL     1       8.408  11.794  17.679  0.00  0.00    +0.000 A 
ATOM     32  C   UNL     1       9.308  12.107  18.706  0.00  0.00    +0.000 A 
ATOM     33  C   UNL     1       9.797  11.073  19.518  0.00  0.00    +0.000 A 
ATOM     34  C   UNL     1       9.389   9.751  19.309  0.00  0.00    +0.000 A 
BRANCH  32  35
ATOM     35  C   UNL     1       9.747  13.531  18.950  0.00  0.00    +0.000 C 
ATOM     36  F   UNL     1      10.040  14.215  17.809  0.00  0.00    +0.000 F 
ATOM     37  F   UNL     1       8.794  14.265  19.589  0.00  0.00    +0.000 F 
ATOM     38  F   UNL     1      10.863  13.607  19.728  0.00  0.00    +0.000 F 
ENDBRANCH  32  35
ENDBRANCH  26  29
ENDBRANCH  23  24
ENDBRANCH  21  23
ENDBRANCH  20  21
ENDBRANCH   4  20
TORSDOF 9
ENDMDL
MODEL 9
REMARK VINA RESULT:      -8.3      1.119      2.011
REMARK  Name = 
REMARK  9 active torsions:
REMARK  status: ('A' for Active; 'I' for Inactive)
REMARK    1  A    between atoms: N_1  and  C_2
REMARK    2  A    between atoms: C_7  and  N_8
REMARK    3  A    between atoms: C_9  and  C_11
REMARK    4  A    between atoms: C_14  and  C_15
REMARK    5  A    between atoms: C_15  and  N_16
REMARK    6  A    between atoms: N_16  and  C_17
REMARK    7  A    between atoms: C_17  and  C_18
REMARK    8  A    between atoms: C_20  and  C_21
REMARK    9  A    between atoms: C_24  and  C_25
REMARK                            x       y       z     vdW  Elec       q    Type
REMARK                         _______ _______ _______ _____ _____    ______ ____
ROOT
ATOM      1  C   UNL     1       7.999   8.485  18.090  0.00  0.00    +0.000 A 
ATOM      2  C   UNL     1       8.451   7.475  18.943  0.00  0.00    +0.000 A 
ATOM      3  C   UNL     1       7.946   6.183  18.812  0.00  0.00    +0.000 A 
ATOM      4  C   UNL     1       6.971   5.885  17.845  0.00  0.00    +0.000 A 
ATOM      5  C   UNL     1       6.487   6.914  17.028  0.00  0.00    +0.000 A 
ATOM      6  C   UNL     1       6.995   8.209  17.153  0.00  0.00    +0.000 A 
ENDROOT
BRANCH   1   8
ATOM      7  N   UNL     1       9.658  10.014  18.981  0.00  0.00    +0.000 N 
ATOM      8  C   UNL     1       8.536   9.868  18.181  0.00  0.00    +0.000 C 
ATOM      9  O   UNL     1       7.983  10.738  17.518  0.00  0.00    +0.000 OA
ATOM     10  H   UNL     1      10.141   9.173  19.256  0.00  0.00    +0.000 HD
BRANCH   7  16
ATOM     11  C   UNL     1       9.972  11.905  20.506  0.00  0.00    +0.000 A 
ATOM     12  C   UNL     1      10.682  13.070  20.843  0.00  0.00    +0.000 A 
ATOM     13  C   UNL     1      11.634  13.616  19.979  0.00  0.00    +0.000 A 
ATOM     14  C   UNL     1      11.909  12.987  18.775  0.00  0.00    +0.000 A 
ATOM     15  C   UNL     1      11.250  11.804  18.443  0.00  0.00    +0.000 A 
ATOM     16  C   UNL     1      10.305  11.231  19.305  0.00  0.00    +0.000 A 
BRANCH  11  17
ATOM     17  N   UNL     1       9.146  11.338  21.498  0.00  0.00    +0.000 N 
ATOM     18  H   UNL     1       9.268  11.766  22.411  0.00  0.00    +0.000 HD
ATOM     19  H   UNL     1       8.167  11.250  21.259  0.00  0.00    +0.000 HD
ENDBRANCH  11  17
ENDBRANCH   7  16
ENDBRANCH   1   8
BRANCH   4  20
ATOM     20  C   UNL     1       6.472   4.469  17.695  0.00  0.00    +0.000 C 
BRANCH  20  21
ATOM     21  N   UNL     1       6.023   3.945  18.979  0.00  0.00    +0.000 NA
ATOM     22  H   UNL     1       6.081   4.687  19.678  0.00  0.00    +0.000 HD
BRANCH  21  23
ATOM     23  C   UNL     1       4.644   3.459  18.901  0.00  0.00    +0.000 C 
BRANCH  23  24
ATOM     24  C   UNL     1       3.688   4.591  18.773  0.00  0.00    +0.000 A 
ATOM     25  N   UNL     1       3.553   5.657  19.529  0.00  0.00    +0.000 NA
ATOM     26  C   UNL     1       2.483   6.301  18.944  0.00  0.00    +0.000 A 
ATOM     27  N   UNL     1       1.990   5.670  17.864  0.00  0.00    +0.000 NA
ATOM     28  O   UNL     1       2.785   4.531  17.754  0.00  0.00    +0.000 OA
BRANCH  26  29
ATOM     29  C   UNL     1       1.956   7.554  19.472  0.00  0.00    +0.000 A 
ATOM     30  C   UNL     1       1.766   8.649  18.617  0.00  0.00    +0.000 A 
ATOM     31  C   UNL     1       1.260   9.858  19.105  0.00  0.00    +0.000 A 
ATOM     32  C   UNL     1       0.937   9.996  20.461  0.00  0.00    +0.000 A 
ATOM     33  C   UNL     1       1.132   8.903  21.319  0.00  0.00    +0.000 A 
ATOM     34  C   UNL     1       1.635   7.694  20.829  0.00  0.00    +0.000 A 
BRANCH  32  35
ATOM     35  C   UNL     1       0.380  11.291  21.001  0.00  0.00    +0.000 C 
ATOM     36  F   UNL     1      -0.025  11.212  22.300  0.00  0.00    +0.000 F 
ATOM     37  F   UNL     1       1.290  12.305  20.957  0.00  0.00    +0.000 F 
ATOM     38  F   UNL     1      -0.701  11.728  20.298  0.00  0.00    +0.000 F 
ENDBRANCH  32  35
ENDBRANCH  26  29
ENDBRANCH  23  24
ENDBRANCH  21  23
ENDBRANCH  20  21
ENDBRANCH   4  20
TORSDOF 9
ENDMDL
