MODEL 1
REMARK VINA RESULT:      -8.0      0.000      0.000
REMARK  Name = 
REMARK  7 active torsions:
REMARK  status: ('A' for Active; 'I' for Inactive)
REMARK    1  A    between atoms: C_1  and  C_2
REMARK    2  A    between atoms: C_5  and  C_6
REMARK    3  A    between atoms: C_6  and  C_7
REMARK    4  A    between atoms: C_6  and  N_8
REMARK    5  A    between atoms: C_9  and  C_11
REMARK    6  A    between atoms: C_13  and  N_14
REMARK    7  A    between atoms: C_18  and  N_19
REMARK                            x       y       z     vdW  Elec       q    Type
REMARK                         _______ _______ _______ _____ _____    ______ ____
ROOT
ATOM      1  N   UNL     1       1.503   8.998  18.312  0.00  0.00    +0.000 N 
ATOM      2  C   UNL     1       1.995   7.951  19.066  0.00  0.00    +0.000 C 
ATOM      3  O   UNL     1       1.900   7.885  20.285  0.00  0.00    +0.000 OA
ATOM      4  H   UNL     1       1.833   9.099  17.367  0.00  0.00    +0.000 HD
ENDROOT
BRANCH   2   5
ATOM      5  C   UNL     1       2.735   6.880  18.325  0.00  0.00    +0.000 A 
ATOM      6  C   UNL     1       2.250   5.563  18.383  0.00  0.00    +0.000 A 
ATOM      7  C   UNL     1       2.953   4.526  17.748  0.00  0.00    +0.000 A 
ATOM      8  C   UNL     1       4.141   4.782  17.057  0.00  0.00    +0.000 A 
ATOM      9  C   UNL     1       4.588   6.103  16.960  0.00  0.00    +0.000 A 
ATOM     10  C   UNL     1       3.887   7.157  17.577  0.00  0.00    +0.000 A 
BRANCH   7  11
ATOM     11  N   UNL     1       2.437   3.149  17.797  0.00  0.00    +0.000 N 
ATOM     12  O   UNL     1       3.257   2.226  17.732  0.00  0.00    +0.000 OA
ATOM     13  O   UNL     1       1.213   3.003  17.910  0.00  0.00    +0.000 OA
ENDBRANCH   7  11
BRANCH   9  14
ATOM     14  N   UNL     1       5.812   6.396  16.196  0.00  0.00    +0.000 N 
ATOM     15  O   UNL     1       5.909   5.909  15.066  0.00  0.00    +0.000 OA
ATOM     16  O   UNL     1       6.669   7.095  16.741  0.00  0.00    +0.000 OA
ENDBRANCH   9  14
ENDBRANCH   2   5
BRANCH   1  17
ATOM     17  C   UNL     1       0.916  10.193  18.922  0.00  0.00    +0.000 C 
ATOM     18  C   UNL     1       1.671  11.448  18.461  0.00  0.00    +0.000 C 
BRANCH  17  23
ATOM     19  C   UNL     1      -4.456  11.605  17.146  0.00  0.00    +0.000 C 
ATOM     20  C   UNL     1      -3.137  11.150  17.692  0.00  0.00    +0.000 A 
ATOM     21  C   UNL     1      -2.578  11.734  18.832  0.00  0.00    +0.000 A 
ATOM     22  C   UNL     1      -1.303  11.358  19.268  0.00  0.00    +0.000 A 
ATOM     23  C   UNL     1      -0.555  10.389  18.571  0.00  0.00    +0.000 A 
ATOM     24  C   UNL     1      -1.161   9.755  17.477  0.00  0.00    +0.000 A 
ATOM     25  C   UNL     1      -2.437  10.127  17.047  0.00  0.00    +0.000 A 
ENDBRANCH  17  23
ENDBRANCH   1  17
TORSDOF 5
ENDMDL
MODEL 2
REMARK VINA RESULT:      -7.9      0.258      1.347
REMARK  Name = 
REMARK  7 active torsions:
REMARK  status: ('A' for Active; 'I' for Inactive)
REMARK    1  A    between atoms: C_1  and  C_2
REMARK    2  A    between atoms: C_5  and  C_6
REMARK    3  A    between atoms: C_6  and  C_7
REMARK    4  A    between atoms: C_6  and  N_8
REMARK    5  A    between atoms: C_9  and  C_11
REMARK    6  A    between atoms: C_13  and  N_14
REMARK    7  A    between atoms: C_18  and  N_19
REMARK                            x       y       z     vdW  Elec       q    Type
REMARK                         _______ _______ _______ _____ _____    ______ ____
ROOT
ATOM      1  N   UNL     1       1.505   9.092  18.321  0.00  0.00    +0.000 N 
ATOM      2  C   UNL     1       1.991   8.044  19.079  0.00  0.00    +0.000 C 
ATOM      3  O   UNL     1       1.915   7.992  20.299  0.00  0.00    +0.000 OA
ATOM      4  H   UNL     1       1.822   9.178  17.370  0.00  0.00    +0.000 HD
ENDROOT
BRANCH   2   5
ATOM      5  C   UNL     1       2.701   6.953  18.336  0.00  0.00    +0.000 A 
ATOM      6  C   UNL     1       2.177   5.651  18.392  0.00  0.00    +0.000 A 
ATOM      7  C   UNL     1       2.850   4.594  17.758  0.00  0.00    +0.000 A 
ATOM      8  C   UNL     1       4.047   4.817  17.068  0.00  0.00    +0.000 A 
ATOM      9  C   UNL     1       4.532   6.124  16.974  0.00  0.00    +0.000 A 
ATOM     10  C   UNL     1       3.861   7.198  17.590  0.00  0.00    +0.000 A 
BRANCH   7  11
ATOM     11  N   UNL     1       2.295   3.233  17.804  0.00  0.00    +0.000 N 
ATOM     12  O   UNL     1       1.078   3.114  17.982  0.00  0.00    +0.000 OA
ATOM     13  O   UNL     1       3.084   2.291  17.650  0.00  0.00    +0.000 OA
ENDBRANCH   7  11
BRANCH   9  14
ATOM     14  N   UNL     1       5.765   6.382  16.212  0.00  0.00    +0.000 N 
ATOM     15  O   UNL     1       6.598   7.141  16.714  0.00  0.00    +0.000 OA
ATOM     16  O   UNL     1       5.879   5.836  15.112  0.00  0.00    +0.000 OA
ENDBRANCH   9  14
ENDBRANCH   2   5
BRANCH   1  17
ATOM     17  C   UNL     1       0.949  10.303  18.927  0.00  0.00    +0.000 C 
ATOM     18  C   UNL     1       1.825  11.517  18.586  0.00  0.00    +0.000 C 
BRANCH  17  23
ATOM     19  C   UNL     1      -4.717  10.918  17.690  0.00  0.00    +0.000 C 
ATOM     20  C   UNL     1      -3.233  10.841  17.893  0.00  0.00    +0.000 A 
ATOM     21  C   UNL     1      -2.461   9.860  17.264  0.00  0.00    +0.000 A 
ATOM     22  C   UNL     1      -1.095   9.749  17.543  0.00  0.00    +0.000 A 
ATOM     23  C   UNL     1      -0.468  10.615  18.461  0.00  0.00    +0.000 A 
ATOM     24  C   UNL     1      -1.240  11.642  19.023  0.00  0.00    +0.000 A 
ATOM     25  C   UNL     1      -2.603  11.757  18.739  0.00  0.00    +0.000 A 
ENDBRANCH  17  23
ENDBRANCH   1  17
TORSDOF 5
ENDMDL
MODEL 3
REMARK VINA RESULT:      -7.8      0.344      3.076
REMARK  Name = 
REMARK  7 active torsions:
REMARK  status: ('A' for Active; 'I' for Inactive)
REMARK    1  A    between atoms: C_1  and  C_2
REMARK    2  A    between atoms: C_5  and  C_6
REMARK    3  A    between atoms: C_6  and  C_7
REMARK    4  A    between atoms: C_6  and  N_8
REMARK    5  A    between atoms: C_9  and  C_11
REMARK    6  A    between atoms: C_13  and  N_14
REMARK    7  A    between atoms: C_18  and  N_19
REMARK                            x       y       z     vdW  Elec       q    Type
REMARK                         _______ _______ _______ _____ _____    ______ ____
ROOT
ATOM      1  N   UNL     1       1.900   8.989  18.179  0.00  0.00    +0.000 N 
ATOM      2  C   UNL     1       2.121   7.877  18.966  0.00  0.00    +0.000 C 
ATOM      3  O   UNL     1       1.821   7.809  20.151  0.00  0.00    +0.000 OA
ATOM      4  H   UNL     1       2.391   9.056  17.302  0.00  0.00    +0.000 HD
ENDROOT
BRANCH   2   5
ATOM      5  C   UNL     1       2.825   6.725  18.317  0.00  0.00    +0.000 A 
ATOM      6  C   UNL     1       3.979   6.983  17.558  0.00  0.00    +0.000 A 
ATOM      7  C   UNL     1       4.628   5.934  16.887  0.00  0.00    +0.000 A 
ATOM      8  C   UNL     1       4.140   4.625  16.957  0.00  0.00    +0.000 A 
ATOM      9  C   UNL     1       3.023   4.370  17.757  0.00  0.00    +0.000 A 
ATOM     10  C   UNL     1       2.369   5.407  18.450  0.00  0.00    +0.000 A 
BRANCH   7  11
ATOM     11  N   UNL     1       5.844   6.201  16.103  0.00  0.00    +0.000 N 
ATOM     12  O   UNL     1       5.889   5.770  14.945  0.00  0.00    +0.000 OA
ATOM     13  O   UNL     1       6.743   6.852  16.652  0.00  0.00    +0.000 OA
ENDBRANCH   7  11
BRANCH   9  14
ATOM     14  N   UNL     1       2.524   2.990  17.880  0.00  0.00    +0.000 N 
ATOM     15  O   UNL     1       3.361   2.090  18.002  0.00  0.00    +0.000 OA
ATOM     16  O   UNL     1       1.304   2.819  17.836  0.00  0.00    +0.000 OA
ENDBRANCH   9  14
ENDBRANCH   2   5
BRANCH   1  17
ATOM     17  C   UNL     1       1.384  10.245  18.726  0.00  0.00    +0.000 C 
ATOM     18  C   UNL     1       2.046  11.441  18.027  0.00  0.00    +0.000 C 
BRANCH  17  23
ATOM     19  C   UNL     1      -4.207  11.488  17.626  0.00  0.00    +0.000 C 
ATOM     20  C   UNL     1      -2.816  11.078  18.008  0.00  0.00    +0.000 A 
ATOM     21  C   UNL     1      -2.130  11.709  19.049  0.00  0.00    +0.000 A 
ATOM     22  C   UNL     1      -0.800  11.374  19.326  0.00  0.00    +0.000 A 
ATOM     23  C   UNL     1      -0.124  10.399  18.565  0.00  0.00    +0.000 A 
ATOM     24  C   UNL     1      -0.851   9.719  17.577  0.00  0.00    +0.000 A 
ATOM     25  C   UNL     1      -2.181  10.050  17.306  0.00  0.00    +0.000 A 
ENDBRANCH  17  23
ENDBRANCH   1  17
TORSDOF 5
ENDMDL
MODEL 4
REMARK VINA RESULT:      -7.7      0.329      3.215
REMARK  Name = 
REMARK  7 active torsions:
REMARK  status: ('A' for Active; 'I' for Inactive)
REMARK    1  A    between atoms: C_1  and  C_2
REMARK    2  A    between atoms: C_5  and  C_6
REMARK    3  A    between atoms: C_6  and  C_7
REMARK    4  A    between atoms: C_6  and  N_8
REMARK    5  A    between atoms: C_9  and  C_11
REMARK    6  A    between atoms: C_13  and  N_14
REMARK    7  A    between atoms: C_18  and  N_19
REMARK                            x       y       z     vdW  Elec       q    Type
REMARK                         _______ _______ _______ _____ _____    ______ ____
ROOT
ATOM      1  N   UNL     1       1.446   9.129  18.415  0.00  0.00    +0.000 N 
ATOM      2  C   UNL     1       1.894   8.098  19.218  0.00  0.00    +0.000 C 
ATOM      3  O   UNL     1       1.783   8.086  20.438  0.00  0.00    +0.000 OA
ATOM      4  H   UNL     1       1.791   9.179  17.471  0.00  0.00    +0.000 HD
ENDROOT
BRANCH   2   5
ATOM      5  C   UNL     1       2.607   6.974  18.531  0.00  0.00    +0.000 A 
ATOM      6  C   UNL     1       3.741   7.269  17.757  0.00  0.00    +0.000 A 
ATOM      7  C   UNL     1       4.397   6.247  17.052  0.00  0.00    +0.000 A 
ATOM      8  C   UNL     1       3.933   4.928  17.102  0.00  0.00    +0.000 A 
ATOM      9  C   UNL     1       2.836   4.636  17.916  0.00  0.00    +0.000 A 
ATOM     10  C   UNL     1       2.177   5.645  18.643  0.00  0.00    +0.000 A 
BRANCH   7  11
ATOM     11  N   UNL     1       5.593   6.553  16.253  0.00  0.00    +0.000 N 
ATOM     12  O   UNL     1       6.520   7.152  16.811  0.00  0.00    +0.000 OA
ATOM     13  O   UNL     1       5.600   6.181  15.072  0.00  0.00    +0.000 OA
ENDBRANCH   7  11
BRANCH   9  14
ATOM     14  N   UNL     1       2.365   3.244  18.018  0.00  0.00    +0.000 N 
ATOM     15  O   UNL     1       3.217   2.361  18.149  0.00  0.00    +0.000 OA
ATOM     16  O   UNL     1       1.149   3.049  17.948  0.00  0.00    +0.000 OA
ENDBRANCH   9  14
ENDBRANCH   2   5
BRANCH   1  17
ATOM     17  C   UNL     1       0.893  10.367  18.967  0.00  0.00    +0.000 C 
ATOM     18  C   UNL     1       1.769  11.563  18.569  0.00  0.00    +0.000 C 
BRANCH  17  23
ATOM     19  C   UNL     1      -4.772  10.902  17.689  0.00  0.00    +0.000 C 
ATOM     20  C   UNL     1      -3.289  10.846  17.903  0.00  0.00    +0.000 A 
ATOM     21  C   UNL     1      -2.499   9.876  17.279  0.00  0.00    +0.000 A 
ATOM     22  C   UNL     1      -1.133   9.784  17.568  0.00  0.00    +0.000 A 
ATOM     23  C   UNL     1      -0.525  10.659  18.490  0.00  0.00    +0.000 A 
ATOM     24  C   UNL     1      -1.315  11.675  19.047  0.00  0.00    +0.000 A 
ATOM     25  C   UNL     1      -2.677  11.771  18.753  0.00  0.00    +0.000 A 
ENDBRANCH  17  23
ENDBRANCH   1  17
TORSDOF 5
ENDMDL
MODEL 5
REMARK VINA RESULT:      -7.7      3.537      8.141
REMARK  Name = 
REMARK  7 active torsions:
REMARK  status: ('A' for Active; 'I' for Inactive)
REMARK    1  A    between atoms: C_1  and  C_2
REMARK    2  A    between atoms: C_5  and  C_6
REMARK    3  A    between atoms: C_6  and  C_7
REMARK    4  A    between atoms: C_6  and  N_8
REMARK    5  A    between atoms: C_9  and  C_11
REMARK    6  A    between atoms: C_13  and  N_14
REMARK    7  A    between atoms: C_18  and  N_19
REMARK                            x       y       z     vdW  Elec       q    Type
REMARK                         _______ _______ _______ _____ _____    ______ ____
ROOT
ATOM      1  N   UNL     1       2.484   6.331  18.849  0.00  0.00    +0.000 N 
ATOM      2  C   UNL     1       1.949   6.550  20.103  0.00  0.00    +0.000 C 
ATOM      3  O   UNL     1       1.826   5.679  20.954  0.00  0.00    +0.000 OA
ATOM      4  H   UNL     1       2.323   7.022  18.135  0.00  0.00    +0.000 HD
ENDROOT
BRANCH   2   5
ATOM      5  C   UNL     1       1.442   7.932  20.383  0.00  0.00    +0.000 A 
ATOM      6  C   UNL     1       1.582   8.915  19.388  0.00  0.00    +0.000 A 
ATOM      7  C   UNL     1       1.172  10.234  19.641  0.00  0.00    +0.000 A 
ATOM      8  C   UNL     1       0.627  10.592  20.878  0.00  0.00    +0.000 A 
ATOM      9  C   UNL     1       0.444   9.597  21.842  0.00  0.00    +0.000 A 
ATOM     10  C   UNL     1       0.834   8.266  21.600  0.00  0.00    +0.000 A 
BRANCH   7  11
ATOM     11  N   UNL     1       1.305  11.260  18.595  0.00  0.00    +0.000 N 
ATOM     12  O   UNL     1       2.354  11.282  17.941  0.00  0.00    +0.000 OA
ATOM     13  O   UNL     1       0.351  12.031  18.428  0.00  0.00    +0.000 OA
ENDBRANCH   7  11
BRANCH   9  14
ATOM     14  N   UNL     1      -0.172   9.949  23.132  0.00  0.00    +0.000 N 
ATOM     15  O   UNL     1       0.401   9.575  24.159  0.00  0.00    +0.000 OA
ATOM     16  O   UNL     1      -1.231  10.580  23.104  0.00  0.00    +0.000 OA
ENDBRANCH   9  14
ENDBRANCH   2   5
BRANCH   1  17
ATOM     17  C   UNL     1       2.854   4.994  18.379  0.00  0.00    +0.000 C 
ATOM     18  C   UNL     1       1.672   4.344  17.645  0.00  0.00    +0.000 C 
BRANCH  17  23
ATOM     19  C   UNL     1       6.834   4.876  14.119  0.00  0.00    +0.000 C 
ATOM     20  C   UNL     1       5.920   4.902  15.307  0.00  0.00    +0.000 A 
ATOM     21  C   UNL     1       5.483   3.723  15.917  0.00  0.00    +0.000 A 
ATOM     22  C   UNL     1       4.556   3.769  16.963  0.00  0.00    +0.000 A 
ATOM     23  C   UNL     1       4.041   4.998  17.423  0.00  0.00    +0.000 A 
ATOM     24  C   UNL     1       4.549   6.174  16.854  0.00  0.00    +0.000 A 
ATOM     25  C   UNL     1       5.480   6.127  15.814  0.00  0.00    +0.000 A 
ENDBRANCH  17  23
ENDBRANCH   1  17
TORSDOF 5
ENDMDL
MODEL 6
REMARK VINA RESULT:      -7.7      3.563      7.821
REMARK  Name = 
REMARK  7 active torsions:
REMARK  status: ('A' for Active; 'I' for Inactive)
REMARK    1  A    between atoms: C_1  and  C_2
REMARK    2  A    between atoms: C_5  and  C_6
REMARK    3  A    between atoms: C_6  and  C_7
REMARK    4  A    between atoms: C_6  and  N_8
REMARK    5  A    between atoms: C_9  and  C_11
REMARK    6  A    between atoms: C_13  and  N_14
REMARK    7  A    between atoms: C_18  and  N_19
REMARK                            x       y       z     vdW  Elec       q    Type
REMARK                         _______ _______ _______ _____ _____    ______ ____
ROOT
ATOM      1  N   UNL     1       2.584   6.496  18.900  0.00  0.00    +0.000 N 
ATOM      2  C   UNL     1       1.938   6.735  20.097  0.00  0.00    +0.000 C 
ATOM      3  O   UNL     1       1.673   5.864  20.915  0.00  0.00    +0.000 OA
ATOM      4  H   UNL     1       2.542   7.206  18.187  0.00  0.00    +0.000 HD
ENDROOT
BRANCH   2   5
ATOM      5  C   UNL     1       1.498   8.145  20.351  0.00  0.00    +0.000 A 
ATOM      6  C   UNL     1       0.947   8.462  21.604  0.00  0.00    +0.000 A 
ATOM      7  C   UNL     1       0.469   9.758  21.854  0.00  0.00    +0.000 A 
ATOM      8  C   UNL     1       0.528  10.748  20.868  0.00  0.00    +0.000 A 
ATOM      9  C   UNL     1       1.126  10.438  19.643  0.00  0.00    +0.000 A 
ATOM     10  C   UNL     1       1.625   9.147  19.381  0.00  0.00    +0.000 A 
BRANCH   7  11
ATOM     11  N   UNL     1      -0.095  10.095  23.170  0.00  0.00    +0.000 N 
ATOM     12  O   UNL     1      -0.917  11.017  23.226  0.00  0.00    +0.000 OA
ATOM     13  O   UNL     1       0.282   9.423  24.140  0.00  0.00    +0.000 OA
ENDBRANCH   7  11
BRANCH   9  14
ATOM     14  N   UNL     1       1.239  11.482  18.611  0.00  0.00    +0.000 N 
ATOM     15  O   UNL     1       2.286  11.529  17.960  0.00  0.00    +0.000 OA
ATOM     16  O   UNL     1       0.286  12.253  18.476  0.00  0.00    +0.000 OA
ENDBRANCH   9  14
ENDBRANCH   2   5
BRANCH   1  17
ATOM     17  C   UNL     1       2.912   5.144  18.444  0.00  0.00    +0.000 C 
ATOM     18  C   UNL     1       1.701   4.514  17.739  0.00  0.00    +0.000 C 
BRANCH  17  23
ATOM     19  C   UNL     1       6.817   4.842  14.124  0.00  0.00    +0.000 C 
ATOM     20  C   UNL     1       5.923   4.916  15.326  0.00  0.00    +0.000 A 
ATOM     21  C   UNL     1       5.484   3.763  15.981  0.00  0.00    +0.000 A 
ATOM     22  C   UNL     1       4.575   3.854  17.041  0.00  0.00    +0.000 A 
ATOM     23  C   UNL     1       4.082   5.102  17.469  0.00  0.00    +0.000 A 
ATOM     24  C   UNL     1       4.593   6.254  16.854  0.00  0.00    +0.000 A 
ATOM     25  C   UNL     1       5.506   6.163  15.800  0.00  0.00    +0.000 A 
ENDBRANCH  17  23
ENDBRANCH   1  17
TORSDOF 5
ENDMDL
MODEL 7
REMARK VINA RESULT:      -7.6      0.440      3.015
REMARK  Name = 
REMARK  7 active torsions:
REMARK  status: ('A' for Active; 'I' for Inactive)
REMARK    1  A    between atoms: C_1  and  C_2
REMARK    2  A    between atoms: C_5  and  C_6
REMARK    3  A    between atoms: C_6  and  C_7
REMARK    4  A    between atoms: C_6  and  N_8
REMARK    5  A    between atoms: C_9  and  C_11
REMARK    6  A    between atoms: C_13  and  N_14
REMARK    7  A    between atoms: C_18  and  N_19
REMARK                            x       y       z     vdW  Elec       q    Type
REMARK                         _______ _______ _______ _____ _____    ______ ____
ROOT
ATOM      1  N   UNL     1       1.443   9.016  18.511  0.00  0.00    +0.000 N 
ATOM      2  C   UNL     1       1.858   7.967  19.307  0.00  0.00    +0.000 C 
ATOM      3  O   UNL     1       1.664   7.909  20.515  0.00  0.00    +0.000 OA
ATOM      4  H   UNL     1       1.850   9.108  17.595  0.00  0.00    +0.000 HD
ENDROOT
BRANCH   2   5
ATOM      5  C   UNL     1       2.641   6.882  18.633  0.00  0.00    +0.000 A 
ATOM      6  C   UNL     1       3.680   7.246  17.760  0.00  0.00    +0.000 A 
ATOM      7  C   UNL     1       4.394   6.255  17.066  0.00  0.00    +0.000 A 
ATOM      8  C   UNL     1       4.083   4.901  17.226  0.00  0.00    +0.000 A 
ATOM      9  C   UNL     1       3.083   4.547  18.135  0.00  0.00    +0.000 A 
ATOM     10  C   UNL     1       2.368   5.526  18.852  0.00  0.00    +0.000 A 
BRANCH   7  11
ATOM     11  N   UNL     1       5.491   6.634  16.163  0.00  0.00    +0.000 N 
ATOM     12  O   UNL     1       6.639   6.640  16.623  0.00  0.00    +0.000 OA
ATOM     13  O   UNL     1       5.196   6.914  14.993  0.00  0.00    +0.000 OA
ENDBRANCH   7  11
BRANCH   9  14
ATOM     14  N   UNL     1       2.776   3.123  18.350  0.00  0.00    +0.000 N 
ATOM     15  O   UNL     1       1.586   2.794  18.380  0.00  0.00    +0.000 OA
ATOM     16  O   UNL     1       3.726   2.352  18.503  0.00  0.00    +0.000 OA
ENDBRANCH   9  14
ENDBRANCH   2   5
BRANCH   1  17
ATOM     17  C   UNL     1       0.825  10.222  19.065  0.00  0.00    +0.000 C 
ATOM     18  C   UNL     1       1.606  11.469  18.624  0.00  0.00    +0.000 C 
BRANCH  17  23
ATOM     19  C   UNL     1      -4.440  11.604  16.972  0.00  0.00    +0.000 C 
ATOM     20  C   UNL     1      -3.152  11.158  17.598  0.00  0.00    +0.000 A 
ATOM     21  C   UNL     1      -2.656  11.764  18.756  0.00  0.00    +0.000 A 
ATOM     22  C   UNL     1      -1.408  11.395  19.268  0.00  0.00    +0.000 A 
ATOM     23  C   UNL     1      -0.624  10.412  18.631  0.00  0.00    +0.000 A 
ATOM     24  C   UNL     1      -1.170   9.759  17.518  0.00  0.00    +0.000 A 
ATOM     25  C   UNL     1      -2.420  10.123  17.011  0.00  0.00    +0.000 A 
ENDBRANCH  17  23
ENDBRANCH   1  17
TORSDOF 5
ENDMDL
MODEL 8
REMARK VINA RESULT:      -7.5      1.873      3.507
REMARK  Name = 
REMARK  7 active torsions:
REMARK  status: ('A' for Active; 'I' for Inactive)
REMARK    1  A    between atoms: C_1  and  C_2
REMARK    2  A    between atoms: C_5  and  C_6
REMARK    3  A    between atoms: C_6  and  C_7
REMARK    4  A    between atoms: C_6  and  N_8
REMARK    5  A    between atoms: C_9  and  C_11
REMARK    6  A    between atoms: C_13  and  N_14
REMARK    7  A    between atoms: C_18  and  N_19
REMARK                            x       y       z     vdW  Elec       q    Type
REMARK                         _______ _______ _______ _____ _____    ______ ____
ROOT
ATOM      1  N   UNL     1       1.465   8.769  19.068  0.00  0.00    +0.000 N 
ATOM      2  C   UNL     1       1.592   7.975  20.191  0.00  0.00    +0.000 C 
ATOM      3  O   UNL     1       1.252   8.322  21.315  0.00  0.00    +0.000 OA
ATOM      4  H   UNL     1       1.986   8.515  18.245  0.00  0.00    +0.000 HD
ENDROOT
BRANCH   2   5
ATOM      5  C   UNL     1       2.242   6.639  19.997  0.00  0.00    +0.000 A 
ATOM      6  C   UNL     1       3.235   6.511  19.011  0.00  0.00    +0.000 A 
ATOM      7  C   UNL     1       3.822   5.260  18.763  0.00  0.00    +0.000 A 
ATOM      8  C   UNL     1       3.430   4.127  19.484  0.00  0.00    +0.000 A 
ATOM      9  C   UNL     1       2.480   4.275  20.498  0.00  0.00    +0.000 A 
ATOM     10  C   UNL     1       1.893   5.525  20.771  0.00  0.00    +0.000 A 
BRANCH   7  11
ATOM     11  N   UNL     1       4.871   5.128  17.740  0.00  0.00    +0.000 N 
ATOM     12  O   UNL     1       4.583   5.434  16.578  0.00  0.00    +0.000 OA
ATOM     13  O   UNL     1       5.982   4.727  18.112  0.00  0.00    +0.000 OA
ENDBRANCH   7  11
BRANCH   9  14
ATOM     14  N   UNL     1       2.091   3.101  21.298  0.00  0.00    +0.000 N 
ATOM     15  O   UNL     1       2.984   2.505  21.908  0.00  0.00    +0.000 OA
ATOM     16  O   UNL     1       0.901   2.779  21.293  0.00  0.00    +0.000 OA
ENDBRANCH   9  14
ENDBRANCH   2   5
BRANCH   1  17
ATOM     17  C   UNL     1       1.011  10.159  19.141  0.00  0.00    +0.000 C 
ATOM     18  C   UNL     1       1.887  11.050  18.248  0.00  0.00    +0.000 C 
BRANCH  17  23
ATOM     19  C   UNL     1      -4.245  11.542  17.029  0.00  0.00    +0.000 C 
ATOM     20  C   UNL     1      -2.960  11.093  17.657  0.00  0.00    +0.000 A 
ATOM     21  C   UNL     1      -2.483  11.672  18.836  0.00  0.00    +0.000 A 
ATOM     22  C   UNL     1      -1.236  11.303  19.351  0.00  0.00    +0.000 A 
ATOM     23  C   UNL     1      -0.435  10.346  18.697  0.00  0.00    +0.000 A 
ATOM     24  C   UNL     1      -0.962   9.717  17.560  0.00  0.00    +0.000 A 
ATOM     25  C   UNL     1      -2.211  10.082  17.050  0.00  0.00    +0.000 A 
ENDBRANCH  17  23
ENDBRANCH   1  17
TORSDOF 5
ENDMDL
MODEL 9
REMARK VINA RESULT:      -7.5      1.670      2.096
REMARK  Name = 
REMARK  7 active torsions:
REMARK  status: ('A' for Active; 'I' for Inactive)
REMARK    1  A    between atoms: C_1  and  C_2
REMARK    2  A    between atoms: C_5  and  C_6
REMARK    3  A    between atoms: C_6  and  C_7
REMARK    4  A    between atoms: C_6  and  N_8
REMARK    5  A    between atoms: C_9  and  C_11
REMARK    6  A    between atoms: C_13  and  N_14
REMARK    7  A    between atoms: C_18  and  N_19
REMARK                            x       y       z     vdW  Elec       q    Type
REMARK                         _______ _______ _______ _____ _____    ______ ____
ROOT
ATOM      1  N   UNL     1       1.356   9.071  18.947  0.00  0.00    +0.000 N 
ATOM      2  C   UNL     1       1.627   8.192  19.977  0.00  0.00    +0.000 C 
ATOM      3  O   UNL     1       1.465   8.458  21.161  0.00  0.00    +0.000 OA
ATOM      4  H   UNL     1       1.743   8.874  18.039  0.00  0.00    +0.000 HD
ENDROOT
BRANCH   2   5
ATOM      5  C   UNL     1       2.211   6.867  19.592  0.00  0.00    +0.000 A 
ATOM      6  C   UNL     1       1.921   5.747  20.388  0.00  0.00    +0.000 A 
ATOM      7  C   UNL     1       2.499   4.503  20.089  0.00  0.00    +0.000 A 
ATOM      8  C   UNL     1       3.372   4.358  19.005  0.00  0.00    +0.000 A 
ATOM      9  C   UNL     1       3.612   5.467  18.188  0.00  0.00    +0.000 A 
ATOM     10  C   UNL     1       3.028   6.717  18.464  0.00  0.00    +0.000 A 
BRANCH   7  11
ATOM     11  N   UNL     1       2.185   3.326  20.914  0.00  0.00    +0.000 N 
ATOM     12  O   UNL     1       2.260   3.448  22.142  0.00  0.00    +0.000 OA
ATOM     13  O   UNL     1       1.853   2.289  20.324  0.00  0.00    +0.000 OA
ENDBRANCH   7  11
BRANCH   9  14
ATOM     14  N   UNL     1       4.491   5.320  17.015  0.00  0.00    +0.000 N 
ATOM     15  O   UNL     1       4.816   6.347  16.413  0.00  0.00    +0.000 OA
ATOM     16  O   UNL     1       4.832   4.177  16.699  0.00  0.00    +0.000 OA
ENDBRANCH   9  14
ENDBRANCH   2   5
BRANCH   1  17
ATOM     17  C   UNL     1       0.950  10.457  19.188  0.00  0.00    +0.000 C 
ATOM     18  C   UNL     1       1.918  11.422  18.488  0.00  0.00    +0.000 C 
BRANCH  17  23
ATOM     19  C   UNL     1      -4.672  11.031  17.750  0.00  0.00    +0.000 C 
ATOM     20  C   UNL     1      -3.197  10.974  18.013  0.00  0.00    +0.000 A 
ATOM     21  C   UNL     1      -2.371  10.070  17.341  0.00  0.00    +0.000 A 
ATOM     22  C   UNL     1      -1.015   9.970  17.671  0.00  0.00    +0.000 A 
ATOM     23  C   UNL     1      -0.454  10.772  18.685  0.00  0.00    +0.000 A 
ATOM     24  C   UNL     1      -1.278  11.728  19.295  0.00  0.00    +0.000 A 
ATOM     25  C   UNL     1      -2.631  11.831  18.960  0.00  0.00    +0.000 A 
ENDBRANCH  17  23
ENDBRANCH   1  17
TORSDOF 5
ENDMDL
