MODEL 1
REMARK VINA RESULT:      -6.7      0.000      0.000
REMARK  Name = 
REMARK  2 active torsions:
REMARK  status: ('A' for Active; 'I' for Inactive)
REMARK    1  A    between atoms: C_5  and  C_6
REMARK    2  A    between atoms: C_8  and  C_9
REMARK                            x       y       z     vdW  Elec       q    Type
REMARK                         _______ _______ _______ _____ _____    ______ ____
ROOT
ATOM      1  C   UNL     1       5.742   4.369  17.650  0.00  0.00    +0.000 A 
ATOM      2  N   UNL     1       5.165   4.130  18.808  0.00  0.00    +0.000 NA
ATOM      3  C   UNL     1       3.847   3.991  18.447  0.00  0.00    +0.000 A 
ATOM      4  N   UNL     1       3.594   4.192  17.147  0.00  0.00    +0.000 NA
ATOM      5  O   UNL     1       4.860   4.434  16.609  0.00  0.00    +0.000 OA
ENDROOT
BRANCH   1  10
ATOM      6 BR   UNL     1       7.695   8.579  17.770  0.00  0.00    +0.000 Br
ATOM      7  C   UNL     1       7.702   6.730  17.806  0.00  0.00    +0.000 C 
ATOM      8  N   UNL     1       8.010   6.085  18.882  0.00  0.00    +0.000 NA
ATOM      9  O   UNL     1       7.894   4.704  18.568  0.00  0.00    +0.000 OA
ATOM     10  C   UNL     1       7.174   4.593  17.326  0.00  0.00    +0.000 C 
ATOM     11  C   UNL     1       7.428   5.898  16.614  0.00  0.00    +0.000 C 
ENDBRANCH   1  10
BRANCH   3  12
ATOM     12  C   UNL     1       2.836   3.641  19.446  0.00  0.00    +0.000 A 
ATOM     13  C   UNL     1       1.481   4.088  19.362  0.00  0.00    +0.000 A 
ATOM     14  C   UNL     1       0.723   3.649  20.426  0.00  0.00    +0.000 A 
ATOM     15  S   UNL     1       1.635   2.698  21.516  0.00  0.00    +0.000 S 
ATOM     16  C   UNL     1       3.051   2.873  20.570  0.00  0.00    +0.000 A 
ENDBRANCH   3  12
TORSDOF 2
ENDMDL
MODEL 2
REMARK VINA RESULT:      -6.7      2.204      2.774
REMARK  Name = 
REMARK  2 active torsions:
REMARK  status: ('A' for Active; 'I' for Inactive)
REMARK    1  A    between atoms: C_5  and  C_6
REMARK    2  A    between atoms: C_8  and  C_9
REMARK                            x       y       z     vdW  Elec       q    Type
REMARK                         _______ _______ _______ _____ _____    ______ ____
ROOT
ATOM      1  C   UNL     1       5.846   5.188  17.846  0.00  0.00    +0.000 A 
ATOM      2  N   UNL     1       4.556   5.161  18.104  0.00  0.00    +0.000 NA
ATOM      3  C   UNL     1       4.493   4.279  19.154  0.00  0.00    +0.000 A 
ATOM      4  N   UNL     1       5.665   3.730  19.501  0.00  0.00    +0.000 NA
ATOM      5  O   UNL     1       6.573   4.343  18.635  0.00  0.00    +0.000 OA
ENDROOT
BRANCH   1  10
ATOM      6 BR   UNL     1       6.129   3.879  13.401  0.00  0.00    +0.000 Br
ATOM      7  C   UNL     1       6.199   5.092  14.795  0.00  0.00    +0.000 C 
ATOM      8  N   UNL     1       5.316   6.027  14.910  0.00  0.00    +0.000 NA
ATOM      9  O   UNL     1       5.651   6.752  16.085  0.00  0.00    +0.000 OA
ATOM     10  C   UNL     1       6.600   5.967  16.832  0.00  0.00    +0.000 C 
ATOM     11  C   UNL     1       7.283   5.104  15.801  0.00  0.00    +0.000 C 
ENDBRANCH   1  10
BRANCH   3  12
ATOM     12  C   UNL     1       3.217   4.000  19.815  0.00  0.00    +0.000 A 
ATOM     13  C   UNL     1       2.107   4.898  19.763  0.00  0.00    +0.000 A 
ATOM     14  C   UNL     1       1.026   4.429  20.477  0.00  0.00    +0.000 A 
ATOM     15  S   UNL     1       1.343   2.913  21.202  0.00  0.00    +0.000 S 
ATOM     16  C   UNL     1       2.932   2.878  20.566  0.00  0.00    +0.000 A 
ENDBRANCH   3  12
TORSDOF 2
ENDMDL
MODEL 3
REMARK VINA RESULT:      -6.4      4.160      6.022
REMARK  Name = 
REMARK  2 active torsions:
REMARK  status: ('A' for Active; 'I' for Inactive)
REMARK    1  A    between atoms: C_5  and  C_6
REMARK    2  A    between atoms: C_8  and  C_9
REMARK                            x       y       z     vdW  Elec       q    Type
REMARK                         _______ _______ _______ _____ _____    ______ ____
ROOT
ATOM      1  C   UNL     1       6.015   4.516  18.020  0.00  0.00    +0.000 A 
ATOM      2  N   UNL     1       5.573   4.509  16.781  0.00  0.00    +0.000 NA
ATOM      3  C   UNL     1       6.740   4.445  16.061  0.00  0.00    +0.000 A 
ATOM      4  N   UNL     1       7.859   4.475  16.797  0.00  0.00    +0.000 NA
ATOM      5  O   UNL     1       7.379   4.511  18.108  0.00  0.00    +0.000 OA
ENDROOT
BRANCH   1  10
ATOM      6 BR   UNL     1       1.478   3.569  18.275  0.00  0.00    +0.000 Br
ATOM      7  C   UNL     1       3.191   3.743  18.950  0.00  0.00    +0.000 C 
ATOM      8  N   UNL     1       3.865   2.709  19.331  0.00  0.00    +0.000 NA
ATOM      9  O   UNL     1       5.128   3.194  19.767  0.00  0.00    +0.000 OA
ATOM     10  C   UNL     1       5.265   4.550  19.301  0.00  0.00    +0.000 C 
ATOM     11  C   UNL     1       3.851   5.052  19.152  0.00  0.00    +0.000 C 
ENDBRANCH   1  10
BRANCH   3  12
ATOM     12  C   UNL     1       6.709   4.347  14.601  0.00  0.00    +0.000 A 
ATOM     13  C   UNL     1       5.746   3.558  13.901  0.00  0.00    +0.000 A 
ATOM     14  C   UNL     1       5.930   3.604  12.535  0.00  0.00    +0.000 A 
ATOM     15  S   UNL     1       7.252   4.598  12.099  0.00  0.00    +0.000 S 
ATOM     16  C   UNL     1       7.586   4.968  13.737  0.00  0.00    +0.000 A 
ENDBRANCH   3  12
TORSDOF 2
ENDMDL
MODEL 4
REMARK VINA RESULT:      -6.3      2.253      2.915
REMARK  Name = 
REMARK  2 active torsions:
REMARK  status: ('A' for Active; 'I' for Inactive)
REMARK    1  A    between atoms: C_5  and  C_6
REMARK    2  A    between atoms: C_8  and  C_9
REMARK                            x       y       z     vdW  Elec       q    Type
REMARK                         _______ _______ _______ _____ _____    ______ ____
ROOT
ATOM      1  C   UNL     1       5.834   5.052  17.870  0.00  0.00    +0.000 A 
ATOM      2  N   UNL     1       4.531   4.915  17.988  0.00  0.00    +0.000 NA
ATOM      3  C   UNL     1       4.428   4.098  19.087  0.00  0.00    +0.000 A 
ATOM      4  N   UNL     1       5.598   3.691  19.598  0.00  0.00    +0.000 NA
ATOM      5  O   UNL     1       6.540   4.335  18.794  0.00  0.00    +0.000 OA
ENDROOT
BRANCH   1  10
ATOM      6 BR   UNL     1       6.131   3.869  13.391  0.00  0.00    +0.000 Br
ATOM      7  C   UNL     1       6.222   5.036  14.822  0.00  0.00    +0.000 C 
ATOM      8  N   UNL     1       5.368   5.996  14.955  0.00  0.00    +0.000 NA
ATOM      9  O   UNL     1       5.712   6.674  16.156  0.00  0.00    +0.000 OA
ATOM     10  C   UNL     1       6.626   5.837  16.889  0.00  0.00    +0.000 C 
ATOM     11  C   UNL     1       7.294   4.984  15.840  0.00  0.00    +0.000 C 
ENDBRANCH   1  10
BRANCH   3  12
ATOM     12  C   UNL     1       3.116   3.737  19.625  0.00  0.00    +0.000 A 
ATOM     13  C   UNL     1       2.956   2.912  20.781  0.00  0.00    +0.000 A 
ATOM     14  C   UNL     1       1.629   2.693  21.083  0.00  0.00    +0.000 A 
ATOM     15  S   UNL     1       0.582   3.482  19.984  0.00  0.00    +0.000 S 
ATOM     16  C   UNL     1       1.900   4.118  19.097  0.00  0.00    +0.000 A 
ENDBRANCH   3  12
TORSDOF 2
ENDMDL
MODEL 5
REMARK VINA RESULT:      -6.3      3.979      6.065
REMARK  Name = 
REMARK  2 active torsions:
REMARK  status: ('A' for Active; 'I' for Inactive)
REMARK    1  A    between atoms: C_5  and  C_6
REMARK    2  A    between atoms: C_8  and  C_9
REMARK                            x       y       z     vdW  Elec       q    Type
REMARK                         _______ _______ _______ _____ _____    ______ ____
ROOT
ATOM      1  C   UNL     1       6.097   4.730  17.985  0.00  0.00    +0.000 A 
ATOM      2  N   UNL     1       5.711   4.795  16.729  0.00  0.00    +0.000 NA
ATOM      3  C   UNL     1       6.874   4.510  16.057  0.00  0.00    +0.000 A 
ATOM      4  N   UNL     1       7.948   4.337  16.839  0.00  0.00    +0.000 NA
ATOM      5  O   UNL     1       7.430   4.473  18.129  0.00  0.00    +0.000 OA
ENDROOT
BRANCH   1  10
ATOM      6 BR   UNL     1       1.546   3.847  18.227  0.00  0.00    +0.000 Br
ATOM      7  C   UNL     1       3.243   4.084  18.922  0.00  0.00    +0.000 C 
ATOM      8  N   UNL     1       3.897   3.096  19.434  0.00  0.00    +0.000 NA
ATOM      9  O   UNL     1       5.154   3.618  19.846  0.00  0.00    +0.000 OA
ATOM     10  C   UNL     1       5.315   4.913  19.234  0.00  0.00    +0.000 C 
ATOM     11  C   UNL     1       3.909   5.403  18.993  0.00  0.00    +0.000 C 
ENDBRANCH   1  10
BRANCH   3  12
ATOM     12  C   UNL     1       6.884   4.407  14.597  0.00  0.00    +0.000 A 
ATOM     13  C   UNL     1       7.683   5.254  13.769  0.00  0.00    +0.000 A 
ATOM     14  C   UNL     1       7.509   4.983  12.429  0.00  0.00    +0.000 A 
ATOM     15  S   UNL     1       6.394   3.713  12.170  0.00  0.00    +0.000 S 
ATOM     16  C   UNL     1       6.136   3.521  13.851  0.00  0.00    +0.000 A 
ENDBRANCH   3  12
TORSDOF 2
ENDMDL
MODEL 6
REMARK VINA RESULT:      -6.2      1.577      1.715
REMARK  Name = 
REMARK  2 active torsions:
REMARK  status: ('A' for Active; 'I' for Inactive)
REMARK    1  A    between atoms: C_5  and  C_6
REMARK    2  A    between atoms: C_8  and  C_9
REMARK                            x       y       z     vdW  Elec       q    Type
REMARK                         _______ _______ _______ _____ _____    ______ ____
ROOT
ATOM      1  C   UNL     1       4.514   5.138  16.785  0.00  0.00    +0.000 A 
ATOM      2  N   UNL     1       3.698   5.212  17.815  0.00  0.00    +0.000 NA
ATOM      3  C   UNL     1       3.470   3.888  18.094  0.00  0.00    +0.000 A 
ATOM      4  N   UNL     1       4.055   3.025  17.253  0.00  0.00    +0.000 NA
ATOM      5  O   UNL     1       4.763   3.857  16.383  0.00  0.00    +0.000 OA
ENDROOT
BRANCH   1  10
ATOM      6 BR   UNL     1       8.151   7.526  18.405  0.00  0.00    +0.000 Br
ATOM      7  C   UNL     1       7.039   6.862  17.084  0.00  0.00    +0.000 C 
ATOM      8  N   UNL     1       7.453   5.965  16.253  0.00  0.00    +0.000 NA
ATOM      9  O   UNL     1       6.355   5.671  15.401  0.00  0.00    +0.000 OA
ATOM     10  C   UNL     1       5.168   6.220  16.006  0.00  0.00    +0.000 C 
ATOM     11  C   UNL     1       5.663   7.358  16.863  0.00  0.00    +0.000 C 
ENDBRANCH   1  10
BRANCH   3  12
ATOM     12  C   UNL     1       2.647   3.501  19.241  0.00  0.00    +0.000 A 
ATOM     13  C   UNL     1       1.224   3.628  19.248  0.00  0.00    +0.000 A 
ATOM     14  C   UNL     1       0.672   3.220  20.444  0.00  0.00    +0.000 A 
ATOM     15  S   UNL     1       1.861   2.681  21.549  0.00  0.00    +0.000 S 
ATOM     16  C   UNL     1       3.121   2.994  20.433  0.00  0.00    +0.000 A 
ENDBRANCH   3  12
TORSDOF 2
ENDMDL
MODEL 7
REMARK VINA RESULT:      -6.2      3.672      3.955
REMARK  Name = 
REMARK  2 active torsions:
REMARK  status: ('A' for Active; 'I' for Inactive)
REMARK    1  A    between atoms: C_5  and  C_6
REMARK    2  A    between atoms: C_8  and  C_9
REMARK                            x       y       z     vdW  Elec       q    Type
REMARK                         _______ _______ _______ _____ _____    ______ ____
ROOT
ATOM      1  C   UNL     1       5.208   5.219  17.346  0.00  0.00    +0.000 A 
ATOM      2  N   UNL     1       4.828   6.433  17.684  0.00  0.00    +0.000 NA
ATOM      3  C   UNL     1       3.497   6.248  17.965  0.00  0.00    +0.000 A 
ATOM      4  N   UNL     1       3.044   5.004  17.758  0.00  0.00    +0.000 NA
ATOM      5  O   UNL     1       4.187   4.311  17.354  0.00  0.00    +0.000 OA
ENDROOT
BRANCH   1  10
ATOM      6 BR   UNL     1       6.158   3.820  13.023  0.00  0.00    +0.000 Br
ATOM      7  C   UNL     1       6.584   4.441  14.712  0.00  0.00    +0.000 C 
ATOM      8  N   UNL     1       7.047   5.634  14.887  0.00  0.00    +0.000 NA
ATOM      9  O   UNL     1       7.243   5.786  16.286  0.00  0.00    +0.000 OA
ATOM     10  C   UNL     1       6.546   4.713  16.948  0.00  0.00    +0.000 C 
ATOM     11  C   UNL     1       6.487   3.604  15.928  0.00  0.00    +0.000 C 
ENDBRANCH   1  10
BRANCH   3  12
ATOM     12  C   UNL     1       2.681   7.358  18.459  0.00  0.00    +0.000 A 
ATOM     13  C   UNL     1       2.345   8.488  17.652  0.00  0.00    +0.000 A 
ATOM     14  C   UNL     1       1.587   9.411  18.340  0.00  0.00    +0.000 A 
ATOM     15  S   UNL     1       1.276   8.915  19.948  0.00  0.00    +0.000 S 
ATOM     16  C   UNL     1       2.157   7.464  19.730  0.00  0.00    +0.000 A 
ENDBRANCH   3  12
TORSDOF 2
ENDMDL
MODEL 8
REMARK VINA RESULT:      -6.1      2.375      2.545
REMARK  Name = 
REMARK  2 active torsions:
REMARK  status: ('A' for Active; 'I' for Inactive)
REMARK    1  A    between atoms: C_5  and  C_6
REMARK    2  A    between atoms: C_8  and  C_9
REMARK                            x       y       z     vdW  Elec       q    Type
REMARK                         _______ _______ _______ _____ _____    ______ ____
ROOT
ATOM      1  C   UNL     1       5.590   5.258  17.864  0.00  0.00    +0.000 A 
ATOM      2  N   UNL     1       5.017   4.288  18.544  0.00  0.00    +0.000 NA
ATOM      3  C   UNL     1       3.848   4.880  18.956  0.00  0.00    +0.000 A 
ATOM      4  N   UNL     1       3.717   6.169  18.611  0.00  0.00    +0.000 NA
ATOM      5  O   UNL     1       4.875   6.421  17.872  0.00  0.00    +0.000 OA
ENDROOT
BRANCH   1  10
ATOM      6 BR   UNL     1       5.983   3.731  13.498  0.00  0.00    +0.000 Br
ATOM      7  C   UNL     1       6.496   4.712  14.980  0.00  0.00    +0.000 C 
ATOM      8  N   UNL     1       6.438   6.002  14.977  0.00  0.00    +0.000 NA
ATOM      9  O   UNL     1       6.878   6.424  16.261  0.00  0.00    +0.000 OA
ATOM     10  C   UNL     1       6.880   5.273  17.127  0.00  0.00    +0.000 C 
ATOM     11  C   UNL     1       7.054   4.094  16.203  0.00  0.00    +0.000 C 
ENDBRANCH   1  10
BRANCH   3  12
ATOM     12  C   UNL     1       2.851   4.116  19.705  0.00  0.00    +0.000 A 
ATOM     13  C   UNL     1       1.454   4.166  19.406  0.00  0.00    +0.000 A 
ATOM     14  C   UNL     1       0.712   3.379  20.260  0.00  0.00    +0.000 A 
ATOM     15  S   UNL     1       1.691   2.580  21.412  0.00  0.00    +0.000 S 
ATOM     16  C   UNL     1       3.114   3.286  20.775  0.00  0.00    +0.000 A 
ENDBRANCH   3  12
TORSDOF 2
ENDMDL
MODEL 9
REMARK VINA RESULT:      -6.1      3.836      4.178
REMARK  Name = 
REMARK  2 active torsions:
REMARK  status: ('A' for Active; 'I' for Inactive)
REMARK    1  A    between atoms: C_5  and  C_6
REMARK    2  A    between atoms: C_8  and  C_9
REMARK                            x       y       z     vdW  Elec       q    Type
REMARK                         _______ _______ _______ _____ _____    ______ ____
ROOT
ATOM      1  C   UNL     1       4.914   5.341  17.315  0.00  0.00    +0.000 A 
ATOM      2  N   UNL     1       4.573   6.567  17.651  0.00  0.00    +0.000 NA
ATOM      3  C   UNL     1       3.251   6.414  17.988  0.00  0.00    +0.000 A 
ATOM      4  N   UNL     1       2.765   5.177  17.816  0.00  0.00    +0.000 NA
ATOM      5  O   UNL     1       3.877   4.455  17.376  0.00  0.00    +0.000 OA
ENDROOT
BRANCH   1  10
ATOM      6 BR   UNL     1       5.626   3.750  13.013  0.00  0.00    +0.000 Br
ATOM      7  C   UNL     1       6.145   4.436  14.650  0.00  0.00    +0.000 C 
ATOM      8  N   UNL     1       6.628   5.630  14.749  0.00  0.00    +0.000 NA
ATOM      9  O   UNL     1       6.897   5.839  16.129  0.00  0.00    +0.000 OA
ATOM     10  C   UNL     1       6.225   4.804  16.871  0.00  0.00    +0.000 C 
ATOM     11  C   UNL     1       6.103   3.653  15.904  0.00  0.00    +0.000 C 
ENDBRANCH   1  10
BRANCH   3  12
ATOM     12  C   UNL     1       2.477   7.546  18.499  0.00  0.00    +0.000 A 
ATOM     13  C   UNL     1       2.020   7.622  19.850  0.00  0.00    +0.000 A 
ATOM     14  C   UNL     1       1.296   8.770  20.090  0.00  0.00    +0.000 A 
ATOM     15  S   UNL     1       1.171   9.753  18.696  0.00  0.00    +0.000 S 
ATOM     16  C   UNL     1       2.084   8.645  17.764  0.00  0.00    +0.000 A 
ENDBRANCH   3  12
TORSDOF 2
ENDMDL
