MODEL 1
REMARK VINA RESULT:      -9.5      0.000      0.000
REMARK  Name = 
REMARK  3 active torsions:
REMARK  status: ('A' for Active; 'I' for Inactive)
REMARK    1  A    between atoms: C_1  and  C_2
REMARK    2  A    between atoms: C_12  and  C_13
REMARK    3  A    between atoms: C_13  and  N_14
REMARK                            x       y       z     vdW  Elec       q    Type
REMARK                         _______ _______ _______ _____ _____    ______ ____
ROOT
ATOM      1  C   UNL     1       7.705   6.835  17.867  0.00  0.00    +0.000 C 
ATOM      2  C   UNL     1       6.889   6.036  16.890  0.00  0.00    +0.000 A 
ATOM      3  O   UNL     1       7.510   5.967  15.651  0.00  0.00    +0.000 OA
ATOM      4  C   UNL     1       6.970   5.170  14.681  0.00  0.00    +0.000 A 
ATOM      5  C   UNL     1       7.686   5.032  13.495  0.00  0.00    +0.000 A 
ATOM      6  C   UNL     1       7.198   4.208  12.480  0.00  0.00    +0.000 A 
ATOM      7  C   UNL     1       5.985   3.535  12.648  0.00  0.00    +0.000 A 
ATOM      8  C   UNL     1       5.259   3.691  13.827  0.00  0.00    +0.000 A 
ATOM      9  C   UNL     1       5.760   4.511  14.842  0.00  0.00    +0.000 A 
ATOM     10  C   UNL     1       5.020   4.702  16.096  0.00  0.00    +0.000 A 
ATOM     11  O   UNL     1       3.884   4.274  16.226  0.00  0.00    +0.000 OA
ATOM     12  C   UNL     1       5.706   5.453  17.180  0.00  0.00    +0.000 A 
ENDROOT
BRANCH  12  13
ATOM     13  C   UNL     1       4.930   5.594  18.459  0.00  0.00    +0.000 C 
BRANCH  13  14
ATOM     14  N   UNL     1       4.477   4.337  19.037  0.00  0.00    +0.000 N 
ATOM     15  N   UNL     1       5.393   3.389  19.337  0.00  0.00    +0.000 NA
ATOM     16  N   UNL     1       4.823   2.522  20.164  0.00  0.00    +0.000 NA
ATOM     17  C   UNL     1       3.532   2.920  20.374  0.00  0.00    +0.000 A 
ATOM     18  C   UNL     1       2.533   2.385  21.203  0.00  0.00    +0.000 A 
ATOM     19  C   UNL     1       1.278   3.006  21.230  0.00  0.00    +0.000 A 
ATOM     20  C   UNL     1       1.020   4.126  20.437  0.00  0.00    +0.000 A 
ATOM     21  C   UNL     1       2.010   4.682  19.619  0.00  0.00    +0.000 A 
ATOM     22  C   UNL     1       3.264   4.059  19.622  0.00  0.00    +0.000 A 
ENDBRANCH  13  14
ENDBRANCH  12  13
TORSDOF 2
ENDMDL
MODEL 2
REMARK VINA RESULT:      -8.4      0.995      1.699
REMARK  Name = 
REMARK  3 active torsions:
REMARK  status: ('A' for Active; 'I' for Inactive)
REMARK    1  A    between atoms: C_1  and  C_2
REMARK    2  A    between atoms: C_12  and  C_13
REMARK    3  A    between atoms: C_13  and  N_14
REMARK                            x       y       z     vdW  Elec       q    Type
REMARK                         _______ _______ _______ _____ _____    ______ ____
ROOT
ATOM      1  C   UNL     1       7.867   6.729  18.234  0.00  0.00    +0.000 C 
ATOM      2  C   UNL     1       7.132   5.807  17.302  0.00  0.00    +0.000 A 
ATOM      3  O   UNL     1       7.481   6.046  15.979  0.00  0.00    +0.000 OA
ATOM      4  C   UNL     1       7.005   5.211  15.007  0.00  0.00    +0.000 A 
ATOM      5  C   UNL     1       7.473   5.409  13.710  0.00  0.00    +0.000 A 
ATOM      6  C   UNL     1       7.045   4.569  12.681  0.00  0.00    +0.000 A 
ATOM      7  C   UNL     1       6.136   3.542  12.949  0.00  0.00    +0.000 A 
ATOM      8  C   UNL     1       5.652   3.360  14.244  0.00  0.00    +0.000 A 
ATOM      9  C   UNL     1       6.094   4.199  15.270  0.00  0.00    +0.000 A 
ATOM     10  C   UNL     1       5.602   4.039  16.644  0.00  0.00    +0.000 A 
ATOM     11  O   UNL     1       4.688   3.271  16.898  0.00  0.00    +0.000 OA
ATOM     12  C   UNL     1       6.251   4.865  17.697  0.00  0.00    +0.000 A 
ENDROOT
BRANCH  12  13
ATOM     13  C   UNL     1       5.745   4.644  19.094  0.00  0.00    +0.000 C 
BRANCH  13  14
ATOM     14  N   UNL     1       4.358   5.033  19.308  0.00  0.00    +0.000 N 
ATOM     15  N   UNL     1       3.863   6.087  18.620  0.00  0.00    +0.000 NA
ATOM     16  N   UNL     1       2.539   6.027  18.686  0.00  0.00    +0.000 NA
ATOM     17  C   UNL     1       2.199   4.934  19.434  0.00  0.00    +0.000 A 
ATOM     18  C   UNL     1       0.941   4.400  19.752  0.00  0.00    +0.000 A 
ATOM     19  C   UNL     1       0.882   3.249  20.547  0.00  0.00    +0.000 A 
ATOM     20  C   UNL     1       2.049   2.653  21.026  0.00  0.00    +0.000 A 
ATOM     21  C   UNL     1       3.312   3.163  20.704  0.00  0.00    +0.000 A 
ATOM     22  C   UNL     1       3.350   4.302  19.891  0.00  0.00    +0.000 A 
ENDBRANCH  13  14
ENDBRANCH  12  13
TORSDOF 2
ENDMDL
MODEL 3
REMARK VINA RESULT:      -8.1      6.462      8.392
REMARK  Name = 
REMARK  3 active torsions:
REMARK  status: ('A' for Active; 'I' for Inactive)
REMARK    1  A    between atoms: C_1  and  C_2
REMARK    2  A    between atoms: C_12  and  C_13
REMARK    3  A    between atoms: C_13  and  N_14
REMARK                            x       y       z     vdW  Elec       q    Type
REMARK                         _______ _______ _______ _____ _____    ______ ____
ROOT
ATOM      1  C   UNL     1       0.182   9.329  21.972  0.00  0.00    +0.000 C 
ATOM      2  C   UNL     1       0.930   8.878  20.749  0.00  0.00    +0.000 A 
ATOM      3  O   UNL     1       1.510   7.632  20.944  0.00  0.00    +0.000 OA
ATOM      4  C   UNL     1       2.119   7.012  19.889  0.00  0.00    +0.000 A 
ATOM      5  C   UNL     1       2.581   5.714  20.092  0.00  0.00    +0.000 A 
ATOM      6  C   UNL     1       3.186   5.019  19.043  0.00  0.00    +0.000 A 
ATOM      7  C   UNL     1       3.341   5.631  17.797  0.00  0.00    +0.000 A 
ATOM      8  C   UNL     1       2.897   6.938  17.602  0.00  0.00    +0.000 A 
ATOM      9  C   UNL     1       2.284   7.623  18.655  0.00  0.00    +0.000 A 
ATOM     10  C   UNL     1       1.809   9.002  18.487  0.00  0.00    +0.000 A 
ATOM     11  O   UNL     1       2.068   9.637  17.478  0.00  0.00    +0.000 OA
ATOM     12  C   UNL     1       1.022   9.588  19.605  0.00  0.00    +0.000 A 
ENDROOT
BRANCH  12  13
ATOM     13  C   UNL     1       0.523  10.987  19.378  0.00  0.00    +0.000 C 
BRANCH  13  14
ATOM     14  N   UNL     1      -0.925  11.106  19.273  0.00  0.00    +0.000 N 
ATOM     15  N   UNL     1      -1.575  11.923  20.133  0.00  0.00    +0.000 NA
ATOM     16  N   UNL     1      -2.782  12.158  19.634  0.00  0.00    +0.000 NA
ATOM     17  C   UNL     1      -2.897  11.472  18.456  0.00  0.00    +0.000 A 
ATOM     18  C   UNL     1      -3.941  11.431  17.520  0.00  0.00    +0.000 A 
ATOM     19  C   UNL     1      -3.789  10.633  16.379  0.00  0.00    +0.000 A 
ATOM     20  C   UNL     1      -2.629   9.881  16.184  0.00  0.00    +0.000 A 
ATOM     21  C   UNL     1      -1.572   9.925  17.100  0.00  0.00    +0.000 A 
ATOM     22  C   UNL     1      -1.734  10.744  18.223  0.00  0.00    +0.000 A 
ENDBRANCH  13  14
ENDBRANCH  12  13
TORSDOF 2
ENDMDL
MODEL 4
REMARK VINA RESULT:      -7.8      1.886      2.727
REMARK  Name = 
REMARK  3 active torsions:
REMARK  status: ('A' for Active; 'I' for Inactive)
REMARK    1  A    between atoms: C_1  and  C_2
REMARK    2  A    between atoms: C_12  and  C_13
REMARK    3  A    between atoms: C_13  and  N_14
REMARK                            x       y       z     vdW  Elec       q    Type
REMARK                         _______ _______ _______ _____ _____    ______ ____
ROOT
ATOM      1  C   UNL     1       7.764   6.464  18.266  0.00  0.00    +0.000 C 
ATOM      2  C   UNL     1       7.028   5.625  17.259  0.00  0.00    +0.000 A 
ATOM      3  O   UNL     1       7.464   5.890  15.968  0.00  0.00    +0.000 OA
ATOM      4  C   UNL     1       6.993   5.123  14.939  0.00  0.00    +0.000 A 
ATOM      5  C   UNL     1       7.544   5.339  13.678  0.00  0.00    +0.000 A 
ATOM      6  C   UNL     1       7.125   4.566  12.594  0.00  0.00    +0.000 A 
ATOM      7  C   UNL     1       6.142   3.589  12.771  0.00  0.00    +0.000 A 
ATOM      8  C   UNL     1       5.576   3.389  14.030  0.00  0.00    +0.000 A 
ATOM      9  C   UNL     1       6.009   4.160  15.111  0.00  0.00    +0.000 A 
ATOM     10  C   UNL     1       5.433   3.981  16.449  0.00  0.00    +0.000 A 
ATOM     11  O   UNL     1       4.461   3.263  16.623  0.00  0.00    +0.000 OA
ATOM     12  C   UNL     1       6.070   4.726  17.568  0.00  0.00    +0.000 A 
ENDROOT
BRANCH  12  13
ATOM     13  C   UNL     1       5.475   4.485  18.926  0.00  0.00    +0.000 C 
BRANCH  13  14
ATOM     14  N   UNL     1       4.136   5.028  19.108  0.00  0.00    +0.000 N 
ATOM     15  N   UNL     1       3.363   4.536  20.103  0.00  0.00    +0.000 NA
ATOM     16  N   UNL     1       2.377   5.398  20.314  0.00  0.00    +0.000 NA
ATOM     17  C   UNL     1       2.522   6.434  19.433  0.00  0.00    +0.000 A 
ATOM     18  C   UNL     1       1.783   7.617  19.283  0.00  0.00    +0.000 A 
ATOM     19  C   UNL     1       2.160   8.523  18.284  0.00  0.00    +0.000 A 
ATOM     20  C   UNL     1       3.240   8.248  17.443  0.00  0.00    +0.000 A 
ATOM     21  C   UNL     1       3.998   7.081  17.591  0.00  0.00    +0.000 A 
ATOM     22  C   UNL     1       3.618   6.199  18.609  0.00  0.00    +0.000 A 
ENDBRANCH  13  14
ENDBRANCH  12  13
TORSDOF 2
ENDMDL
MODEL 5
REMARK VINA RESULT:      -7.8      3.376      7.139
REMARK  Name = 
REMARK  3 active torsions:
REMARK  status: ('A' for Active; 'I' for Inactive)
REMARK    1  A    between atoms: C_1  and  C_2
REMARK    2  A    between atoms: C_12  and  C_13
REMARK    3  A    between atoms: C_13  and  N_14
REMARK                            x       y       z     vdW  Elec       q    Type
REMARK                         _______ _______ _______ _____ _____    ______ ____
ROOT
ATOM      1  C   UNL     1       1.964   4.656  21.157  0.00  0.00    +0.000 C 
ATOM      2  C   UNL     1       1.848   5.982  20.460  0.00  0.00    +0.000 A 
ATOM      3  O   UNL     1       1.187   6.912  21.250  0.00  0.00    +0.000 OA
ATOM      4  C   UNL     1       1.108   8.208  20.824  0.00  0.00    +0.000 A 
ATOM      5  C   UNL     1       0.545   9.135  21.699  0.00  0.00    +0.000 A 
ATOM      6  C   UNL     1       0.464  10.478  21.331  0.00  0.00    +0.000 A 
ATOM      7  C   UNL     1       0.932  10.890  20.080  0.00  0.00    +0.000 A 
ATOM      8  C   UNL     1       1.475   9.958  19.198  0.00  0.00    +0.000 A 
ATOM      9  C   UNL     1       1.562   8.616  19.579  0.00  0.00    +0.000 A 
ATOM     10  C   UNL     1       2.124   7.606  18.674  0.00  0.00    +0.000 A 
ATOM     11  O   UNL     1       2.391   7.881  17.515  0.00  0.00    +0.000 OA
ATOM     12  C   UNL     1       2.329   6.240  19.225  0.00  0.00    +0.000 A 
ENDROOT
BRANCH  12  13
ATOM     13  C   UNL     1       2.941   5.247  18.279  0.00  0.00    +0.000 C 
BRANCH  13  14
ATOM     14  N   UNL     1       4.396   5.267  18.232  0.00  0.00    +0.000 N 
ATOM     15  N   UNL     1       5.089   4.996  19.361  0.00  0.00    +0.000 NA
ATOM     16  N   UNL     1       6.337   4.711  19.012  0.00  0.00    +0.000 NA
ATOM     17  C   UNL     1       6.433   4.819  17.652  0.00  0.00    +0.000 A 
ATOM     18  C   UNL     1       7.512   4.568  16.790  0.00  0.00    +0.000 A 
ATOM     19  C   UNL     1       7.330   4.760  15.414  0.00  0.00    +0.000 A 
ATOM     20  C   UNL     1       6.106   5.204  14.912  0.00  0.00    +0.000 A 
ATOM     21  C   UNL     1       5.016   5.442  15.757  0.00  0.00    +0.000 A 
ATOM     22  C   UNL     1       5.212   5.225  17.126  0.00  0.00    +0.000 A 
ENDBRANCH  13  14
ENDBRANCH  12  13
TORSDOF 2
ENDMDL
MODEL 6
REMARK VINA RESULT:      -7.7      3.548      7.120
REMARK  Name = 
REMARK  3 active torsions:
REMARK  status: ('A' for Active; 'I' for Inactive)
REMARK    1  A    between atoms: C_1  and  C_2
REMARK    2  A    between atoms: C_12  and  C_13
REMARK    3  A    between atoms: C_13  and  N_14
REMARK                            x       y       z     vdW  Elec       q    Type
REMARK                         _______ _______ _______ _____ _____    ______ ____
ROOT
ATOM      1  C   UNL     1       2.579   4.592  20.504  0.00  0.00    +0.000 C 
ATOM      2  C   UNL     1       2.263   5.961  19.972  0.00  0.00    +0.000 A 
ATOM      3  O   UNL     1       1.637   6.744  20.933  0.00  0.00    +0.000 OA
ATOM      4  C   UNL     1       1.396   8.061  20.661  0.00  0.00    +0.000 A 
ATOM      5  C   UNL     1       0.878   8.842  21.691  0.00  0.00    +0.000 A 
ATOM      6  C   UNL     1       0.639  10.200  21.482  0.00  0.00    +0.000 A 
ATOM      7  C   UNL     1       0.904  10.773  20.235  0.00  0.00    +0.000 A 
ATOM      8  C   UNL     1       1.401   9.985  19.198  0.00  0.00    +0.000 A 
ATOM      9  C   UNL     1       1.648   8.628  19.419  0.00  0.00    +0.000 A 
ATOM     10  C   UNL     1       2.167   7.767  18.350  0.00  0.00    +0.000 A 
ATOM     11  O   UNL     1       2.257   8.176  17.203  0.00  0.00    +0.000 OA
ATOM     12  C   UNL     1       2.555   6.381  18.723  0.00  0.00    +0.000 A 
ENDROOT
BRANCH  12  13
ATOM     13  C   UNL     1       3.117   5.545  17.608  0.00  0.00    +0.000 C 
BRANCH  13  14
ATOM     14  N   UNL     1       4.481   5.882  17.223  0.00  0.00    +0.000 N 
ATOM     15  N   UNL     1       4.682   6.608  16.101  0.00  0.00    +0.000 NA
ATOM     16  N   UNL     1       5.915   7.096  16.149  0.00  0.00    +0.000 NA
ATOM     17  C   UNL     1       6.500   6.660  17.306  0.00  0.00    +0.000 A 
ATOM     18  C   UNL     1       7.762   6.937  17.852  0.00  0.00    +0.000 A 
ATOM     19  C   UNL     1       8.109   6.349  19.075  0.00  0.00    +0.000 A 
ATOM     20  C   UNL     1       7.222   5.492  19.730  0.00  0.00    +0.000 A 
ATOM     21  C   UNL     1       5.953   5.220  19.207  0.00  0.00    +0.000 A 
ATOM     22  C   UNL     1       5.618   5.834  17.995  0.00  0.00    +0.000 A 
ENDBRANCH  13  14
ENDBRANCH  12  13
TORSDOF 2
ENDMDL
MODEL 7
REMARK VINA RESULT:      -7.5      2.921      4.519
REMARK  Name = 
REMARK  3 active torsions:
REMARK  status: ('A' for Active; 'I' for Inactive)
REMARK    1  A    between atoms: C_1  and  C_2
REMARK    2  A    between atoms: C_12  and  C_13
REMARK    3  A    between atoms: C_13  and  N_14
REMARK                            x       y       z     vdW  Elec       q    Type
REMARK                         _______ _______ _______ _____ _____    ______ ____
ROOT
ATOM      1  C   UNL     1       1.668   3.787  17.829  0.00  0.00    +0.000 C 
ATOM      2  C   UNL     1       3.105   4.203  17.690  0.00  0.00    +0.000 A 
ATOM      3  O   UNL     1       3.630   3.799  16.470  0.00  0.00    +0.000 OA
ATOM      4  C   UNL     1       4.887   4.207  16.122  0.00  0.00    +0.000 A 
ATOM      5  C   UNL     1       5.332   3.883  14.842  0.00  0.00    +0.000 A 
ATOM      6  C   UNL     1       6.596   4.298  14.419  0.00  0.00    +0.000 A 
ATOM      7  C   UNL     1       7.419   5.023  15.285  0.00  0.00    +0.000 A 
ATOM      8  C   UNL     1       6.981   5.327  16.573  0.00  0.00    +0.000 A 
ATOM      9  C   UNL     1       5.711   4.916  16.984  0.00  0.00    +0.000 A 
ATOM     10  C   UNL     1       5.217   5.215  18.334  0.00  0.00    +0.000 A 
ATOM     11  O   UNL     1       5.956   5.695  19.180  0.00  0.00    +0.000 OA
ATOM     12  C   UNL     1       3.797   4.887  18.626  0.00  0.00    +0.000 A 
ENDROOT
BRANCH  12  13
ATOM     13  C   UNL     1       3.322   5.242  20.006  0.00  0.00    +0.000 C 
BRANCH  13  14
ATOM     14  N   UNL     1       2.306   6.285  20.050  0.00  0.00    +0.000 N 
ATOM     15  N   UNL     1       1.530   6.392  21.152  0.00  0.00    +0.000 NA
ATOM     16  N   UNL     1       0.959   7.590  21.131  0.00  0.00    +0.000 NA
ATOM     17  C   UNL     1       1.369   8.236  19.997  0.00  0.00    +0.000 A 
ATOM     18  C   UNL     1       1.102   9.535  19.538  0.00  0.00    +0.000 A 
ATOM     19  C   UNL     1       1.663   9.947  18.323  0.00  0.00    +0.000 A 
ATOM     20  C   UNL     1       2.461   9.078  17.576  0.00  0.00    +0.000 A 
ATOM     21  C   UNL     1       2.751   7.786  18.028  0.00  0.00    +0.000 A 
ATOM     22  C   UNL     1       2.197   7.401  19.255  0.00  0.00    +0.000 A 
ENDBRANCH  13  14
ENDBRANCH  12  13
TORSDOF 2
ENDMDL
MODEL 8
REMARK VINA RESULT:      -7.4      1.235      2.706
REMARK  Name = 
REMARK  3 active torsions:
REMARK  status: ('A' for Active; 'I' for Inactive)
REMARK    1  A    between atoms: C_1  and  C_2
REMARK    2  A    between atoms: C_12  and  C_13
REMARK    3  A    between atoms: C_13  and  N_14
REMARK                            x       y       z     vdW  Elec       q    Type
REMARK                         _______ _______ _______ _____ _____    ______ ____
ROOT
ATOM      1  C   UNL     1       3.766   2.969  17.106  0.00  0.00    +0.000 C 
ATOM      2  C   UNL     1       4.930   3.677  16.472  0.00  0.00    +0.000 A 
ATOM      3  O   UNL     1       5.086   3.302  15.145  0.00  0.00    +0.000 OA
ATOM      4  C   UNL     1       6.016   3.946  14.379  0.00  0.00    +0.000 A 
ATOM      5  C   UNL     1       6.060   3.627  13.023  0.00  0.00    +0.000 A 
ATOM      6  C   UNL     1       6.969   4.274  12.186  0.00  0.00    +0.000 A 
ATOM      7  C   UNL     1       7.846   5.228  12.709  0.00  0.00    +0.000 A 
ATOM      8  C   UNL     1       7.816   5.530  14.070  0.00  0.00    +0.000 A 
ATOM      9  C   UNL     1       6.895   4.885  14.899  0.00  0.00    +0.000 A 
ATOM     10  C   UNL     1       6.838   5.174  16.338  0.00  0.00    +0.000 A 
ATOM     11  O   UNL     1       7.687   5.870  16.872  0.00  0.00    +0.000 OA
ATOM     12  C   UNL     1       5.720   4.567  17.108  0.00  0.00    +0.000 A 
ENDROOT
BRANCH  12  13
ATOM     13  C   UNL     1       5.676   4.919  18.568  0.00  0.00    +0.000 C 
BRANCH  13  14
ATOM     14  N   UNL     1       4.355   5.269  19.070  0.00  0.00    +0.000 N 
ATOM     15  N   UNL     1       3.702   6.313  18.513  0.00  0.00    +0.000 NA
ATOM     16  N   UNL     1       2.422   6.218  18.852  0.00  0.00    +0.000 NA
ATOM     17  C   UNL     1       2.273   5.111  19.641  0.00  0.00    +0.000 A 
ATOM     18  C   UNL     1       1.122   4.540  20.207  0.00  0.00    +0.000 A 
ATOM     19  C   UNL     1       1.258   3.383  20.983  0.00  0.00    +0.000 A 
ATOM     20  C   UNL     1       2.515   2.815  21.202  0.00  0.00    +0.000 A 
ATOM     21  C   UNL     1       3.670   3.362  20.630  0.00  0.00    +0.000 A 
ATOM     22  C   UNL     1       3.509   4.507  19.841  0.00  0.00    +0.000 A 
ENDBRANCH  13  14
ENDBRANCH  12  13
TORSDOF 2
ENDMDL
MODEL 9
REMARK VINA RESULT:      -7.4      3.344      4.785
REMARK  Name = 
REMARK  3 active torsions:
REMARK  status: ('A' for Active; 'I' for Inactive)
REMARK    1  A    between atoms: C_1  and  C_2
REMARK    2  A    between atoms: C_12  and  C_13
REMARK    3  A    between atoms: C_13  and  N_14
REMARK                            x       y       z     vdW  Elec       q    Type
REMARK                         _______ _______ _______ _____ _____    ______ ____
ROOT
ATOM      1  C   UNL     1       1.524   4.055  17.858  0.00  0.00    +0.000 C 
ATOM      2  C   UNL     1       2.926   4.535  17.610  0.00  0.00    +0.000 A 
ATOM      3  O   UNL     1       3.524   3.832  16.572  0.00  0.00    +0.000 OA
ATOM      4  C   UNL     1       4.754   4.226  16.126  0.00  0.00    +0.000 A 
ATOM      5  C   UNL     1       5.266   3.574  15.007  0.00  0.00    +0.000 A 
ATOM      6  C   UNL     1       6.505   3.953  14.488  0.00  0.00    +0.000 A 
ATOM      7  C   UNL     1       7.237   4.973  15.101  0.00  0.00    +0.000 A 
ATOM      8  C   UNL     1       6.733   5.609  16.234  0.00  0.00    +0.000 A 
ATOM      9  C   UNL     1       5.487   5.231  16.741  0.00  0.00    +0.000 A 
ATOM     10  C   UNL     1       4.926   5.875  17.935  0.00  0.00    +0.000 A 
ATOM     11  O   UNL     1       5.594   6.649  18.602  0.00  0.00    +0.000 OA
ATOM     12  C   UNL     1       3.528   5.525  18.301  0.00  0.00    +0.000 A 
ENDROOT
BRANCH  12  13
ATOM     13  C   UNL     1       2.980   6.235  19.507  0.00  0.00    +0.000 C 
BRANCH  13  14
ATOM     14  N   UNL     1       2.437   7.559  19.239  0.00  0.00    +0.000 N 
ATOM     15  N   UNL     1       2.449   8.024  17.969  0.00  0.00    +0.000 NA
ATOM     16  N   UNL     1       1.602   9.043  17.903  0.00  0.00    +0.000 NA
ATOM     17  C   UNL     1       1.063   9.230  19.146  0.00  0.00    +0.000 A 
ATOM     18  C   UNL     1       0.083  10.130  19.592  0.00  0.00    +0.000 A 
ATOM     19  C   UNL     1      -0.291  10.102  20.941  0.00  0.00    +0.000 A 
ATOM     20  C   UNL     1       0.309   9.207  21.828  0.00  0.00    +0.000 A 
ATOM     21  C   UNL     1       1.275   8.291  21.396  0.00  0.00    +0.000 A 
ATOM     22  C   UNL     1       1.620   8.321  20.040  0.00  0.00    +0.000 A 
ENDBRANCH  13  14
ENDBRANCH  12  13
TORSDOF 2
ENDMDL
