MODEL 1
REMARK VINA RESULT:      -9.1      0.000      0.000
REMARK  Name = 
REMARK  5 active torsions:
REMARK  status: ('A' for Active; 'I' for Inactive)
REMARK    1  A    between atoms: C_1  and  S_2
REMARK    2  A    between atoms: S_2  and  C_5
REMARK    3  A    between atoms: C_9  and  C_10
REMARK    4  A    between atoms: C_21  and  N_22
REMARK    5  A    between atoms: C_23  and  C_24
REMARK                            x       y       z     vdW  Elec       q    Type
REMARK                         _______ _______ _______ _____ _____    ______ ____
ROOT
ATOM      1  C   UNL     1       0.779   9.231  20.886  0.00  0.00    +0.000 A 
ATOM      2  C   UNL     1      -0.021   8.652  21.871  0.00  0.00    +0.000 A 
ATOM      3  C   UNL     1      -0.821   9.458  22.731  0.00  0.00    +0.000 A 
ATOM      4  C   UNL     1      -0.852  10.880  22.636  0.00  0.00    +0.000 A 
ATOM      5  C   UNL     1      -1.654  11.781  23.372  0.00  0.00    +0.000 A 
ATOM      6  C   UNL     1      -1.645  13.184  23.105  0.00  0.00    +0.000 A 
ATOM      7  C   UNL     1      -0.761  13.729  22.168  0.00  0.00    +0.000 A 
ATOM      8  C   UNL     1       0.139  12.832  21.581  0.00  0.00    +0.000 A 
ATOM      9  C   UNL     1       0.035  11.438  21.719  0.00  0.00    +0.000 A 
ATOM     10  C   UNL     1       0.814  10.618  20.894  0.00  0.00    +0.000 A 
ATOM     11  C   UNL     1       1.324  13.348  20.817  0.00  0.00    +0.000 C 
ATOM     12  C   UNL     1       1.412  14.858  21.002  0.00  0.00    +0.000 C 
ATOM     13  C   UNL     1       0.359  15.917  21.346  0.00  0.00    +0.000 C 
ATOM     14  O   UNL     1      -0.827  15.073  21.824  0.00  0.00    +0.000 OA
ENDROOT
BRANCH  13  15
ATOM     15  C   UNL     1       0.992  16.662  19.919  0.00  0.00    +0.000 A 
ATOM     16  C   UNL     1       2.408  16.762  19.776  0.00  0.00    +0.000 A 
ATOM     17  C   UNL     1       2.973  17.033  18.524  0.00  0.00    +0.000 A 
ATOM     18  F   UNL     1       4.307  17.021  18.387  0.00  0.00    +0.000 F 
ATOM     19  C   UNL     1       2.161  17.244  17.416  0.00  0.00    +0.000 A 
ATOM     20  F   UNL     1       2.708  17.488  16.215  0.00  0.00    +0.000 F 
ATOM     21  C   UNL     1       0.776  17.168  17.534  0.00  0.00    +0.000 A 
ATOM     22  C   UNL     1       0.197  16.882  18.775  0.00  0.00    +0.000 A 
ATOM     23  F   UNL     1      -1.126  16.683  18.836  0.00  0.00    +0.000 F 
ENDBRANCH  13  15
BRANCH   1  28
ATOM     24  C   UNL     1       2.795   6.539  19.101  0.00  0.00    +0.000 A 
ATOM     25  C   UNL     1       2.948   7.072  17.828  0.00  0.00    +0.000 A 
ATOM     26  C   UNL     1       2.425   8.338  17.560  0.00  0.00    +0.000 A 
ATOM     27  C   UNL     1       1.744   9.064  18.551  0.00  0.00    +0.000 A 
ATOM     28  C   UNL     1       1.575   8.545  19.839  0.00  0.00    +0.000 A 
ATOM     29  C   UNL     1       2.122   7.260  20.091  0.00  0.00    +0.000 A 
BRANCH  24  31
ATOM     30  C   UNL     1       2.897   3.966  18.059  0.00  0.00    +0.000 C 
ATOM     31  S   UNL     1       3.406   4.911  19.473  0.00  0.00    +0.000 S 
ATOM     32  O   UNL     1       2.682   4.419  20.631  0.00  0.00    +0.000 OA
ATOM     33  O   UNL     1       4.856   4.976  19.481  0.00  0.00    +0.000 OA
ENDBRANCH  24  31
ENDBRANCH   1  28
BRANCH  12  34
ATOM     34  N   UNL     1       2.031  14.795  22.338  0.00  0.00    +0.000 NA
ATOM     35  H   UNL     1       3.040  14.760  22.280  0.00  0.00    +0.000 HD
ATOM     36  H   UNL     1       1.778  15.591  22.928  0.00  0.00    +0.000 HD
ENDBRANCH  12  34
TORSDOF 4
ENDMDL
MODEL 2
REMARK VINA RESULT:      -9.0      0.925      1.622
REMARK  Name = 
REMARK  5 active torsions:
REMARK  status: ('A' for Active; 'I' for Inactive)
REMARK    1  A    between atoms: C_1  and  S_2
REMARK    2  A    between atoms: S_2  and  C_5
REMARK    3  A    between atoms: C_9  and  C_10
REMARK    4  A    between atoms: C_21  and  N_22
REMARK    5  A    between atoms: C_23  and  C_24
REMARK                            x       y       z     vdW  Elec       q    Type
REMARK                         _______ _______ _______ _____ _____    ______ ____
ROOT
ATOM      1  C   UNL     1       1.022   8.655  20.833  0.00  0.00    +0.000 A 
ATOM      2  C   UNL     1       0.294   8.066  21.866  0.00  0.00    +0.000 A 
ATOM      3  C   UNL     1      -0.533   8.852  22.719  0.00  0.00    +0.000 A 
ATOM      4  C   UNL     1      -0.664  10.264  22.567  0.00  0.00    +0.000 A 
ATOM      5  C   UNL     1      -1.504  11.140  23.292  0.00  0.00    +0.000 A 
ATOM      6  C   UNL     1      -1.598  12.527  22.967  0.00  0.00    +0.000 A 
ATOM      7  C   UNL     1      -0.783  13.090  21.980  0.00  0.00    +0.000 A 
ATOM      8  C   UNL     1       0.158  12.231  21.401  0.00  0.00    +0.000 A 
ATOM      9  C   UNL     1       0.154  10.841  21.600  0.00  0.00    +0.000 A 
ATOM     10  C   UNL     1       0.963  10.040  20.783  0.00  0.00    +0.000 A 
ATOM     11  C   UNL     1       1.282  12.792  20.578  0.00  0.00    +0.000 C 
ATOM     12  C   UNL     1       1.271  14.311  20.698  0.00  0.00    +0.000 C 
ATOM     13  C   UNL     1       0.159  15.311  21.034  0.00  0.00    +0.000 C 
ATOM     14  O   UNL     1      -0.951  14.410  21.585  0.00  0.00    +0.000 OA
ENDROOT
BRANCH  13  15
ATOM     15  C   UNL     1       0.696  16.035  19.558  0.00  0.00    +0.000 A 
ATOM     16  C   UNL     1      -0.277  16.372  18.572  0.00  0.00    +0.000 A 
ATOM     17  C   UNL     1       0.046  17.251  17.531  0.00  0.00    +0.000 A 
ATOM     18  F   UNL     1      -0.910  17.637  16.673  0.00  0.00    +0.000 F 
ATOM     19  C   UNL     1       1.328  17.776  17.427  0.00  0.00    +0.000 A 
ATOM     20  F   UNL     1       1.629  18.631  16.437  0.00  0.00    +0.000 F 
ATOM     21  C   UNL     1       2.301  17.450  18.367  0.00  0.00    +0.000 A 
ATOM     22  C   UNL     1       1.989  16.585  19.422  0.00  0.00    +0.000 A 
ATOM     23  F   UNL     1       2.899  16.391  20.386  0.00  0.00    +0.000 F 
ENDBRANCH  13  15
BRANCH   1  28
ATOM     24  C   UNL     1       2.915   5.928  18.966  0.00  0.00    +0.000 A 
ATOM     25  C   UNL     1       3.217   6.544  17.759  0.00  0.00    +0.000 A 
ATOM     26  C   UNL     1       2.837   7.873  17.566  0.00  0.00    +0.000 A 
ATOM     27  C   UNL     1       2.149   8.582  18.567  0.00  0.00    +0.000 A 
ATOM     28  C   UNL     1       1.832   7.980  19.789  0.00  0.00    +0.000 A 
ATOM     29  C   UNL     1       2.236   6.631  19.965  0.00  0.00    +0.000 A 
BRANCH  24  31
ATOM     30  C   UNL     1       2.868   3.452  17.709  0.00  0.00    +0.000 C 
ATOM     31  S   UNL     1       3.340   4.223  19.236  0.00  0.00    +0.000 S 
ATOM     32  O   UNL     1       2.479   3.712  20.287  0.00  0.00    +0.000 OA
ATOM     33  O   UNL     1       4.784   4.144  19.360  0.00  0.00    +0.000 OA
ENDBRANCH  24  31
ENDBRANCH   1  28
BRANCH  12  34
ATOM     34  N   UNL     1       1.933  14.347  22.015  0.00  0.00    +0.000 NA
ATOM     35  H   UNL     1       2.550  15.144  22.100  0.00  0.00    +0.000 HD
ATOM     36  H   UNL     1       1.267  14.383  22.790  0.00  0.00    +0.000 HD
ENDBRANCH  12  34
TORSDOF 4
ENDMDL
MODEL 3
REMARK VINA RESULT:      -9.0      5.150      9.449
REMARK  Name = 
REMARK  5 active torsions:
REMARK  status: ('A' for Active; 'I' for Inactive)
REMARK    1  A    between atoms: C_1  and  S_2
REMARK    2  A    between atoms: S_2  and  C_5
REMARK    3  A    between atoms: C_9  and  C_10
REMARK    4  A    between atoms: C_21  and  N_22
REMARK    5  A    between atoms: C_23  and  C_24
REMARK                            x       y       z     vdW  Elec       q    Type
REMARK                         _______ _______ _______ _____ _____    ______ ____
ROOT
ATOM      1  C   UNL     1       1.211  12.371  19.561  0.00  0.00    +0.000 A 
ATOM      2  C   UNL     1       0.121  12.544  20.413  0.00  0.00    +0.000 A 
ATOM      3  C   UNL     1      -0.455  11.435  21.099  0.00  0.00    +0.000 A 
ATOM      4  C   UNL     1       0.044  10.107  20.959  0.00  0.00    +0.000 A 
ATOM      5  C   UNL     1      -0.385   8.943  21.637  0.00  0.00    +0.000 A 
ATOM      6  C   UNL     1       0.272   7.688  21.461  0.00  0.00    +0.000 A 
ATOM      7  C   UNL     1       1.304   7.543  20.529  0.00  0.00    +0.000 A 
ATOM      8  C   UNL     1       1.590   8.672  19.751  0.00  0.00    +0.000 A 
ATOM      9  C   UNL     1       1.061   9.945  20.022  0.00  0.00    +0.000 A 
ATOM     10  C   UNL     1       1.599  11.054  19.358  0.00  0.00    +0.000 A 
ATOM     11  C   UNL     1       2.441   8.542  18.521  0.00  0.00    +0.000 C 
ATOM     12  C   UNL     1       2.693   7.064  18.249  0.00  0.00    +0.000 C 
ATOM     13  C   UNL     1       2.690   5.833  19.162  0.00  0.00    +0.000 C 
ATOM     14  O   UNL     1       2.019   6.357  20.436  0.00  0.00    +0.000 OA
ENDROOT
BRANCH  13  15
ATOM     15  C   UNL     1       4.255   5.609  18.460  0.00  0.00    +0.000 A 
ATOM     16  C   UNL     1       5.402   5.976  19.224  0.00  0.00    +0.000 A 
ATOM     17  C   UNL     1       6.671   5.511  18.860  0.00  0.00    +0.000 A 
ATOM     18  F   UNL     1       7.723   5.780  19.648  0.00  0.00    +0.000 F 
ATOM     19  C   UNL     1       6.833   4.718  17.731  0.00  0.00    +0.000 A 
ATOM     20  F   UNL     1       8.050   4.262  17.395  0.00  0.00    +0.000 F 
ATOM     21  C   UNL     1       5.732   4.359  16.959  0.00  0.00    +0.000 A 
ATOM     22  C   UNL     1       4.454   4.803  17.319  0.00  0.00    +0.000 A 
ATOM     23  F   UNL     1       3.397   4.338  16.640  0.00  0.00    +0.000 F 
ENDBRANCH  13  15
BRANCH   1  28
ATOM     24  C   UNL     1       2.245  15.777  18.210  0.00  0.00    +0.000 A 
ATOM     25  C   UNL     1       3.524  15.534  17.727  0.00  0.00    +0.000 A 
ATOM     26  C   UNL     1       4.039  14.239  17.804  0.00  0.00    +0.000 A 
ATOM     27  C   UNL     1       3.288  13.194  18.371  0.00  0.00    +0.000 A 
ATOM     28  C   UNL     1       2.000  13.418  18.866  0.00  0.00    +0.000 A 
ATOM     29  C   UNL     1       1.494  14.740  18.769  0.00  0.00    +0.000 A 
BRANCH  24  31
ATOM     30  C   UNL     1      -0.182  17.128  18.237  0.00  0.00    +0.000 C 
ATOM     31  S   UNL     1       1.568  17.421  18.172  0.00  0.00    +0.000 S 
ATOM     32  O   UNL     1       1.883  18.001  16.880  0.00  0.00    +0.000 OA
ATOM     33  O   UNL     1       1.964  18.088  19.399  0.00  0.00    +0.000 OA
ENDBRANCH  24  31
ENDBRANCH   1  28
BRANCH  12  34
ATOM     34  N   UNL     1       1.380   6.815  17.627  0.00  0.00    +0.000 NA
ATOM     35  H   UNL     1       0.716   7.544  17.853  0.00  0.00    +0.000 HD
ATOM     36  H   UNL     1       1.433   6.745  16.608  0.00  0.00    +0.000 HD
ENDBRANCH  12  34
TORSDOF 4
ENDMDL
MODEL 4
REMARK VINA RESULT:      -8.8      4.951      9.273
REMARK  Name = 
REMARK  5 active torsions:
REMARK  status: ('A' for Active; 'I' for Inactive)
REMARK    1  A    between atoms: C_1  and  S_2
REMARK    2  A    between atoms: S_2  and  C_5
REMARK    3  A    between atoms: C_9  and  C_10
REMARK    4  A    between atoms: C_21  and  N_22
REMARK    5  A    between atoms: C_23  and  C_24
REMARK                            x       y       z     vdW  Elec       q    Type
REMARK                         _______ _______ _______ _____ _____    ______ ____
ROOT
ATOM      1  C   UNL     1       1.291  12.947  19.705  0.00  0.00    +0.000 A 
ATOM      2  C   UNL     1       0.402  13.088  20.770  0.00  0.00    +0.000 A 
ATOM      3  C   UNL     1      -0.049  11.952  21.502  0.00  0.00    +0.000 A 
ATOM      4  C   UNL     1       0.378  10.627  21.196  0.00  0.00    +0.000 A 
ATOM      5  C   UNL     1       0.068   9.433  21.888  0.00  0.00    +0.000 A 
ATOM      6  C   UNL     1       0.643   8.180  21.518  0.00  0.00    +0.000 A 
ATOM      7  C   UNL     1       1.461   8.073  20.389  0.00  0.00    +0.000 A 
ATOM      8  C   UNL     1       1.610   9.238  19.627  0.00  0.00    +0.000 A 
ATOM      9  C   UNL     1       1.178  10.501  20.064  0.00  0.00    +0.000 A 
ATOM     10  C   UNL     1       1.597  11.638  19.360  0.00  0.00    +0.000 A 
ATOM     11  C   UNL     1       2.189   9.163  18.244  0.00  0.00    +0.000 C 
ATOM     12  C   UNL     1       2.345   7.699  17.852  0.00  0.00    +0.000 C 
ATOM     13  C   UNL     1       2.497   6.421  18.683  0.00  0.00    +0.000 C 
ATOM     14  O   UNL     1       2.112   6.884  20.092  0.00  0.00    +0.000 OA
ENDROOT
BRANCH  13  15
ATOM     15  C   UNL     1       3.881   6.214  17.665  0.00  0.00    +0.000 A 
ATOM     16  C   UNL     1       4.959   7.140  17.787  0.00  0.00    +0.000 A 
ATOM     17  C   UNL     1       6.216   6.834  17.253  0.00  0.00    +0.000 A 
ATOM     18  F   UNL     1       7.244   7.669  17.466  0.00  0.00    +0.000 F 
ATOM     19  C   UNL     1       6.419   5.642  16.568  0.00  0.00    +0.000 A 
ATOM     20  F   UNL     1       7.630   5.346  16.072  0.00  0.00    +0.000 F 
ATOM     21  C   UNL     1       5.379   4.728  16.422  0.00  0.00    +0.000 A 
ATOM     22  C   UNL     1       4.120   5.013  16.964  0.00  0.00    +0.000 A 
ATOM     23  F   UNL     1       3.175   4.065  16.926  0.00  0.00    +0.000 F 
ENDBRANCH  13  15
BRANCH   1  28
ATOM     24  C   UNL     1       1.967  16.361  18.161  0.00  0.00    +0.000 A 
ATOM     25  C   UNL     1       3.223  16.192  17.594  0.00  0.00    +0.000 A 
ATOM     26  C   UNL     1       3.838  14.942  17.680  0.00  0.00    +0.000 A 
ATOM     27  C   UNL     1       3.211  13.870  18.336  0.00  0.00    +0.000 A 
ATOM     28  C   UNL     1       1.948  14.019  18.917  0.00  0.00    +0.000 A 
ATOM     29  C   UNL     1       1.338  15.296  18.811  0.00  0.00    +0.000 A 
BRANCH  24  31
ATOM     30  C   UNL     1      -0.557  17.521  18.121  0.00  0.00    +0.000 C 
ATOM     31  S   UNL     1       1.166  17.948  18.115  0.00  0.00    +0.000 S 
ATOM     32  O   UNL     1       1.476  18.564  16.838  0.00  0.00    +0.000 OA
ATOM     33  O   UNL     1       1.471  18.631  19.358  0.00  0.00    +0.000 OA
ENDBRANCH  24  31
ENDBRANCH   1  28
BRANCH  12  34
ATOM     34  N   UNL     1       0.927   7.503  17.499  0.00  0.00    +0.000 NA
ATOM     35  H   UNL     1       0.537   6.693  17.963  0.00  0.00    +0.000 HD
ATOM     36  H   UNL     1       0.346   8.310  17.737  0.00  0.00    +0.000 HD
ENDBRANCH  12  34
TORSDOF 4
ENDMDL
MODEL 5
REMARK VINA RESULT:      -8.8      5.421     10.177
REMARK  Name = 
REMARK  5 active torsions:
REMARK  status: ('A' for Active; 'I' for Inactive)
REMARK    1  A    between atoms: C_1  and  S_2
REMARK    2  A    between atoms: S_2  and  C_5
REMARK    3  A    between atoms: C_9  and  C_10
REMARK    4  A    between atoms: C_21  and  N_22
REMARK    5  A    between atoms: C_23  and  C_24
REMARK                            x       y       z     vdW  Elec       q    Type
REMARK                         _______ _______ _______ _____ _____    ______ ____
ROOT
ATOM      1  C   UNL     1       1.508   8.551  19.853  0.00  0.00    +0.000 A 
ATOM      2  C   UNL     1       0.834   8.176  21.014  0.00  0.00    +0.000 A 
ATOM      3  C   UNL     1       0.936   6.849  21.524  0.00  0.00    +0.000 A 
ATOM      4  C   UNL     1       1.724   5.845  20.888  0.00  0.00    +0.000 A 
ATOM      5  C   UNL     1       1.969   4.525  21.330  0.00  0.00    +0.000 A 
ATOM      6  C   UNL     1       2.858   3.653  20.632  0.00  0.00    +0.000 A 
ATOM      7  C   UNL     1       3.443   4.043  19.424  0.00  0.00    +0.000 A 
ATOM      8  C   UNL     1       3.046   5.289  18.925  0.00  0.00    +0.000 A 
ATOM      9  C   UNL     1       2.299   6.213  19.675  0.00  0.00    +0.000 A 
ATOM     10  C   UNL     1       2.171   7.524  19.196  0.00  0.00    +0.000 A 
ATOM     11  C   UNL     1       3.353   5.664  17.504  0.00  0.00    +0.000 C 
ATOM     12  C   UNL     1       3.922   4.447  16.785  0.00  0.00    +0.000 C 
ATOM     13  C   UNL     1       4.648   3.196  17.292  0.00  0.00    +0.000 C 
ATOM     14  O   UNL     1       4.392   3.244  18.802  0.00  0.00    +0.000 OA
ENDROOT
BRANCH  13  15
ATOM     15  C   UNL     1       5.809   3.686  16.106  0.00  0.00    +0.000 A 
ATOM     16  C   UNL     1       5.566   3.357  14.740  0.00  0.00    +0.000 A 
ATOM     17  C   UNL     1       6.273   4.007  13.721  0.00  0.00    +0.000 A 
ATOM     18  F   UNL     1       5.959   3.760  12.441  0.00  0.00    +0.000 F 
ATOM     19  C   UNL     1       7.243   4.952  14.030  0.00  0.00    +0.000 A 
ATOM     20  F   UNL     1       7.907   5.584  13.050  0.00  0.00    +0.000 F 
ATOM     21  C   UNL     1       7.511   5.278  15.357  0.00  0.00    +0.000 A 
ATOM     22  C   UNL     1       6.802   4.650  16.386  0.00  0.00    +0.000 A 
ATOM     23  F   UNL     1       6.982   5.074  17.643  0.00  0.00    +0.000 F 
ENDBRANCH  13  15
BRANCH   1  28
ATOM     24  C   UNL     1       1.233  12.328  19.459  0.00  0.00    +0.000 A 
ATOM     25  C   UNL     1       1.920  12.558  18.274  0.00  0.00    +0.000 A 
ATOM     26  C   UNL     1       2.443  11.469  17.576  0.00  0.00    +0.000 A 
ATOM     27  C   UNL     1       2.292  10.158  18.060  0.00  0.00    +0.000 A 
ATOM     28  C   UNL     1       1.606   9.904  19.252  0.00  0.00    +0.000 A 
ATOM     29  C   UNL     1       1.077  11.026  19.941  0.00  0.00    +0.000 A 
BRANCH  24  31
ATOM     30  C   UNL     1       1.022  15.098  19.412  0.00  0.00    +0.000 C 
ATOM     31  S   UNL     1       0.591  13.691  20.404  0.00  0.00    +0.000 S 
ATOM     32  O   UNL     1       1.341  13.763  21.644  0.00  0.00    +0.000 OA
ATOM     33  O   UNL     1      -0.855  13.571  20.421  0.00  0.00    +0.000 OA
ENDBRANCH  24  31
ENDBRANCH   1  28
BRANCH  12  34
ATOM     34  N   UNL     1       2.615   3.802  16.557  0.00  0.00    +0.000 NA
ATOM     35  H   UNL     1       1.997   4.394  16.018  0.00  0.00    +0.000 HD
ATOM     36  H   UNL     1       2.697   2.908  16.069  0.00  0.00    +0.000 HD
ENDBRANCH  12  34
TORSDOF 4
ENDMDL
MODEL 6
REMARK VINA RESULT:      -8.7      3.866      5.992
REMARK  Name = 
REMARK  5 active torsions:
REMARK  status: ('A' for Active; 'I' for Inactive)
REMARK    1  A    between atoms: C_1  and  S_2
REMARK    2  A    between atoms: S_2  and  C_5
REMARK    3  A    between atoms: C_9  and  C_10
REMARK    4  A    between atoms: C_21  and  N_22
REMARK    5  A    between atoms: C_23  and  C_24
REMARK                            x       y       z     vdW  Elec       q    Type
REMARK                         _______ _______ _______ _____ _____    ______ ____
ROOT
ATOM      1  C   UNL     1       1.759   9.455  18.839  0.00  0.00    +0.000 A 
ATOM      2  C   UNL     1       2.729  10.127  18.098  0.00  0.00    +0.000 A 
ATOM      3  C   UNL     1       2.621  11.527  17.850  0.00  0.00    +0.000 A 
ATOM      4  C   UNL     1       1.534  12.307  18.340  0.00  0.00    +0.000 A 
ATOM      5  C   UNL     1       1.351  13.705  18.230  0.00  0.00    +0.000 A 
ATOM      6  C   UNL     1       0.250  14.368  18.852  0.00  0.00    +0.000 A 
ATOM      7  C   UNL     1      -0.746  13.641  19.510  0.00  0.00    +0.000 A 
ATOM      8  C   UNL     1      -0.626  12.247  19.453  0.00  0.00    +0.000 A 
ATOM      9  C   UNL     1       0.526  11.594  18.983  0.00  0.00    +0.000 A 
ATOM     10  C   UNL     1       0.658  10.217  19.203  0.00  0.00    +0.000 A 
ATOM     11  C   UNL     1      -1.786  11.375  19.839  0.00  0.00    +0.000 C 
ATOM     12  C   UNL     1      -3.011  12.254  20.060  0.00  0.00    +0.000 C 
ATOM     13  C   UNL     1      -3.165  13.732  20.434  0.00  0.00    +0.000 C 
ATOM     14  O   UNL     1      -1.755  14.287  20.211  0.00  0.00    +0.000 OA
ENDROOT
BRANCH  13  15
ATOM     15  C   UNL     1      -4.169  13.064  21.675  0.00  0.00    +0.000 A 
ATOM     16  C   UNL     1      -3.635  12.948  22.992  0.00  0.00    +0.000 A 
ATOM     17  C   UNL     1      -4.486  12.743  24.084  0.00  0.00    +0.000 A 
ATOM     18  F   UNL     1      -3.978  12.740  25.325  0.00  0.00    +0.000 F 
ATOM     19  C   UNL     1      -5.857  12.614  23.893  0.00  0.00    +0.000 A 
ATOM     20  F   UNL     1      -6.671  12.433  24.944  0.00  0.00    +0.000 F 
ATOM     21  C   UNL     1      -6.401  12.706  22.615  0.00  0.00    +0.000 A 
ATOM     22  C   UNL     1      -5.564  12.927  21.515  0.00  0.00    +0.000 A 
ATOM     23  F   UNL     1      -6.121  13.145  20.317  0.00  0.00    +0.000 F 
ENDBRANCH  13  15
BRANCH   1  28
ATOM     24  C   UNL     1       2.403   5.702  18.850  0.00  0.00    +0.000 A 
ATOM     25  C   UNL     1       2.018   5.334  20.133  0.00  0.00    +0.000 A 
ATOM     26  C   UNL     1       1.505   6.310  20.988  0.00  0.00    +0.000 A 
ATOM     27  C   UNL     1       1.387   7.647  20.573  0.00  0.00    +0.000 A 
ATOM     28  C   UNL     1       1.772   8.040  19.288  0.00  0.00    +0.000 A 
ATOM     29  C   UNL     1       2.283   7.029  18.432  0.00  0.00    +0.000 A 
BRANCH  24  31
ATOM     30  C   UNL     1       3.964   3.404  18.843  0.00  0.00    +0.000 C 
ATOM     31  S   UNL     1       3.104   4.499  17.743  0.00  0.00    +0.000 S 
ATOM     32  O   UNL     1       4.087   5.177  16.918  0.00  0.00    +0.000 OA
ATOM     33  O   UNL     1       2.007   3.768  17.136  0.00  0.00    +0.000 OA
ENDBRANCH  24  31
ENDBRANCH   1  28
BRANCH  12  34
ATOM     34  N   UNL     1      -3.327  12.408  18.629  0.00  0.00    +0.000 NA
ATOM     35  H   UNL     1      -2.558  12.825  18.120  0.00  0.00    +0.000 HD
ATOM     36  H   UNL     1      -3.556  11.519  18.177  0.00  0.00    +0.000 HD
ENDBRANCH  12  34
TORSDOF 4
ENDMDL
MODEL 7
REMARK VINA RESULT:      -8.6      1.236      1.501
REMARK  Name = 
REMARK  5 active torsions:
REMARK  status: ('A' for Active; 'I' for Inactive)
REMARK    1  A    between atoms: C_1  and  S_2
REMARK    2  A    between atoms: S_2  and  C_5
REMARK    3  A    between atoms: C_9  and  C_10
REMARK    4  A    between atoms: C_21  and  N_22
REMARK    5  A    between atoms: C_23  and  C_24
REMARK                            x       y       z     vdW  Elec       q    Type
REMARK                         _______ _______ _______ _____ _____    ______ ____
ROOT
ATOM      1  C   UNL     1       0.387  10.224  21.106  0.00  0.00    +0.000 A 
ATOM      2  C   UNL     1      -0.267   9.680  22.211  0.00  0.00    +0.000 A 
ATOM      3  C   UNL     1      -1.030  10.504  23.089  0.00  0.00    +0.000 A 
ATOM      4  C   UNL     1      -1.168  11.909  22.890  0.00  0.00    +0.000 A 
ATOM      5  C   UNL     1      -1.953  12.817  23.637  0.00  0.00    +0.000 A 
ATOM      6  C   UNL     1      -2.067  14.191  23.266  0.00  0.00    +0.000 A 
ATOM      7  C   UNL     1      -1.323  14.710  22.202  0.00  0.00    +0.000 A 
ATOM      8  C   UNL     1      -0.427  13.825  21.592  0.00  0.00    +0.000 A 
ATOM      9  C   UNL     1      -0.420  12.443  21.845  0.00  0.00    +0.000 A 
ATOM     10  C   UNL     1       0.327  11.607  21.006  0.00  0.00    +0.000 A 
ATOM     11  C   UNL     1       0.637  14.348  20.670  0.00  0.00    +0.000 C 
ATOM     12  C   UNL     1       0.638  15.870  20.731  0.00  0.00    +0.000 C 
ATOM     13  C   UNL     1      -0.446  16.887  21.105  0.00  0.00    +0.000 C 
ATOM     14  O   UNL     1      -1.516  16.015  21.768  0.00  0.00    +0.000 OA
ENDROOT
BRANCH  13  15
ATOM     15  C   UNL     1      -0.013  17.551  19.566  0.00  0.00    +0.000 A 
ATOM     16  C   UNL     1       1.330  17.395  19.113  0.00  0.00    +0.000 A 
ATOM     17  C   UNL     1       1.649  17.600  17.765  0.00  0.00    +0.000 A 
ATOM     18  F   UNL     1       2.895  17.349  17.337  0.00  0.00    +0.000 F 
ATOM     19  C   UNL     1       0.668  17.990  16.862  0.00  0.00    +0.000 A 
ATOM     20  F   UNL     1       0.974  18.170  15.568  0.00  0.00    +0.000 F 
ATOM     21  C   UNL     1      -0.648  18.165  17.283  0.00  0.00    +0.000 A 
ATOM     22  C   UNL     1      -0.985  17.949  18.624  0.00  0.00    +0.000 A 
ATOM     23  F   UNL     1      -2.276  17.993  18.977  0.00  0.00    +0.000 F 
ENDBRANCH  13  15
BRANCH   1  28
ATOM     24  C   UNL     1       2.100   7.407  19.202  0.00  0.00    +0.000 A 
ATOM     25  C   UNL     1       2.350   7.988  17.965  0.00  0.00    +0.000 A 
ATOM     26  C   UNL     1       1.994   9.322  17.763  0.00  0.00    +0.000 A 
ATOM     27  C   UNL     1       1.382  10.071  18.783  0.00  0.00    +0.000 A 
ATOM     28  C   UNL     1       1.119   9.505  20.034  0.00  0.00    +0.000 A 
ATOM     29  C   UNL     1       1.497   8.150  20.220  0.00  0.00    +0.000 A 
BRANCH  24  31
ATOM     30  C   UNL     1       4.268   5.681  19.391  0.00  0.00    +0.000 C 
ATOM     31  S   UNL     1       2.496   5.697  19.488  0.00  0.00    +0.000 S 
ATOM     32  O   UNL     1       1.974   4.929  18.373  0.00  0.00    +0.000 OA
ATOM     33  O   UNL     1       2.111   5.379  20.850  0.00  0.00    +0.000 OA
ENDBRANCH  24  31
ENDBRANCH   1  28
BRANCH  12  34
ATOM     34  N   UNL     1       1.391  15.955  21.995  0.00  0.00    +0.000 NA
ATOM     35  H   UNL     1       1.608  15.037  22.362  0.00  0.00    +0.000 HD
ATOM     36  H   UNL     1       2.270  16.468  21.897  0.00  0.00    +0.000 HD
ENDBRANCH  12  34
TORSDOF 4
ENDMDL
MODEL 8
REMARK VINA RESULT:      -8.3      5.058      9.409
REMARK  Name = 
REMARK  5 active torsions:
REMARK  status: ('A' for Active; 'I' for Inactive)
REMARK    1  A    between atoms: C_1  and  S_2
REMARK    2  A    between atoms: S_2  and  C_5
REMARK    3  A    between atoms: C_9  and  C_10
REMARK    4  A    between atoms: C_21  and  N_22
REMARK    5  A    between atoms: C_23  and  C_24
REMARK                            x       y       z     vdW  Elec       q    Type
REMARK                         _______ _______ _______ _____ _____    ______ ____
ROOT
ATOM      1  C   UNL     1       1.109  12.158  19.853  0.00  0.00    +0.000 A 
ATOM      2  C   UNL     1      -0.007  12.264  20.682  0.00  0.00    +0.000 A 
ATOM      3  C   UNL     1      -0.578  11.110  21.292  0.00  0.00    +0.000 A 
ATOM      4  C   UNL     1      -0.048   9.801  21.096  0.00  0.00    +0.000 A 
ATOM      5  C   UNL     1      -0.471   8.595  21.700  0.00  0.00    +0.000 A 
ATOM      6  C   UNL     1       0.216   7.363  21.477  0.00  0.00    +0.000 A 
ATOM      7  C   UNL     1       1.277   7.289  20.569  0.00  0.00    +0.000 A 
ATOM      8  C   UNL     1       1.560   8.462  19.860  0.00  0.00    +0.000 A 
ATOM      9  C   UNL     1       0.997   9.709  20.182  0.00  0.00    +0.000 A 
ATOM     10  C   UNL     1       1.530  10.862  19.592  0.00  0.00    +0.000 A 
ATOM     11  C   UNL     1       2.446   8.414  18.649  0.00  0.00    +0.000 C 
ATOM     12  C   UNL     1       2.737   6.958  18.307  0.00  0.00    +0.000 C 
ATOM     13  C   UNL     1       2.734   5.681  19.154  0.00  0.00    +0.000 C 
ATOM     14  O   UNL     1       2.018   6.123  20.433  0.00  0.00    +0.000 OA
ENDROOT
BRANCH  13  15
ATOM     15  C   UNL     1       4.323   5.524  18.485  0.00  0.00    +0.000 A 
ATOM     16  C   UNL     1       5.441   5.849  19.308  0.00  0.00    +0.000 A 
ATOM     17  C   UNL     1       6.727   5.426  18.951  0.00  0.00    +0.000 A 
ATOM     18  F   UNL     1       7.751   5.651  19.788  0.00  0.00    +0.000 F 
ATOM     19  C   UNL     1       6.933   4.716  17.774  0.00  0.00    +0.000 A 
ATOM     20  F   UNL     1       8.165   4.299  17.444  0.00  0.00    +0.000 F 
ATOM     21  C   UNL     1       5.860   4.401  16.946  0.00  0.00    +0.000 A 
ATOM     22  C   UNL     1       4.566   4.803  17.297  0.00  0.00    +0.000 A 
ATOM     23  F   UNL     1       3.536   4.375  16.556  0.00  0.00    +0.000 F 
ENDBRANCH  13  15
BRANCH   1  28
ATOM     24  C   UNL     1       2.604  15.612  19.275  0.00  0.00    +0.000 A 
ATOM     25  C   UNL     1       3.509  15.380  18.248  0.00  0.00    +0.000 A 
ATOM     26  C   UNL     1       3.605  14.096  17.711  0.00  0.00    +0.000 A 
ATOM     27  C   UNL     1       2.811  13.045  18.202  0.00  0.00    +0.000 A 
ATOM     28  C   UNL     1       1.895  13.255  19.237  0.00  0.00    +0.000 A 
ATOM     29  C   UNL     1       1.809  14.571  19.762  0.00  0.00    +0.000 A 
BRANCH  24  31
ATOM     30  C   UNL     1       4.168  17.598  20.425  0.00  0.00    +0.000 C 
ATOM     31  S   UNL     1       2.482  17.223  20.019  0.00  0.00    +0.000 S 
ATOM     32  O   UNL     1       1.738  17.084  21.258  0.00  0.00    +0.000 OA
ATOM     33  O   UNL     1       2.042  18.149  18.993  0.00  0.00    +0.000 OA
ENDBRANCH  24  31
ENDBRANCH   1  28
BRANCH  12  34
ATOM     34  N   UNL     1       1.447   6.717  17.635  0.00  0.00    +0.000 NA
ATOM     35  H   UNL     1       0.790   6.250  18.247  0.00  0.00    +0.000 HD
ATOM     36  H   UNL     1       1.008   7.579  17.304  0.00  0.00    +0.000 HD
ENDBRANCH  12  34
TORSDOF 4
ENDMDL
MODEL 9
REMARK VINA RESULT:      -8.3      5.359      6.920
REMARK  Name = 
REMARK  5 active torsions:
REMARK  status: ('A' for Active; 'I' for Inactive)
REMARK    1  A    between atoms: C_1  and  S_2
REMARK    2  A    between atoms: S_2  and  C_5
REMARK    3  A    between atoms: C_9  and  C_10
REMARK    4  A    between atoms: C_21  and  N_22
REMARK    5  A    between atoms: C_23  and  C_24
REMARK                            x       y       z     vdW  Elec       q    Type
REMARK                         _______ _______ _______ _____ _____    ______ ____
ROOT
ATOM      1  C   UNL     1      -2.672  10.751  18.032  0.00  0.00    +0.000 A 
ATOM      2  C   UNL     1      -3.310  10.385  16.848  0.00  0.00    +0.000 A 
ATOM      3  C   UNL     1      -4.546  10.983  16.468  0.00  0.00    +0.000 A 
ATOM      4  C   UNL     1      -5.190  11.976  17.262  0.00  0.00    +0.000 A 
ATOM      5  C   UNL     1      -6.369  12.696  16.962  0.00  0.00    +0.000 A 
ATOM      6  C   UNL     1      -6.853  13.733  17.816  0.00  0.00    +0.000 A 
ATOM      7  C   UNL     1      -6.229  14.004  19.038  0.00  0.00    +0.000 A 
ATOM      8  C   UNL     1      -5.168  13.159  19.385  0.00  0.00    +0.000 A 
ATOM      9  C   UNL     1      -4.590  12.244  18.489  0.00  0.00    +0.000 A 
ATOM     10  C   UNL     1      -3.379  11.633  18.837  0.00  0.00    +0.000 A 
ATOM     11  C   UNL     1      -4.642  13.151  20.791  0.00  0.00    +0.000 C 
ATOM     12  C   UNL     1      -5.557  13.999  21.666  0.00  0.00    +0.000 C 
ATOM     13  C   UNL     1      -6.511  15.155  21.342  0.00  0.00    +0.000 C 
ATOM     14  O   UNL     1      -6.626  15.083  19.817  0.00  0.00    +0.000 OA
ENDROOT
BRANCH  13  15
ATOM     15  C   UNL     1      -5.598  15.935  22.588  0.00  0.00    +0.000 A 
ATOM     16  C   UNL     1      -4.526  16.795  22.208  0.00  0.00    +0.000 A 
ATOM     17  C   UNL     1      -3.987  17.701  23.130  0.00  0.00    +0.000 A 
ATOM     18  F   UNL     1      -3.050  18.572  22.726  0.00  0.00    +0.000 F 
ATOM     19  C   UNL     1      -4.465  17.747  24.433  0.00  0.00    +0.000 A 
ATOM     20  F   UNL     1      -3.956  18.628  25.309  0.00  0.00    +0.000 F 
ATOM     21  C   UNL     1      -5.500  16.907  24.834  0.00  0.00    +0.000 A 
ATOM     22  C   UNL     1      -6.061  16.007  23.920  0.00  0.00    +0.000 A 
ATOM     23  F   UNL     1      -7.140  15.305  24.288  0.00  0.00    +0.000 F 
ENDBRANCH  13  15
BRANCH   1  28
ATOM     24  C   UNL     1       0.091   9.629  20.401  0.00  0.00    +0.000 A 
ATOM     25  C   UNL     1       1.125   9.314  19.530  0.00  0.00    +0.000 A 
ATOM     26  C   UNL     1       0.935   9.507  18.161  0.00  0.00    +0.000 A 
ATOM     27  C   UNL     1      -0.282  10.001  17.661  0.00  0.00    +0.000 A 
ATOM     28  C   UNL     1      -1.338  10.322  18.520  0.00  0.00    +0.000 A 
ATOM     29  C   UNL     1      -1.119  10.125  19.908  0.00  0.00    +0.000 A 
BRANCH  24  31
ATOM     30  C   UNL     1      -0.589  10.737  22.856  0.00  0.00    +0.000 C 
ATOM     31  S   UNL     1       0.273   9.356  22.149  0.00  0.00    +0.000 S 
ATOM     32  O   UNL     1       1.681   9.486  22.474  0.00  0.00    +0.000 OA
ATOM     33  O   UNL     1      -0.454   8.145  22.483  0.00  0.00    +0.000 OA
ENDBRANCH  24  31
ENDBRANCH   1  28
BRANCH  12  34
ATOM     34  N   UNL     1      -6.595  12.963  21.820  0.00  0.00    +0.000 NA
ATOM     35  H   UNL     1      -7.412  13.168  21.261  0.00  0.00    +0.000 HD
ATOM     36  H   UNL     1      -6.263  12.031  21.561  0.00  0.00    +0.000 HD
ENDBRANCH  12  34
TORSDOF 4
ENDMDL
