MODEL 1
REMARK VINA RESULT:      -6.3      0.000      0.000
REMARK  Name = 
REMARK  4 active torsions:
REMARK  status: ('A' for Active; 'I' for Inactive)
REMARK    1  A    between atoms: C_2  and  O_3
REMARK    2  A    between atoms: C_2  and  C_4
REMARK    3  A    between atoms: C_4  and  S_5
REMARK    4  A    between atoms: C_6  and  C_7
REMARK                            x       y       z     vdW  Elec       q    Type
REMARK                         _______ _______ _______ _____ _____    ______ ____
ROOT
ATOM      1  C   UNL     1       6.359   5.271  18.708  0.00  0.00    +0.000 C 
ATOM      2  C   UNL     1       5.222   5.128  19.417  0.00  0.00    +0.000 C 
ENDROOT
BRANCH   2   3
ATOM      3  C   UNL     1       3.994   4.465  18.933  0.00  0.00    +0.000 A 
ATOM      4  C   UNL     1       3.838   3.090  19.147  0.00  0.00    +0.000 A 
ATOM      5  F   UNL     1       4.781   2.406  19.815  0.00  0.00    +0.000 F 
ATOM      6  C   UNL     1       2.717   2.401  18.691  0.00  0.00    +0.000 A 
ATOM      7  C   UNL     1       1.715   3.087  18.010  0.00  0.00    +0.000 A 
ATOM      8  C   UNL     1       1.840   4.461  17.797  0.00  0.00    +0.000 A 
ATOM      9  C   UNL     1       2.973   5.147  18.257  0.00  0.00    +0.000 A 
ATOM     10 CL   UNL     1       3.049   6.853  17.984  0.00  0.00    +0.000 Cl
ENDBRANCH   2   3
BRANCH   1  12
ATOM     11  O   UNL     1       8.195   6.813  18.719  0.00  0.00    +0.000 OA
ATOM     12  C   UNL     1       7.596   5.904  19.276  0.00  0.00    +0.000 C 
BRANCH  12  13
ATOM     13  O   UNL     1       8.001   5.416  20.468  0.00  0.00    +0.000 OA
ATOM     14  H   UNL     1       8.882   5.006  20.484  0.00  0.00    +0.000 HD
ENDBRANCH  12  13
ENDBRANCH   1  12
BRANCH   1  15
ATOM     15  S   UNL     1       6.546   4.653  17.085  0.00  0.00    +0.000 S 
ATOM     16  H   UNL     1       7.885   4.782  17.012  0.00  0.00    +0.000 HD
ENDBRANCH   1  15
TORSDOF 4
ENDMDL
MODEL 2
REMARK VINA RESULT:      -6.2      2.003      2.063
REMARK  Name = 
REMARK  4 active torsions:
REMARK  status: ('A' for Active; 'I' for Inactive)
REMARK    1  A    between atoms: C_2  and  O_3
REMARK    2  A    between atoms: C_2  and  C_4
REMARK    3  A    between atoms: C_4  and  S_5
REMARK    4  A    between atoms: C_6  and  C_7
REMARK                            x       y       z     vdW  Elec       q    Type
REMARK                         _______ _______ _______ _____ _____    ______ ____
ROOT
ATOM      1  C   UNL     1       5.858   4.568  17.550  0.00  0.00    +0.000 C 
ATOM      2  C   UNL     1       4.768   4.029  16.971  0.00  0.00    +0.000 C 
ENDROOT
BRANCH   2   3
ATOM      3  C   UNL     1       3.489   3.749  17.655  0.00  0.00    +0.000 A 
ATOM      4  C   UNL     1       3.153   2.421  17.944  0.00  0.00    +0.000 A 
ATOM      5  F   UNL     1       4.006   1.432  17.633  0.00  0.00    +0.000 F 
ATOM      6  C   UNL     1       1.950   2.089  18.562  0.00  0.00    +0.000 A 
ATOM      7  C   UNL     1       1.053   3.095  18.912  0.00  0.00    +0.000 A 
ATOM      8  C   UNL     1       1.371   4.427  18.647  0.00  0.00    +0.000 A 
ATOM      9  C   UNL     1       2.583   4.754  18.023  0.00  0.00    +0.000 A 
ATOM     10 CL   UNL     1       2.927   6.427  17.751  0.00  0.00    +0.000 Cl
ENDBRANCH   2   3
BRANCH   1  12
ATOM     11  O   UNL     1       7.184   5.785  15.965  0.00  0.00    +0.000 OA
ATOM     12  C   UNL     1       7.113   4.882  16.786  0.00  0.00    +0.000 C 
BRANCH  12  13
ATOM     13  O   UNL     1       8.179   4.109  17.082  0.00  0.00    +0.000 OA
ATOM     14  H   UNL     1       8.838   4.003  16.375  0.00  0.00    +0.000 HD
ENDBRANCH  12  13
ENDBRANCH   1  12
BRANCH   1  15
ATOM     15  S   UNL     1       5.899   5.043  19.230  0.00  0.00    +0.000 S 
ATOM     16  H   UNL     1       4.567   5.041  19.434  0.00  0.00    +0.000 HD
ENDBRANCH   1  15
TORSDOF 4
ENDMDL
MODEL 3
REMARK VINA RESULT:      -6.2      2.473      2.819
REMARK  Name = 
REMARK  4 active torsions:
REMARK  status: ('A' for Active; 'I' for Inactive)
REMARK    1  A    between atoms: C_2  and  O_3
REMARK    2  A    between atoms: C_2  and  C_4
REMARK    3  A    between atoms: C_4  and  S_5
REMARK    4  A    between atoms: C_6  and  C_7
REMARK                            x       y       z     vdW  Elec       q    Type
REMARK                         _______ _______ _______ _____ _____    ______ ____
ROOT
ATOM      1  C   UNL     1       5.081   4.086  17.823  0.00  0.00    +0.000 C 
ATOM      2  C   UNL     1       4.090   3.190  17.993  0.00  0.00    +0.000 C 
ENDROOT
BRANCH   2   3
ATOM      3  C   UNL     1       3.123   3.189  19.109  0.00  0.00    +0.000 A 
ATOM      4  C   UNL     1       3.494   2.602  20.326  0.00  0.00    +0.000 A 
ATOM      5  F   UNL     1       4.725   2.087  20.471  0.00  0.00    +0.000 F 
ATOM      6  C   UNL     1       2.619   2.544  21.407  0.00  0.00    +0.000 A 
ATOM      7  C   UNL     1       1.341   3.086  21.291  0.00  0.00    +0.000 A 
ATOM      8  C   UNL     1       0.952   3.689  20.094  0.00  0.00    +0.000 A 
ATOM      9  C   UNL     1       1.838   3.742  19.009  0.00  0.00    +0.000 A 
ATOM     10 CL   UNL     1       1.302   4.530  17.566  0.00  0.00    +0.000 Cl
ENDBRANCH   2   3
BRANCH   1  12
ATOM     11  O   UNL     1       5.597   3.953  15.485  0.00  0.00    +0.000 OA
ATOM     12  C   UNL     1       5.998   4.068  16.634  0.00  0.00    +0.000 C 
BRANCH  12  13
ATOM     13  O   UNL     1       7.311   4.212  16.914  0.00  0.00    +0.000 OA
ATOM     14  H   UNL     1       7.924   3.709  16.351  0.00  0.00    +0.000 HD
ENDBRANCH  12  13
ENDBRANCH   1  12
BRANCH   1  15
ATOM     15  S   UNL     1       5.348   5.419  18.920  0.00  0.00    +0.000 S 
ATOM     16  H   UNL     1       4.837   4.833  20.020  0.00  0.00    +0.000 HD
ENDBRANCH   1  15
TORSDOF 4
ENDMDL
MODEL 4
REMARK VINA RESULT:      -6.1      1.944      2.327
REMARK  Name = 
REMARK  4 active torsions:
REMARK  status: ('A' for Active; 'I' for Inactive)
REMARK    1  A    between atoms: C_2  and  O_3
REMARK    2  A    between atoms: C_2  and  C_4
REMARK    3  A    between atoms: C_4  and  S_5
REMARK    4  A    between atoms: C_6  and  C_7
REMARK                            x       y       z     vdW  Elec       q    Type
REMARK                         _______ _______ _______ _____ _____    ______ ____
ROOT
ATOM      1  C   UNL     1       6.244   5.220  18.690  0.00  0.00    +0.000 C 
ATOM      2  C   UNL     1       5.111   5.125  19.412  0.00  0.00    +0.000 C 
ENDROOT
BRANCH   2   3
ATOM      3  C   UNL     1       3.870   4.458  18.968  0.00  0.00    +0.000 A 
ATOM      4  C   UNL     1       2.954   5.180  18.193  0.00  0.00    +0.000 A 
ATOM      5  F   UNL     1       3.231   6.444  17.836  0.00  0.00    +0.000 F 
ATOM      6  C   UNL     1       1.753   4.618  17.767  0.00  0.00    +0.000 A 
ATOM      7  C   UNL     1       1.447   3.303  18.107  0.00  0.00    +0.000 A 
ATOM      8  C   UNL     1       2.350   2.558  18.867  0.00  0.00    +0.000 A 
ATOM      9  C   UNL     1       3.556   3.131  19.295  0.00  0.00    +0.000 A 
ATOM     10 CL   UNL     1       4.642   2.142  20.208  0.00  0.00    +0.000 Cl
ENDBRANCH   2   3
BRANCH   1  12
ATOM     11  O   UNL     1       8.088   6.752  18.629  0.00  0.00    +0.000 OA
ATOM     12  C   UNL     1       7.494   5.861  19.220  0.00  0.00    +0.000 C 
BRANCH  12  13
ATOM     13  O   UNL     1       7.916   5.404  20.418  0.00  0.00    +0.000 OA
ATOM     14  H   UNL     1       8.488   6.004  20.926  0.00  0.00    +0.000 HD
ENDBRANCH  12  13
ENDBRANCH   1  12
BRANCH   1  15
ATOM     15  S   UNL     1       6.410   4.527  17.096  0.00  0.00    +0.000 S 
ATOM     16  H   UNL     1       5.498   3.546  17.246  0.00  0.00    +0.000 HD
ENDBRANCH   1  15
TORSDOF 4
ENDMDL
MODEL 5
REMARK VINA RESULT:      -6.1      1.178      1.228
REMARK  Name = 
REMARK  4 active torsions:
REMARK  status: ('A' for Active; 'I' for Inactive)
REMARK    1  A    between atoms: C_2  and  O_3
REMARK    2  A    between atoms: C_2  and  C_4
REMARK    3  A    between atoms: C_4  and  S_5
REMARK    4  A    between atoms: C_6  and  C_7
REMARK                            x       y       z     vdW  Elec       q    Type
REMARK                         _______ _______ _______ _____ _____    ______ ____
ROOT
ATOM      1  C   UNL     1       6.007   4.498  17.843  0.00  0.00    +0.000 C 
ATOM      2  C   UNL     1       5.149   4.371  18.874  0.00  0.00    +0.000 C 
ENDROOT
BRANCH   2   3
ATOM      3  C   UNL     1       3.761   3.878  18.772  0.00  0.00    +0.000 A 
ATOM      4  C   UNL     1       3.490   2.544  19.102  0.00  0.00    +0.000 A 
ATOM      5  F   UNL     1       4.480   1.749  19.537  0.00  0.00    +0.000 F 
ATOM      6  C   UNL     1       2.207   2.010  19.000  0.00  0.00    +0.000 A 
ATOM      7  C   UNL     1       1.157   2.816  18.567  0.00  0.00    +0.000 A 
ATOM      8  C   UNL     1       1.398   4.153  18.246  0.00  0.00    +0.000 A 
ATOM      9  C   UNL     1       2.693   4.682  18.349  0.00  0.00    +0.000 A 
ATOM     10 CL   UNL     1       2.915   6.354  17.965  0.00  0.00    +0.000 Cl
ENDBRANCH   2   3
BRANCH   1  12
ATOM     11  O   UNL     1       7.726   6.062  18.433  0.00  0.00    +0.000 OA
ATOM     12  C   UNL     1       7.428   4.951  18.020  0.00  0.00    +0.000 C 
BRANCH  12  13
ATOM     13  O   UNL     1       8.370   4.035  17.711  0.00  0.00    +0.000 OA
ATOM     14  H   UNL     1       8.760   3.554  18.461  0.00  0.00    +0.000 HD
ENDBRANCH  12  13
ENDBRANCH   1  12
BRANCH   1  15
ATOM     15  S   UNL     1       5.587   4.062  16.205  0.00  0.00    +0.000 S 
ATOM     16  H   UNL     1       5.963   2.770  16.276  0.00  0.00    +0.000 HD
ENDBRANCH   1  15
TORSDOF 4
ENDMDL
MODEL 6
REMARK VINA RESULT:      -6.0      2.442      2.717
REMARK  Name = 
REMARK  4 active torsions:
REMARK  status: ('A' for Active; 'I' for Inactive)
REMARK    1  A    between atoms: C_2  and  O_3
REMARK    2  A    between atoms: C_2  and  C_4
REMARK    3  A    between atoms: C_4  and  S_5
REMARK    4  A    between atoms: C_6  and  C_7
REMARK                            x       y       z     vdW  Elec       q    Type
REMARK                         _______ _______ _______ _____ _____    ______ ____
ROOT
ATOM      1  C   UNL     1       5.720   4.457  17.950  0.00  0.00    +0.000 C 
ATOM      2  C   UNL     1       5.175   4.004  19.096  0.00  0.00    +0.000 C 
ENDROOT
BRANCH   2   3
ATOM      3  C   UNL     1       3.730   3.824  19.340  0.00  0.00    +0.000 A 
ATOM      4  C   UNL     1       2.989   4.903  19.838  0.00  0.00    +0.000 A 
ATOM      5  F   UNL     1       3.588   6.085  20.049  0.00  0.00    +0.000 F 
ATOM      6  C   UNL     1       1.629   4.790  20.116  0.00  0.00    +0.000 A 
ATOM      7  C   UNL     1       0.976   3.581  19.891  0.00  0.00    +0.000 A 
ATOM      8  C   UNL     1       1.690   2.495  19.381  0.00  0.00    +0.000 A 
ATOM      9  C   UNL     1       3.059   2.615  19.106  0.00  0.00    +0.000 A 
ATOM     10 CL   UNL     1       3.875   1.239  18.449  0.00  0.00    +0.000 Cl
ENDBRANCH   2   3
BRANCH   1  12
ATOM     11  O   UNL     1       7.734   4.425  16.649  0.00  0.00    +0.000 OA
ATOM     12  C   UNL     1       7.203   4.564  17.742  0.00  0.00    +0.000 C 
BRANCH  12  13
ATOM     13  O   UNL     1       7.924   4.847  18.847  0.00  0.00    +0.000 OA
ATOM     14  H   UNL     1       8.848   5.112  18.698  0.00  0.00    +0.000 HD
ENDBRANCH  12  13
ENDBRANCH   1  12
BRANCH   1  15
ATOM     15  S   UNL     1       4.763   4.884  16.553  0.00  0.00    +0.000 S 
ATOM     16  H   UNL     1       4.714   6.210  16.785  0.00  0.00    +0.000 HD
ENDBRANCH   1  15
TORSDOF 4
ENDMDL
MODEL 7
REMARK VINA RESULT:      -6.0      1.706      1.711
REMARK  Name = 
REMARK  4 active torsions:
REMARK  status: ('A' for Active; 'I' for Inactive)
REMARK    1  A    between atoms: C_2  and  O_3
REMARK    2  A    between atoms: C_2  and  C_4
REMARK    3  A    between atoms: C_4  and  S_5
REMARK    4  A    between atoms: C_6  and  C_7
REMARK                            x       y       z     vdW  Elec       q    Type
REMARK                         _______ _______ _______ _____ _____    ______ ____
ROOT
ATOM      1  C   UNL     1       5.812   4.583  17.739  0.00  0.00    +0.000 C 
ATOM      2  C   UNL     1       5.362   4.669  19.006  0.00  0.00    +0.000 C 
ENDROOT
BRANCH   2   3
ATOM      3  C   UNL     1       4.010   4.283  19.459  0.00  0.00    +0.000 A 
ATOM      4  C   UNL     1       3.804   2.987  19.948  0.00  0.00    +0.000 A 
ATOM      5  F   UNL     1       4.837   2.133  20.034  0.00  0.00    +0.000 F 
ATOM      6  C   UNL     1       2.548   2.552  20.363  0.00  0.00    +0.000 A 
ATOM      7  C   UNL     1       1.462   3.421  20.302  0.00  0.00    +0.000 A 
ATOM      8  C   UNL     1       1.643   4.722  19.832  0.00  0.00    +0.000 A 
ATOM      9  C   UNL     1       2.911   5.152  19.413  0.00  0.00    +0.000 A 
ATOM     10 CL   UNL     1       3.070   6.787  18.870  0.00  0.00    +0.000 Cl
ENDBRANCH   2   3
BRANCH   1  12
ATOM     11  O   UNL     1       7.509   5.977  16.777  0.00  0.00    +0.000 OA
ATOM     12  C   UNL     1       7.218   4.938  17.351  0.00  0.00    +0.000 C 
BRANCH  12  13
ATOM     13  O   UNL     1       8.160   4.035  17.699  0.00  0.00    +0.000 OA
ATOM     14  H   UNL     1       8.089   3.161  17.280  0.00  0.00    +0.000 HD
ENDBRANCH  12  13
ENDBRANCH   1  12
BRANCH   1  15
ATOM     15  S   UNL     1       4.836   3.964  16.429  0.00  0.00    +0.000 S 
ATOM     16  H   UNL     1       3.888   3.383  17.190  0.00  0.00    +0.000 HD
ENDBRANCH   1  15
TORSDOF 4
ENDMDL
MODEL 8
REMARK VINA RESULT:      -6.0      2.394      2.697
REMARK  Name = 
REMARK  4 active torsions:
REMARK  status: ('A' for Active; 'I' for Inactive)
REMARK    1  A    between atoms: C_2  and  O_3
REMARK    2  A    between atoms: C_2  and  C_4
REMARK    3  A    between atoms: C_4  and  S_5
REMARK    4  A    between atoms: C_6  and  C_7
REMARK                            x       y       z     vdW  Elec       q    Type
REMARK                         _______ _______ _______ _____ _____    ______ ____
ROOT
ATOM      1  C   UNL     1       5.609   4.348  16.797  0.00  0.00    +0.000 C 
ATOM      2  C   UNL     1       4.334   3.939  16.646  0.00  0.00    +0.000 C 
ENDROOT
BRANCH   2   3
ATOM      3  C   UNL     1       3.360   3.760  17.743  0.00  0.00    +0.000 A 
ATOM      4  C   UNL     1       3.102   2.467  18.214  0.00  0.00    +0.000 A 
ATOM      5  F   UNL     1       3.764   1.421  17.694  0.00  0.00    +0.000 F 
ATOM      6  C   UNL     1       2.175   2.227  19.226  0.00  0.00    +0.000 A 
ATOM      7  C   UNL     1       1.486   3.294  19.796  0.00  0.00    +0.000 A 
ATOM      8  C   UNL     1       1.736   4.594  19.354  0.00  0.00    +0.000 A 
ATOM      9  C   UNL     1       2.669   4.827  18.333  0.00  0.00    +0.000 A 
ATOM     10 CL   UNL     1       2.950   6.465  17.855  0.00  0.00    +0.000 Cl
ENDBRANCH   2   3
BRANCH   1  12
ATOM     11  O   UNL     1       7.328   5.495  15.582  0.00  0.00    +0.000 OA
ATOM     12  C   UNL     1       6.534   4.567  15.636  0.00  0.00    +0.000 C 
BRANCH  12  13
ATOM     13  O   UNL     1       6.451   3.650  14.648  0.00  0.00    +0.000 OA
ATOM     14  H   UNL     1       5.789   2.949  14.772  0.00  0.00    +0.000 HD
ENDBRANCH  12  13
ENDBRANCH   1  12
BRANCH   1  15
ATOM     15  S   UNL     1       6.293   4.754  18.352  0.00  0.00    +0.000 S 
ATOM     16  H   UNL     1       5.567   5.869  18.566  0.00  0.00    +0.000 HD
ENDBRANCH   1  15
TORSDOF 4
ENDMDL
MODEL 9
REMARK VINA RESULT:      -6.0      2.729      3.072
REMARK  Name = 
REMARK  4 active torsions:
REMARK  status: ('A' for Active; 'I' for Inactive)
REMARK    1  A    between atoms: C_2  and  O_3
REMARK    2  A    between atoms: C_2  and  C_4
REMARK    3  A    between atoms: C_4  and  S_5
REMARK    4  A    between atoms: C_6  and  C_7
REMARK                            x       y       z     vdW  Elec       q    Type
REMARK                         _______ _______ _______ _____ _____    ______ ____
ROOT
ATOM      1  C   UNL     1       6.059   4.496  16.146  0.00  0.00    +0.000 C 
ATOM      2  C   UNL     1       4.720   4.398  16.260  0.00  0.00    +0.000 C 
ENDROOT
BRANCH   2   3
ATOM      3  C   UNL     1       3.966   4.457  17.529  0.00  0.00    +0.000 A 
ATOM      4  C   UNL     1       3.616   3.259  18.164  0.00  0.00    +0.000 A 
ATOM      5  F   UNL     1       3.999   2.086  17.636  0.00  0.00    +0.000 F 
ATOM      6  C   UNL     1       2.882   3.245  19.348  0.00  0.00    +0.000 A 
ATOM      7  C   UNL     1       2.485   4.448  19.928  0.00  0.00    +0.000 A 
ATOM      8  C   UNL     1       2.834   5.655  19.322  0.00  0.00    +0.000 A 
ATOM      9  C   UNL     1       3.571   5.661  18.129  0.00  0.00    +0.000 A 
ATOM     10 CL   UNL     1       3.995   7.194  17.448  0.00  0.00    +0.000 Cl
ENDBRANCH   2   3
BRANCH   1  12
ATOM     11  O   UNL     1       7.620   5.305  14.515  0.00  0.00    +0.000 OA
ATOM     12  C   UNL     1       6.763   4.487  14.820  0.00  0.00    +0.000 C 
BRANCH  12  13
ATOM     13  O   UNL     1       6.404   3.493  13.980  0.00  0.00    +0.000 OA
ATOM     14  H   UNL     1       6.059   3.770  13.114  0.00  0.00    +0.000 HD
ENDBRANCH  12  13
ENDBRANCH   1  12
BRANCH   1  15
ATOM     15  S   UNL     1       7.110   4.736  17.519  0.00  0.00    +0.000 S 
ATOM     16  H   UNL     1       7.542   5.968  17.184  0.00  0.00    +0.000 HD
ENDBRANCH   1  15
TORSDOF 4
ENDMDL
