MODEL 1
REMARK VINA RESULT:      -9.5      0.000      0.000
REMARK  Name = 
REMARK  7 active torsions:
REMARK  status: ('A' for Active; 'I' for Inactive)
REMARK    1  A    between atoms: C_7  and  O_8
REMARK    2  A    between atoms: O_8  and  C_9
REMARK    3  A    between atoms: C_9  and  C_10
REMARK    4  A    between atoms: C_13  and  S_14
REMARK    5  A    between atoms: S_14  and  C_15
REMARK    6  A    between atoms: C_15  and  C_16
REMARK    7  A    between atoms: C_20  and  C_21
REMARK                            x       y       z     vdW  Elec       q    Type
REMARK                         _______ _______ _______ _____ _____    ______ ____
ROOT
ATOM      1  C   UNL     1       7.825   7.655  17.879  0.00  0.00    +0.000 A 
ATOM      2  N   UNL     1       8.174   6.694  18.707  0.00  0.00    +0.000 NA
ATOM      3  N   UNL     1       7.619   5.536  18.212  0.00  0.00    +0.000 NA
ATOM      4  C   UNL     1       6.978   5.852  17.105  0.00  0.00    +0.000 A 
ATOM      5  O   UNL     1       7.083   7.192  16.811  0.00  0.00    +0.000 OA
ENDROOT
BRANCH   1   6
ATOM      6  C   UNL     1       8.189   9.098  17.934  0.00  0.00    +0.000 C 
BRANCH   6   7
ATOM      7  O   UNL     1       9.053   9.294  19.058  0.00  0.00    +0.000 OA
BRANCH   7  14
ATOM      8  O   UNL     1      12.160  16.232  18.479  0.00  0.00    +0.000 OA
ATOM      9  C   UNL     1      11.609  15.139  18.350  0.00  0.00    +0.000 C 
ATOM     10  C   UNL     1      11.176  14.603  17.006  0.00  0.00    +0.000 C 
ATOM     11  C   UNL     1      11.268  13.086  16.946  0.00  0.00    +0.000 C 
ATOM     12  C   UNL     1      10.621  12.456  18.150  0.00  0.00    +0.000 A 
ATOM     13  C   UNL     1      10.068  11.168  18.095  0.00  0.00    +0.000 A 
ATOM     14  C   UNL     1       9.553  10.557  19.247  0.00  0.00    +0.000 A 
ATOM     15  C   UNL     1       9.603  11.247  20.461  0.00  0.00    +0.000 A 
ATOM     16  C   UNL     1      10.171  12.527  20.526  0.00  0.00    +0.000 A 
ATOM     17  C   UNL     1      10.671  13.127  19.373  0.00  0.00    +0.000 A 
ATOM     18  N   UNL     1      11.249  14.399  19.445  0.00  0.00    +0.000 N 
ATOM     19  H   UNL     1      11.421  14.832  20.342  0.00  0.00    +0.000 HD
ENDBRANCH   7  14
ENDBRANCH   6   7
ENDBRANCH   1   6
BRANCH   4  20
ATOM     20  S   UNL     1       6.045   4.684  16.221  0.00  0.00    +0.000 S 
BRANCH  20  21
ATOM     21  C   UNL     1       4.331   5.098  16.633  0.00  0.00    +0.000 C 
BRANCH  21  22
ATOM     22  C   UNL     1       3.762   4.082  17.607  0.00  0.00    +0.000 A 
ATOM     23  C   UNL     1       3.936   2.706  17.380  0.00  0.00    +0.000 A 
ATOM     24  C   UNL     1       3.364   1.762  18.232  0.00  0.00    +0.000 A 
ATOM     25  C   UNL     1       2.603   2.172  19.326  0.00  0.00    +0.000 A 
ATOM     26  C   UNL     1       2.406   3.537  19.579  0.00  0.00    +0.000 A 
ATOM     27  C   UNL     1       2.993   4.483  18.714  0.00  0.00    +0.000 A 
BRANCH  26  28
ATOM     28  C   UNL     1       1.568   3.992  20.750  0.00  0.00    +0.000 C 
ATOM     29  F   UNL     1       0.275   4.270  20.422  0.00  0.00    +0.000 F 
ATOM     30  F   UNL     1       1.505   3.057  21.740  0.00  0.00    +0.000 F 
ATOM     31  F   UNL     1       2.054   5.122  21.335  0.00  0.00    +0.000 F 
ENDBRANCH  26  28
ENDBRANCH  21  22
ENDBRANCH  20  21
ENDBRANCH   4  20
TORSDOF 7
ENDMDL
MODEL 2
REMARK VINA RESULT:      -9.2      0.980      1.739
REMARK  Name = 
REMARK  7 active torsions:
REMARK  status: ('A' for Active; 'I' for Inactive)
REMARK    1  A    between atoms: C_7  and  O_8
REMARK    2  A    between atoms: O_8  and  C_9
REMARK    3  A    between atoms: C_9  and  C_10
REMARK    4  A    between atoms: C_13  and  S_14
REMARK    5  A    between atoms: S_14  and  C_15
REMARK    6  A    between atoms: C_15  and  C_16
REMARK    7  A    between atoms: C_20  and  C_21
REMARK                            x       y       z     vdW  Elec       q    Type
REMARK                         _______ _______ _______ _____ _____    ______ ____
ROOT
ATOM      1  C   UNL     1       7.883   7.560  18.002  0.00  0.00    +0.000 A 
ATOM      2  N   UNL     1       8.135   6.686  18.954  0.00  0.00    +0.000 NA
ATOM      3  N   UNL     1       7.681   5.472  18.494  0.00  0.00    +0.000 NA
ATOM      4  C   UNL     1       7.193   5.668  17.286  0.00  0.00    +0.000 A 
ATOM      5  O   UNL     1       7.307   6.981  16.889  0.00  0.00    +0.000 OA
ENDROOT
BRANCH   1   6
ATOM      6  C   UNL     1       8.203   9.014  17.976  0.00  0.00    +0.000 C 
BRANCH   6   7
ATOM      7  O   UNL     1       9.143   9.280  19.022  0.00  0.00    +0.000 OA
BRANCH   7  14
ATOM      8  O   UNL     1      11.791  16.402  18.397  0.00  0.00    +0.000 OA
ATOM      9  C   UNL     1      11.335  15.265  18.271  0.00  0.00    +0.000 C 
ATOM     10  C   UNL     1      11.074  14.642  16.920  0.00  0.00    +0.000 C 
ATOM     11  C   UNL     1      11.279  13.135  16.944  0.00  0.00    +0.000 C 
ATOM     12  C   UNL     1      10.564  12.510  18.111  0.00  0.00    +0.000 A 
ATOM     13  C   UNL     1      10.112  11.182  18.068  0.00  0.00    +0.000 A 
ATOM     14  C   UNL     1       9.531  10.584  19.195  0.00  0.00    +0.000 A 
ATOM     15  C   UNL     1       9.413  11.326  20.372  0.00  0.00    +0.000 A 
ATOM     16  C   UNL     1       9.880  12.647  20.427  0.00  0.00    +0.000 A 
ATOM     17  C   UNL     1      10.446  13.234  19.298  0.00  0.00    +0.000 A 
ATOM     18  N   UNL     1      10.922  14.547  19.362  0.00  0.00    +0.000 N 
ATOM     19  H   UNL     1      10.974  15.029  20.249  0.00  0.00    +0.000 HD
ENDBRANCH   7  14
ENDBRANCH   6   7
ENDBRANCH   1   6
BRANCH   4  20
ATOM     20  S   UNL     1       6.418   4.396  16.392  0.00  0.00    +0.000 S 
BRANCH  20  21
ATOM     21  C   UNL     1       4.844   5.127  15.876  0.00  0.00    +0.000 C 
BRANCH  21  22
ATOM     22  C   UNL     1       3.916   5.280  17.070  0.00  0.00    +0.000 A 
ATOM     23  C   UNL     1       3.831   6.505  17.750  0.00  0.00    +0.000 A 
ATOM     24  C   UNL     1       3.031   6.640  18.885  0.00  0.00    +0.000 A 
ATOM     25  C   UNL     1       2.304   5.552  19.365  0.00  0.00    +0.000 A 
ATOM     26  C   UNL     1       2.369   4.313  18.712  0.00  0.00    +0.000 A 
ATOM     27  C   UNL     1       3.177   4.189  17.563  0.00  0.00    +0.000 A 
BRANCH  26  28
ATOM     28  C   UNL     1       1.600   3.123  19.234  0.00  0.00    +0.000 C 
ATOM     29  F   UNL     1       2.376   2.217  19.895  0.00  0.00    +0.000 F 
ATOM     30  F   UNL     1       0.620   3.480  20.111  0.00  0.00    +0.000 F 
ATOM     31  F   UNL     1       0.978   2.425  18.244  0.00  0.00    +0.000 F 
ENDBRANCH  26  28
ENDBRANCH  21  22
ENDBRANCH  20  21
ENDBRANCH   4  20
TORSDOF 7
ENDMDL
MODEL 3
REMARK VINA RESULT:      -8.9      5.348     10.918
REMARK  Name = 
REMARK  7 active torsions:
REMARK  status: ('A' for Active; 'I' for Inactive)
REMARK    1  A    between atoms: C_7  and  O_8
REMARK    2  A    between atoms: O_8  and  C_9
REMARK    3  A    between atoms: C_9  and  C_10
REMARK    4  A    between atoms: C_13  and  S_14
REMARK    5  A    between atoms: S_14  and  C_15
REMARK    6  A    between atoms: C_15  and  C_16
REMARK    7  A    between atoms: C_20  and  C_21
REMARK                            x       y       z     vdW  Elec       q    Type
REMARK                         _______ _______ _______ _____ _____    ______ ____
ROOT
ATOM      1  C   UNL     1       7.179   5.880  16.921  0.00  0.00    +0.000 A 
ATOM      2  N   UNL     1       7.637   5.683  18.139  0.00  0.00    +0.000 NA
ATOM      3  N   UNL     1       8.035   6.914  18.606  0.00  0.00    +0.000 NA
ATOM      4  C   UNL     1       7.784   7.793  17.656  0.00  0.00    +0.000 A 
ATOM      5  O   UNL     1       7.211   7.209  16.550  0.00  0.00    +0.000 OA
ENDROOT
BRANCH   1   6
ATOM      6  C   UNL     1       6.594   4.882  15.983  0.00  0.00    +0.000 C 
BRANCH   6   7
ATOM      7  O   UNL     1       5.187   5.127  15.896  0.00  0.00    +0.000 OA
BRANCH   7  14
ATOM      8  O   UNL     1       1.694   2.978  22.323  0.00  0.00    +0.000 OA
ATOM      9  C   UNL     1       2.404   3.155  21.333  0.00  0.00    +0.000 C 
ATOM     10  C   UNL     1       3.517   2.207  20.955  0.00  0.00    +0.000 C 
ATOM     11  C   UNL     1       3.710   2.134  19.447  0.00  0.00    +0.000 C 
ATOM     12  C   UNL     1       3.779   3.512  18.844  0.00  0.00    +0.000 A 
ATOM     13  C   UNL     1       4.486   3.758  17.657  0.00  0.00    +0.000 A 
ATOM     14  C   UNL     1       4.464   5.024  17.057  0.00  0.00    +0.000 A 
ATOM     15  C   UNL     1       3.718   6.045  17.653  0.00  0.00    +0.000 A 
ATOM     16  C   UNL     1       2.994   5.800  18.827  0.00  0.00    +0.000 A 
ATOM     17  C   UNL     1       3.032   4.540  19.420  0.00  0.00    +0.000 A 
ATOM     18  N   UNL     1       2.297   4.298  20.586  0.00  0.00    +0.000 N 
ATOM     19  H   UNL     1       1.643   4.987  20.930  0.00  0.00    +0.000 HD
ENDBRANCH   7  14
ENDBRANCH   6   7
ENDBRANCH   1   6
BRANCH   4  20
ATOM     20  S   UNL     1       8.239   9.463  17.808  0.00  0.00    +0.000 S 
BRANCH  20  21
ATOM     21  C   UNL     1       8.969   9.563  19.462  0.00  0.00    +0.000 C 
BRANCH  21  22
ATOM     22  C   UNL     1       9.696  10.885  19.639  0.00  0.00    +0.000 A 
ATOM     23  C   UNL     1       9.717  11.521  20.891  0.00  0.00    +0.000 A 
ATOM     24  C   UNL     1      10.327  12.765  21.052  0.00  0.00    +0.000 A 
ATOM     25  C   UNL     1      10.923  13.401  19.964  0.00  0.00    +0.000 A 
ATOM     26  C   UNL     1      10.916  12.796  18.699  0.00  0.00    +0.000 A 
ATOM     27  C   UNL     1      10.302  11.536  18.549  0.00  0.00    +0.000 A 
BRANCH  26  28
ATOM     28  C   UNL     1      11.543  13.484  17.510  0.00  0.00    +0.000 C 
ATOM     29  F   UNL     1      12.332  12.667  16.757  0.00  0.00    +0.000 F 
ATOM     30  F   UNL     1      10.613  13.992  16.653  0.00  0.00    +0.000 F 
ATOM     31  F   UNL     1      12.332  14.534  17.868  0.00  0.00    +0.000 F 
ENDBRANCH  26  28
ENDBRANCH  21  22
ENDBRANCH  20  21
ENDBRANCH   4  20
TORSDOF 7
ENDMDL
MODEL 4
REMARK VINA RESULT:      -8.8      2.285      2.732
REMARK  Name = 
REMARK  7 active torsions:
REMARK  status: ('A' for Active; 'I' for Inactive)
REMARK    1  A    between atoms: C_7  and  O_8
REMARK    2  A    between atoms: O_8  and  C_9
REMARK    3  A    between atoms: C_9  and  C_10
REMARK    4  A    between atoms: C_13  and  S_14
REMARK    5  A    between atoms: S_14  and  C_15
REMARK    6  A    between atoms: C_15  and  C_16
REMARK    7  A    between atoms: C_20  and  C_21
REMARK                            x       y       z     vdW  Elec       q    Type
REMARK                         _______ _______ _______ _____ _____    ______ ____
ROOT
ATOM      1  C   UNL     1       8.299   8.602  18.261  0.00  0.00    +0.000 A 
ATOM      2  N   UNL     1       7.466   8.638  17.242  0.00  0.00    +0.000 NA
ATOM      3  N   UNL     1       7.016   7.351  17.064  0.00  0.00    +0.000 NA
ATOM      4  C   UNL     1       7.586   6.606  17.991  0.00  0.00    +0.000 A 
ATOM      5  O   UNL     1       8.407   7.343  18.813  0.00  0.00    +0.000 OA
ENDROOT
BRANCH   1   6
ATOM      6  C   UNL     1       9.039   9.732  18.887  0.00  0.00    +0.000 C 
BRANCH   6   7
ATOM      7  O   UNL     1       9.630  10.509  17.841  0.00  0.00    +0.000 OA
BRANCH   7  14
ATOM      8  O   UNL     1       7.939  17.926  18.347  0.00  0.00    +0.000 OA
ATOM      9  C   UNL     1       7.991  16.696  18.319  0.00  0.00    +0.000 C 
ATOM     10  C   UNL     1       6.760  15.830  18.438  0.00  0.00    +0.000 C 
ATOM     11  C   UNL     1       6.898  14.540  17.644  0.00  0.00    +0.000 C 
ATOM     12  C   UNL     1       8.213  13.865  17.931  0.00  0.00    +0.000 A 
ATOM     13  C   UNL     1       8.365  12.476  17.815  0.00  0.00    +0.000 A 
ATOM     14  C   UNL     1       9.618  11.872  17.994  0.00  0.00    +0.000 A 
ATOM     15  C   UNL     1      10.723  12.676  18.284  0.00  0.00    +0.000 A 
ATOM     16  C   UNL     1      10.581  14.067  18.383  0.00  0.00    +0.000 A 
ATOM     17  C   UNL     1       9.329  14.654  18.213  0.00  0.00    +0.000 A 
ATOM     18  N   UNL     1       9.195  16.044  18.300  0.00  0.00    +0.000 N 
ATOM     19  H   UNL     1      10.014  16.633  18.359  0.00  0.00    +0.000 HD
ENDBRANCH   7  14
ENDBRANCH   6   7
ENDBRANCH   1   6
BRANCH   4  20
ATOM     20  S   UNL     1       7.362   4.884  18.049  0.00  0.00    +0.000 S 
BRANCH  20  21
ATOM     21  C   UNL     1       5.936   4.597  16.970  0.00  0.00    +0.000 C 
BRANCH  21  22
ATOM     22  C   UNL     1       4.644   4.725  17.758  0.00  0.00    +0.000 A 
ATOM     23  C   UNL     1       3.774   5.803  17.525  0.00  0.00    +0.000 A 
ATOM     24  C   UNL     1       2.616   5.966  18.285  0.00  0.00    +0.000 A 
ATOM     25  C   UNL     1       2.306   5.057  19.296  0.00  0.00    +0.000 A 
ATOM     26  C   UNL     1       3.155   3.973  19.558  0.00  0.00    +0.000 A 
ATOM     27  C   UNL     1       4.320   3.814  18.780  0.00  0.00    +0.000 A 
BRANCH  26  28
ATOM     28  C   UNL     1       2.838   2.994  20.663  0.00  0.00    +0.000 C 
ATOM     29  F   UNL     1       2.371   3.584  21.800  0.00  0.00    +0.000 F 
ATOM     30  F   UNL     1       1.886   2.088  20.300  0.00  0.00    +0.000 F 
ATOM     31  F   UNL     1       3.922   2.263  21.043  0.00  0.00    +0.000 F 
ENDBRANCH  26  28
ENDBRANCH  21  22
ENDBRANCH  20  21
ENDBRANCH   4  20
TORSDOF 7
ENDMDL
MODEL 5
REMARK VINA RESULT:      -8.6      1.421      2.037
REMARK  Name = 
REMARK  7 active torsions:
REMARK  status: ('A' for Active; 'I' for Inactive)
REMARK    1  A    between atoms: C_7  and  O_8
REMARK    2  A    between atoms: O_8  and  C_9
REMARK    3  A    between atoms: C_9  and  C_10
REMARK    4  A    between atoms: C_13  and  S_14
REMARK    5  A    between atoms: S_14  and  C_15
REMARK    6  A    between atoms: C_15  and  C_16
REMARK    7  A    between atoms: C_20  and  C_21
REMARK                            x       y       z     vdW  Elec       q    Type
REMARK                         _______ _______ _______ _____ _____    ______ ____
ROOT
ATOM      1  C   UNL     1       7.871   8.381  17.818  0.00  0.00    +0.000 A 
ATOM      2  N   UNL     1       8.341   7.522  18.698  0.00  0.00    +0.000 NA
ATOM      3  N   UNL     1       7.930   6.278  18.281  0.00  0.00    +0.000 NA
ATOM      4  C   UNL     1       7.248   6.444  17.165  0.00  0.00    +0.000 A 
ATOM      5  O   UNL     1       7.185   7.767  16.790  0.00  0.00    +0.000 OA
ENDROOT
BRANCH   1   6
ATOM      6  C   UNL     1       8.055   9.858  17.782  0.00  0.00    +0.000 C 
BRANCH   6   7
ATOM      7  O   UNL     1       9.281  10.168  18.452  0.00  0.00    +0.000 OA
BRANCH   7  14
ATOM      8  O   UNL     1      10.971  17.486  17.141  0.00  0.00    +0.000 OA
ATOM      9  C   UNL     1      10.530  16.389  17.484  0.00  0.00    +0.000 C 
ATOM     10  C   UNL     1       9.252  16.241  18.275  0.00  0.00    +0.000 C 
ATOM     11  C   UNL     1       8.520  14.953  17.928  0.00  0.00    +0.000 C 
ATOM     12  C   UNL     1       9.455  13.774  17.954  0.00  0.00    +0.000 A 
ATOM     13  C   UNL     1       8.996  12.479  18.236  0.00  0.00    +0.000 A 
ATOM     14  C   UNL     1       9.860  11.378  18.165  0.00  0.00    +0.000 A 
ATOM     15  C   UNL     1      11.193  11.585  17.800  0.00  0.00    +0.000 A 
ATOM     16  C   UNL     1      11.654  12.873  17.499  0.00  0.00    +0.000 A 
ATOM     17  C   UNL     1      10.788  13.961  17.583  0.00  0.00    +0.000 A 
ATOM     18  N   UNL     1      11.249  15.243  17.269  0.00  0.00    +0.000 N 
ATOM     19  H   UNL     1      12.166  15.371  16.862  0.00  0.00    +0.000 HD
ENDBRANCH   7  14
ENDBRANCH   6   7
ENDBRANCH   1   6
BRANCH   4  20
ATOM     20  S   UNL     1       6.460   5.119  16.365  0.00  0.00    +0.000 S 
BRANCH  20  21
ATOM     21  C   UNL     1       5.880   4.075  17.727  0.00  0.00    +0.000 C 
BRANCH  21  22
ATOM     22  C   UNL     1       4.509   4.530  18.194  0.00  0.00    +0.000 A 
ATOM     23  C   UNL     1       3.936   5.704  17.676  0.00  0.00    +0.000 A 
ATOM     24  C   UNL     1       2.705   6.166  18.143  0.00  0.00    +0.000 A 
ATOM     25  C   UNL     1       2.025   5.468  19.139  0.00  0.00    +0.000 A 
ATOM     26  C   UNL     1       2.570   4.295  19.680  0.00  0.00    +0.000 A 
ATOM     27  C   UNL     1       3.811   3.834  19.197  0.00  0.00    +0.000 A 
BRANCH  26  28
ATOM     28  C   UNL     1       1.850   3.541  20.773  0.00  0.00    +0.000 C 
ATOM     29  F   UNL     1       0.505   3.761  20.794  0.00  0.00    +0.000 F 
ATOM     30  F   UNL     1       2.002   2.191  20.662  0.00  0.00    +0.000 F 
ATOM     31  F   UNL     1       2.298   3.865  22.017  0.00  0.00    +0.000 F 
ENDBRANCH  26  28
ENDBRANCH  21  22
ENDBRANCH  20  21
ENDBRANCH   4  20
TORSDOF 7
ENDMDL
MODEL 6
REMARK VINA RESULT:      -8.5      2.419      3.057
REMARK  Name = 
REMARK  7 active torsions:
REMARK  status: ('A' for Active; 'I' for Inactive)
REMARK    1  A    between atoms: C_7  and  O_8
REMARK    2  A    between atoms: O_8  and  C_9
REMARK    3  A    between atoms: C_9  and  C_10
REMARK    4  A    between atoms: C_13  and  S_14
REMARK    5  A    between atoms: S_14  and  C_15
REMARK    6  A    between atoms: C_15  and  C_16
REMARK    7  A    between atoms: C_20  and  C_21
REMARK                            x       y       z     vdW  Elec       q    Type
REMARK                         _______ _______ _______ _____ _____    ______ ____
ROOT
ATOM      1  C   UNL     1       8.588   9.113  18.419  0.00  0.00    +0.000 A 
ATOM      2  N   UNL     1       7.770   9.250  17.397  0.00  0.00    +0.000 NA
ATOM      3  N   UNL     1       7.268   7.996  17.134  0.00  0.00    +0.000 NA
ATOM      4  C   UNL     1       7.793   7.171  18.017  0.00  0.00    +0.000 A 
ATOM      5  O   UNL     1       8.635   7.818  18.892  0.00  0.00    +0.000 OA
ENDROOT
BRANCH   1   6
ATOM      6  C   UNL     1       9.369  10.168  19.123  0.00  0.00    +0.000 C 
BRANCH   6   7
ATOM      7  O   UNL     1      10.114  10.897  18.142  0.00  0.00    +0.000 OA
BRANCH   7  14
ATOM      8  O   UNL     1       8.066  18.240  18.235  0.00  0.00    +0.000 OA
ATOM      9  C   UNL     1       8.183  17.015  18.295  0.00  0.00    +0.000 C 
ATOM     10  C   UNL     1       7.016  16.103  18.590  0.00  0.00    +0.000 C 
ATOM     11  C   UNL     1       7.157  14.761  17.887  0.00  0.00    +0.000 C 
ATOM     12  C   UNL     1       8.527  14.177  18.105  0.00  0.00    +0.000 A 
ATOM     13  C   UNL     1       8.745  12.791  18.081  0.00  0.00    +0.000 A 
ATOM     14  C   UNL     1      10.039  12.265  18.192  0.00  0.00    +0.000 A 
ATOM     15  C   UNL     1      11.120  13.142  18.320  0.00  0.00    +0.000 A 
ATOM     16  C   UNL     1      10.910  14.528  18.325  0.00  0.00    +0.000 A 
ATOM     17  C   UNL     1       9.618  15.038  18.225  0.00  0.00    +0.000 A 
ATOM     18  N   UNL     1       9.415  16.422  18.217  0.00  0.00    +0.000 N 
ATOM     19  H   UNL     1      10.203  17.054  18.158  0.00  0.00    +0.000 HD
ENDBRANCH   7  14
ENDBRANCH   6   7
ENDBRANCH   1   6
BRANCH   4  20
ATOM     20  S   UNL     1       7.495   5.460  17.964  0.00  0.00    +0.000 S 
BRANCH  20  21
ATOM     21  C   UNL     1       6.301   5.271  16.616  0.00  0.00    +0.000 C 
BRANCH  21  22
ATOM     22  C   UNL     1       4.892   5.160  17.172  0.00  0.00    +0.000 A 
ATOM     23  C   UNL     1       4.145   6.317  17.449  0.00  0.00    +0.000 A 
ATOM     24  C   UNL     1       2.874   6.230  18.018  0.00  0.00    +0.000 A 
ATOM     25  C   UNL     1       2.326   4.985  18.325  0.00  0.00    +0.000 A 
ATOM     26  C   UNL     1       3.046   3.811  18.065  0.00  0.00    +0.000 A 
ATOM     27  C   UNL     1       4.327   3.910  17.485  0.00  0.00    +0.000 A 
BRANCH  26  28
ATOM     28  C   UNL     1       2.469   2.459  18.411  0.00  0.00    +0.000 C 
ATOM     29  F   UNL     1       2.104   1.724  17.323  0.00  0.00    +0.000 F 
ATOM     30  F   UNL     1       3.347   1.680  19.105  0.00  0.00    +0.000 F 
ATOM     31  F   UNL     1       1.355   2.548  19.189  0.00  0.00    +0.000 F 
ENDBRANCH  26  28
ENDBRANCH  21  22
ENDBRANCH  20  21
ENDBRANCH   4  20
TORSDOF 7
ENDMDL
MODEL 7
REMARK VINA RESULT:      -8.5      4.948     10.866
REMARK  Name = 
REMARK  7 active torsions:
REMARK  status: ('A' for Active; 'I' for Inactive)
REMARK    1  A    between atoms: C_7  and  O_8
REMARK    2  A    between atoms: O_8  and  C_9
REMARK    3  A    between atoms: C_9  and  C_10
REMARK    4  A    between atoms: C_13  and  S_14
REMARK    5  A    between atoms: S_14  and  C_15
REMARK    6  A    between atoms: C_15  and  C_16
REMARK    7  A    between atoms: C_20  and  C_21
REMARK                            x       y       z     vdW  Elec       q    Type
REMARK                         _______ _______ _______ _____ _____    ______ ____
ROOT
ATOM      1  C   UNL     1       7.194   6.196  17.164  0.00  0.00    +0.000 A 
ATOM      2  N   UNL     1       7.838   6.075  18.306  0.00  0.00    +0.000 NA
ATOM      3  N   UNL     1       8.254   7.339  18.651  0.00  0.00    +0.000 NA
ATOM      4  C   UNL     1       7.829   8.161  17.712  0.00  0.00    +0.000 A 
ATOM      5  O   UNL     1       7.120   7.504  16.732  0.00  0.00    +0.000 OA
ENDROOT
BRANCH   1   6
ATOM      6  C   UNL     1       6.514   5.134  16.371  0.00  0.00    +0.000 C 
BRANCH   6   7
ATOM      7  O   UNL     1       5.134   5.491  16.244  0.00  0.00    +0.000 OA
BRANCH   7  14
ATOM      8  O   UNL     1       1.363   2.740  22.272  0.00  0.00    +0.000 OA
ATOM      9  C   UNL     1       2.131   3.029  21.355  0.00  0.00    +0.000 C 
ATOM     10  C   UNL     1       3.369   2.220  21.050  0.00  0.00    +0.000 C 
ATOM     11  C   UNL     1       3.696   2.226  19.564  0.00  0.00    +0.000 C 
ATOM     12  C   UNL     1       3.665   3.625  19.008  0.00  0.00    +0.000 A 
ATOM     13  C   UNL     1       4.439   3.989  17.897  0.00  0.00    +0.000 A 
ATOM     14  C   UNL     1       4.330   5.268  17.333  0.00  0.00    +0.000 A 
ATOM     15  C   UNL     1       3.430   6.180  17.889  0.00  0.00    +0.000 A 
ATOM     16  C   UNL     1       2.640   5.815  18.988  0.00  0.00    +0.000 A 
ATOM     17  C   UNL     1       2.765   4.545  19.546  0.00  0.00    +0.000 A 
ATOM     18  N   UNL     1       1.964   4.182  20.634  0.00  0.00    +0.000 N 
ATOM     19  H   UNL     1       1.211   4.784  20.938  0.00  0.00    +0.000 HD
ENDBRANCH   7  14
ENDBRANCH   6   7
ENDBRANCH   1   6
BRANCH   4  20
ATOM     20  S   UNL     1       8.238   9.850  17.717  0.00  0.00    +0.000 S 
BRANCH  20  21
ATOM     21  C   UNL     1       9.318  10.028  19.160  0.00  0.00    +0.000 C 
BRANCH  21  22
ATOM     22  C   UNL     1       9.774  11.470  19.302  0.00  0.00    +0.000 A 
ATOM     23  C   UNL     1      10.882  11.787  20.105  0.00  0.00    +0.000 A 
ATOM     24  C   UNL     1      11.273  13.114  20.294  0.00  0.00    +0.000 A 
ATOM     25  C   UNL     1      10.561  14.148  19.689  0.00  0.00    +0.000 A 
ATOM     26  C   UNL     1       9.447  13.867  18.885  0.00  0.00    +0.000 A 
ATOM     27  C   UNL     1       9.065  12.523  18.696  0.00  0.00    +0.000 A 
BRANCH  26  28
ATOM     28  C   UNL     1       8.658  14.981  18.241  0.00  0.00    +0.000 C 
ATOM     29  F   UNL     1       9.372  15.703  17.332  0.00  0.00    +0.000 F 
ATOM     30  F   UNL     1       7.563  14.524  17.571  0.00  0.00    +0.000 F 
ATOM     31  F   UNL     1       8.191  15.884  19.147  0.00  0.00    +0.000 F 
ENDBRANCH  26  28
ENDBRANCH  21  22
ENDBRANCH  20  21
ENDBRANCH   4  20
TORSDOF 7
ENDMDL
MODEL 8
REMARK VINA RESULT:      -8.5      6.367      8.108
REMARK  Name = 
REMARK  7 active torsions:
REMARK  status: ('A' for Active; 'I' for Inactive)
REMARK    1  A    between atoms: C_7  and  O_8
REMARK    2  A    between atoms: O_8  and  C_9
REMARK    3  A    between atoms: C_9  and  C_10
REMARK    4  A    between atoms: C_13  and  S_14
REMARK    5  A    between atoms: S_14  and  C_15
REMARK    6  A    between atoms: C_15  and  C_16
REMARK    7  A    between atoms: C_20  and  C_21
REMARK                            x       y       z     vdW  Elec       q    Type
REMARK                         _______ _______ _______ _____ _____    ______ ____
ROOT
ATOM      1  C   UNL     1       1.599   4.512  20.313  0.00  0.00    +0.000 A 
ATOM      2  N   UNL     1       0.929   3.395  20.504  0.00  0.00    +0.000 NA
ATOM      3  N   UNL     1       1.565   2.431  19.757  0.00  0.00    +0.000 NA
ATOM      4  C   UNL     1       2.593   3.007  19.167  0.00  0.00    +0.000 A 
ATOM      5  O   UNL     1       2.695   4.341  19.493  0.00  0.00    +0.000 OA
ENDROOT
BRANCH   1   6
ATOM      6  C   UNL     1       1.350   5.851  20.915  0.00  0.00    +0.000 C 
BRANCH   6   7
ATOM      7  O   UNL     1       2.360   6.746  20.438  0.00  0.00    +0.000 OA
BRANCH   7  14
ATOM      8  O   UNL     1      -0.713  13.371  18.246  0.00  0.00    +0.000 OA
ATOM      9  C   UNL     1      -0.221  12.393  18.810  0.00  0.00    +0.000 C 
ATOM     10  C   UNL     1      -0.124  12.289  20.314  0.00  0.00    +0.000 C 
ATOM     11  C   UNL     1      -0.247  10.849  20.789  0.00  0.00    +0.000 C 
ATOM     12  C   UNL     1       0.660   9.940  20.003  0.00  0.00    +0.000 A 
ATOM     13  C   UNL     1       1.168   8.755  20.554  0.00  0.00    +0.000 A 
ATOM     14  C   UNL     1       1.934   7.872  19.781  0.00  0.00    +0.000 A 
ATOM     15  C   UNL     1       2.181   8.183  18.441  0.00  0.00    +0.000 A 
ATOM     16  C   UNL     1       1.659   9.356  17.878  0.00  0.00    +0.000 A 
ATOM     17  C   UNL     1       0.908  10.231  18.660  0.00  0.00    +0.000 A 
ATOM     18  N   UNL     1       0.379  11.393  18.091  0.00  0.00    +0.000 N 
ATOM     19  H   UNL     1       0.429  11.542  17.092  0.00  0.00    +0.000 HD
ENDBRANCH   7  14
ENDBRANCH   6   7
ENDBRANCH   1   6
BRANCH   4  20
ATOM     20  S   UNL     1       3.603   2.152  18.041  0.00  0.00    +0.000 S 
BRANCH  20  21
ATOM     21  C   UNL     1       3.578   3.194  16.560  0.00  0.00    +0.000 C 
BRANCH  21  22
ATOM     22  C   UNL     1       4.880   3.965  16.436  0.00  0.00    +0.000 A 
ATOM     23  C   UNL     1       5.491   4.131  15.182  0.00  0.00    +0.000 A 
ATOM     24  C   UNL     1       6.719   4.783  15.063  0.00  0.00    +0.000 A 
ATOM     25  C   UNL     1       7.363   5.278  16.196  0.00  0.00    +0.000 A 
ATOM     26  C   UNL     1       6.784   5.126  17.464  0.00  0.00    +0.000 A 
ATOM     27  C   UNL     1       5.540   4.471  17.571  0.00  0.00    +0.000 A 
BRANCH  26  28
ATOM     28  C   UNL     1       7.482   5.643  18.699  0.00  0.00    +0.000 C 
ATOM     29  F   UNL     1       8.566   4.902  19.065  0.00  0.00    +0.000 F 
ATOM     30  F   UNL     1       7.941   6.917  18.543  0.00  0.00    +0.000 F 
ATOM     31  F   UNL     1       6.667   5.671  19.789  0.00  0.00    +0.000 F 
ENDBRANCH  26  28
ENDBRANCH  21  22
ENDBRANCH  20  21
ENDBRANCH   4  20
TORSDOF 7
ENDMDL
MODEL 9
REMARK VINA RESULT:      -8.5      6.554      9.287
REMARK  Name = 
REMARK  7 active torsions:
REMARK  status: ('A' for Active; 'I' for Inactive)
REMARK    1  A    between atoms: C_7  and  O_8
REMARK    2  A    between atoms: O_8  and  C_9
REMARK    3  A    between atoms: C_9  and  C_10
REMARK    4  A    between atoms: C_13  and  S_14
REMARK    5  A    between atoms: S_14  and  C_15
REMARK    6  A    between atoms: C_15  and  C_16
REMARK    7  A    between atoms: C_20  and  C_21
REMARK                            x       y       z     vdW  Elec       q    Type
REMARK                         _______ _______ _______ _____ _____    ______ ____
ROOT
ATOM      1  C   UNL     1       2.214   7.272  18.664  0.00  0.00    +0.000 A 
ATOM      2  N   UNL     1       2.168   7.162  19.975  0.00  0.00    +0.000 NA
ATOM      3  N   UNL     1       2.382   5.833  20.259  0.00  0.00    +0.000 NA
ATOM      4  C   UNL     1       2.562   5.211  19.111  0.00  0.00    +0.000 A 
ATOM      5  O   UNL     1       2.492   6.072  18.040  0.00  0.00    +0.000 OA
ENDROOT
BRANCH   1   6
ATOM      6  C   UNL     1       2.078   8.502  17.836  0.00  0.00    +0.000 C 
BRANCH   6   7
ATOM      7  O   UNL     1       1.988   9.624  18.720  0.00  0.00    +0.000 OA
BRANCH   7  14
ATOM      8  O   UNL     1      -5.156  12.155  17.895  0.00  0.00    +0.000 OA
ATOM      9  C   UNL     1      -4.083  11.553  17.934  0.00  0.00    +0.000 C 
ATOM     10  C   UNL     1      -3.886  10.204  17.284  0.00  0.00    +0.000 C 
ATOM     11  C   UNL     1      -2.463  10.024  16.777  0.00  0.00    +0.000 C 
ATOM     12  C   UNL     1      -1.460  10.402  17.834  0.00  0.00    +0.000 A 
ATOM     13  C   UNL     1      -0.180   9.828  17.869  0.00  0.00    +0.000 A 
ATOM     14  C   UNL     1       0.775  10.258  18.800  0.00  0.00    +0.000 A 
ATOM     15  C   UNL     1       0.439  11.277  19.695  0.00  0.00    +0.000 A 
ATOM     16  C   UNL     1      -0.831  11.868  19.652  0.00  0.00    +0.000 A 
ATOM     17  C   UNL     1      -1.775  11.425  18.729  0.00  0.00    +0.000 A 
ATOM     18  N   UNL     1      -3.037  12.027  18.682  0.00  0.00    +0.000 N 
ATOM     19  H   UNL     1      -3.227  12.859  19.223  0.00  0.00    +0.000 HD
ENDBRANCH   7  14
ENDBRANCH   6   7
ENDBRANCH   1   6
BRANCH   4  20
ATOM     20  S   UNL     1       2.760   3.487  19.024  0.00  0.00    +0.000 S 
BRANCH  20  21
ATOM     21  C   UNL     1       4.508   3.232  19.422  0.00  0.00    +0.000 C 
BRANCH  21  22
ATOM     22  C   UNL     1       5.379   4.164  18.597  0.00  0.00    +0.000 A 
ATOM     23  C   UNL     1       6.254   5.062  19.229  0.00  0.00    +0.000 A 
ATOM     24  C   UNL     1       7.013   5.966  18.484  0.00  0.00    +0.000 A 
ATOM     25  C   UNL     1       6.908   5.994  17.095  0.00  0.00    +0.000 A 
ATOM     26  C   UNL     1       6.040   5.114  16.432  0.00  0.00    +0.000 A 
ATOM     27  C   UNL     1       5.282   4.201  17.194  0.00  0.00    +0.000 A 
BRANCH  26  28
ATOM     28  C   UNL     1       5.904   5.149  14.929  0.00  0.00    +0.000 C 
ATOM     29  F   UNL     1       5.202   6.222  14.467  0.00  0.00    +0.000 F 
ATOM     30  F   UNL     1       7.112   5.198  14.298  0.00  0.00    +0.000 F 
ATOM     31  F   UNL     1       5.270   4.050  14.434  0.00  0.00    +0.000 F 
ENDBRANCH  26  28
ENDBRANCH  21  22
ENDBRANCH  20  21
ENDBRANCH   4  20
TORSDOF 7
ENDMDL
