MODEL 1
REMARK VINA RESULT:      -7.4      0.000      0.000
REMARK  Name = 
REMARK  5 active torsions:
REMARK  status: ('A' for Active; 'I' for Inactive)
REMARK    1  A    between atoms: C_1  and  N_2
REMARK    2  A    between atoms: C_6  and  C_7
REMARK    3  A    between atoms: C_11  and  O_12
REMARK    4  A    between atoms: O_12  and  C_13
REMARK    5  A    between atoms: C_13  and  C_14
REMARK                            x       y       z     vdW  Elec       q    Type
REMARK                         _______ _______ _______ _____ _____    ______ ____
ROOT
ATOM      1  C   UNL     1       3.186   5.051  19.036  0.00  0.00    +0.000 A 
ATOM      2  C   UNL     1       2.710   6.347  18.804  0.00  0.00    +0.000 A 
ATOM      3  C   UNL     1       3.307   7.178  17.857  0.00  0.00    +0.000 A 
ATOM      4  C   UNL     1       4.382   6.725  17.104  0.00  0.00    +0.000 A 
ATOM      5  C   UNL     1       4.886   5.440  17.319  0.00  0.00    +0.000 A 
ATOM      6  C   UNL     1       4.272   4.605  18.261  0.00  0.00    +0.000 A 
ENDROOT
BRANCH   1  12
ATOM      7  C   UNL     1       1.382   2.470  18.525  0.00  0.00    +0.000 C 
ATOM      8  N   UNL     1       1.794   3.031  19.788  0.00  0.00    +0.000 N 
ATOM      9  C   UNL     1       1.405   2.516  20.996  0.00  0.00    +0.000 A 
ATOM     10  N   UNL     1       1.863   3.224  21.997  0.00  0.00    +0.000 NA
ATOM     11  C   UNL     1       2.571   4.240  21.413  0.00  0.00    +0.000 A 
ATOM     12  C   UNL     1       2.563   4.158  20.026  0.00  0.00    +0.000 A 
ENDBRANCH   1  12
BRANCH   5  13
ATOM     13  O   UNL     1       5.965   4.910  16.660  0.00  0.00    +0.000 OA
BRANCH  13  14
ATOM     14  C   UNL     1       5.666   3.816  15.792  0.00  0.00    +0.000 C 
BRANCH  14  15
ATOM     15  C   UNL     1       6.252   4.084  14.431  0.00  0.00    +0.000 A 
ATOM     16  C   UNL     1       7.240   5.060  14.248  0.00  0.00    +0.000 A 
ATOM     17  C   UNL     1       7.784   5.280  12.982  0.00  0.00    +0.000 A 
ATOM     18  C   UNL     1       7.343   4.529  11.891  0.00  0.00    +0.000 A 
ATOM     19  C   UNL     1       6.355   3.564  12.062  0.00  0.00    +0.000 A 
ATOM     20  C   UNL     1       5.807   3.342  13.325  0.00  0.00    +0.000 A 
ENDBRANCH  14  15
ENDBRANCH  13  14
ENDBRANCH   5  13
TORSDOF 4
ENDMDL
MODEL 2
REMARK VINA RESULT:      -7.3      0.580      1.239
REMARK  Name = 
REMARK  5 active torsions:
REMARK  status: ('A' for Active; 'I' for Inactive)
REMARK    1  A    between atoms: C_1  and  N_2
REMARK    2  A    between atoms: C_6  and  C_7
REMARK    3  A    between atoms: C_11  and  O_12
REMARK    4  A    between atoms: O_12  and  C_13
REMARK    5  A    between atoms: C_13  and  C_14
REMARK                            x       y       z     vdW  Elec       q    Type
REMARK                         _______ _______ _______ _____ _____    ______ ____
ROOT
ATOM      1  C   UNL     1       2.835   5.419  19.172  0.00  0.00    +0.000 A 
ATOM      2  C   UNL     1       2.283   6.705  19.207  0.00  0.00    +0.000 A 
ATOM      3  C   UNL     1       2.705   7.698  18.325  0.00  0.00    +0.000 A 
ATOM      4  C   UNL     1       3.676   7.423  17.371  0.00  0.00    +0.000 A 
ATOM      5  C   UNL     1       4.253   6.152  17.317  0.00  0.00    +0.000 A 
ATOM      6  C   UNL     1       3.813   5.154  18.196  0.00  0.00    +0.000 A 
ENDROOT
BRANCH   1  12
ATOM      7  C   UNL     1       1.195   2.766  18.500  0.00  0.00    +0.000 C 
ATOM      8  N   UNL     1       1.696   3.202  19.781  0.00  0.00    +0.000 N 
ATOM      9  C   UNL     1       1.482   2.507  20.942  0.00  0.00    +0.000 A 
ATOM     10  N   UNL     1       1.989   3.125  21.979  0.00  0.00    +0.000 NA
ATOM     11  C   UNL     1       2.547   4.266  21.469  0.00  0.00    +0.000 A 
ATOM     12  C   UNL     1       2.396   4.356  20.090  0.00  0.00    +0.000 A 
ENDBRANCH   1  12
BRANCH   5  13
ATOM     13  O   UNL     1       5.245   5.788  16.444  0.00  0.00    +0.000 OA
BRANCH  13  14
ATOM     14  C   UNL     1       5.179   4.437  15.984  0.00  0.00    +0.000 C 
BRANCH  14  15
ATOM     15  C   UNL     1       5.846   4.334  14.637  0.00  0.00    +0.000 A 
ATOM     16  C   UNL     1       5.267   3.596  13.598  0.00  0.00    +0.000 A 
ATOM     17  C   UNL     1       5.891   3.528  12.352  0.00  0.00    +0.000 A 
ATOM     18  C   UNL     1       7.099   4.195  12.137  0.00  0.00    +0.000 A 
ATOM     19  C   UNL     1       7.687   4.923  13.168  0.00  0.00    +0.000 A 
ATOM     20  C   UNL     1       7.067   4.992  14.415  0.00  0.00    +0.000 A 
ENDBRANCH  14  15
ENDBRANCH  13  14
ENDBRANCH   5  13
TORSDOF 4
ENDMDL
MODEL 3
REMARK VINA RESULT:      -7.2      0.784      1.858
REMARK  Name = 
REMARK  5 active torsions:
REMARK  status: ('A' for Active; 'I' for Inactive)
REMARK    1  A    between atoms: C_1  and  N_2
REMARK    2  A    between atoms: C_6  and  C_7
REMARK    3  A    between atoms: C_11  and  O_12
REMARK    4  A    between atoms: O_12  and  C_13
REMARK    5  A    between atoms: C_13  and  C_14
REMARK                            x       y       z     vdW  Elec       q    Type
REMARK                         _______ _______ _______ _____ _____    ______ ____
ROOT
ATOM      1  C   UNL     1       2.887   5.185  18.171  0.00  0.00    +0.000 A 
ATOM      2  C   UNL     1       2.486   6.526  18.226  0.00  0.00    +0.000 A 
ATOM      3  C   UNL     1       3.287   7.542  17.707  0.00  0.00    +0.000 A 
ATOM      4  C   UNL     1       4.500   7.239  17.102  0.00  0.00    +0.000 A 
ATOM      5  C   UNL     1       4.932   5.912  17.040  0.00  0.00    +0.000 A 
ATOM      6  C   UNL     1       4.114   4.895  17.549  0.00  0.00    +0.000 A 
ENDROOT
BRANCH   1  12
ATOM      7  C   UNL     1       2.244   4.488  21.218  0.00  0.00    +0.000 C 
ATOM      8  N   UNL     1       1.768   3.817  20.032  0.00  0.00    +0.000 N 
ATOM      9  C   UNL     1       0.965   2.709  20.074  0.00  0.00    +0.000 A 
ATOM     10  N   UNL     1       0.707   2.250  18.874  0.00  0.00    +0.000 NA
ATOM     11  C   UNL     1       1.374   3.093  18.026  0.00  0.00    +0.000 A 
ATOM     12  C   UNL     1       2.050   4.099  18.706  0.00  0.00    +0.000 A 
ENDBRANCH   1  12
BRANCH   5  13
ATOM     13  O   UNL     1       6.126   5.510  16.502  0.00  0.00    +0.000 OA
BRANCH  13  14
ATOM     14  C   UNL     1       6.121   4.202  15.929  0.00  0.00    +0.000 C 
BRANCH  14  15
ATOM     15  C   UNL     1       6.534   4.289  14.482  0.00  0.00    +0.000 A 
ATOM     16  C   UNL     1       5.938   3.475  13.510  0.00  0.00    +0.000 A 
ATOM     17  C   UNL     1       6.321   3.584  12.173  0.00  0.00    +0.000 A 
ATOM     18  C   UNL     1       7.303   4.503  11.799  0.00  0.00    +0.000 A 
ATOM     19  C   UNL     1       7.908   5.308  12.760  0.00  0.00    +0.000 A 
ATOM     20  C   UNL     1       7.529   5.202  14.098  0.00  0.00    +0.000 A 
ENDBRANCH  14  15
ENDBRANCH  13  14
ENDBRANCH   5  13
TORSDOF 4
ENDMDL
MODEL 4
REMARK VINA RESULT:      -7.1      0.910      1.574
REMARK  Name = 
REMARK  5 active torsions:
REMARK  status: ('A' for Active; 'I' for Inactive)
REMARK    1  A    between atoms: C_1  and  N_2
REMARK    2  A    between atoms: C_6  and  C_7
REMARK    3  A    between atoms: C_11  and  O_12
REMARK    4  A    between atoms: O_12  and  C_13
REMARK    5  A    between atoms: C_13  and  C_14
REMARK                            x       y       z     vdW  Elec       q    Type
REMARK                         _______ _______ _______ _____ _____    ______ ____
ROOT
ATOM      1  C   UNL     1       3.137   5.104  18.152  0.00  0.00    +0.000 A 
ATOM      2  C   UNL     1       2.518   6.357  18.244  0.00  0.00    +0.000 A 
ATOM      3  C   UNL     1       3.131   7.504  17.743  0.00  0.00    +0.000 A 
ATOM      4  C   UNL     1       4.368   7.424  17.119  0.00  0.00    +0.000 A 
ATOM      5  C   UNL     1       5.015   6.190  17.020  0.00  0.00    +0.000 A 
ATOM      6  C   UNL     1       4.387   5.038  17.511  0.00  0.00    +0.000 A 
ENDROOT
BRANCH   1  12
ATOM      7  C   UNL     1       2.215   4.450  21.136  0.00  0.00    +0.000 C 
ATOM      8  N   UNL     1       2.093   3.617  19.964  0.00  0.00    +0.000 N 
ATOM      9  C   UNL     1       1.571   2.352  20.000  0.00  0.00    +0.000 A 
ATOM     10  N   UNL     1       1.612   1.776  18.824  0.00  0.00    +0.000 NA
ATOM     11  C   UNL     1       2.187   2.703  17.999  0.00  0.00    +0.000 A 
ATOM     12  C   UNL     1       2.501   3.881  18.668  0.00  0.00    +0.000 A 
ENDBRANCH   1  12
BRANCH   5  13
ATOM     13  O   UNL     1       6.253   6.006  16.460  0.00  0.00    +0.000 OA
BRANCH  13  14
ATOM     14  C   UNL     1       6.575   4.653  16.136  0.00  0.00    +0.000 C 
BRANCH  14  15
ATOM     15  C   UNL     1       6.707   4.515  14.641  0.00  0.00    +0.000 A 
ATOM     16  C   UNL     1       7.638   5.278  13.924  0.00  0.00    +0.000 A 
ATOM     17  C   UNL     1       7.758   5.122  12.543  0.00  0.00    +0.000 A 
ATOM     18  C   UNL     1       6.947   4.206  11.869  0.00  0.00    +0.000 A 
ATOM     19  C   UNL     1       6.013   3.452  12.572  0.00  0.00    +0.000 A 
ATOM     20  C   UNL     1       5.888   3.606  13.953  0.00  0.00    +0.000 A 
ENDBRANCH  14  15
ENDBRANCH  13  14
ENDBRANCH   5  13
TORSDOF 4
ENDMDL
MODEL 5
REMARK VINA RESULT:      -7.0      3.262      7.300
REMARK  Name = 
REMARK  5 active torsions:
REMARK  status: ('A' for Active; 'I' for Inactive)
REMARK    1  A    between atoms: C_1  and  N_2
REMARK    2  A    between atoms: C_6  and  C_7
REMARK    3  A    between atoms: C_11  and  O_12
REMARK    4  A    between atoms: O_12  and  C_13
REMARK    5  A    between atoms: C_13  and  C_14
REMARK                            x       y       z     vdW  Elec       q    Type
REMARK                         _______ _______ _______ _____ _____    ______ ____
ROOT
ATOM      1  C   UNL     1       6.297   4.723  15.444  0.00  0.00    +0.000 A 
ATOM      2  C   UNL     1       7.344   4.548  16.357  0.00  0.00    +0.000 A 
ATOM      3  C   UNL     1       7.231   4.978  17.678  0.00  0.00    +0.000 A 
ATOM      4  C   UNL     1       6.059   5.577  18.123  0.00  0.00    +0.000 A 
ATOM      5  C   UNL     1       5.001   5.775  17.234  0.00  0.00    +0.000 A 
ATOM      6  C   UNL     1       5.115   5.325  15.912  0.00  0.00    +0.000 A 
ENDROOT
BRANCH   1  12
ATOM      7  C   UNL     1       8.313   5.700  13.172  0.00  0.00    +0.000 C 
ATOM      8  N   UNL     1       7.286   4.690  13.076  0.00  0.00    +0.000 N 
ATOM      9  C   UNL     1       7.010   4.015  11.918  0.00  0.00    +0.000 A 
ATOM     10  N   UNL     1       6.006   3.187  12.066  0.00  0.00    +0.000 NA
ATOM     11  C   UNL     1       5.616   3.338  13.369  0.00  0.00    +0.000 A 
ATOM     12  C   UNL     1       6.396   4.267  14.049  0.00  0.00    +0.000 A 
ENDBRANCH   1  12
BRANCH   5  13
ATOM     13  O   UNL     1       3.820   6.389  17.559  0.00  0.00    +0.000 OA
BRANCH  13  14
ATOM     14  C   UNL     1       3.473   6.337  18.944  0.00  0.00    +0.000 C 
BRANCH  14  15
ATOM     15  C   UNL     1       2.531   5.184  19.179  0.00  0.00    +0.000 A 
ATOM     16  C   UNL     1       2.011   4.445  18.109  0.00  0.00    +0.000 A 
ATOM     17  C   UNL     1       1.156   3.369  18.350  0.00  0.00    +0.000 A 
ATOM     18  C   UNL     1       0.811   3.028  19.659  0.00  0.00    +0.000 A 
ATOM     19  C   UNL     1       1.316   3.764  20.728  0.00  0.00    +0.000 A 
ATOM     20  C   UNL     1       2.170   4.841  20.492  0.00  0.00    +0.000 A 
ENDBRANCH  14  15
ENDBRANCH  13  14
ENDBRANCH   5  13
TORSDOF 4
ENDMDL
MODEL 6
REMARK VINA RESULT:      -7.0      3.264      7.253
REMARK  Name = 
REMARK  5 active torsions:
REMARK  status: ('A' for Active; 'I' for Inactive)
REMARK    1  A    between atoms: C_1  and  N_2
REMARK    2  A    between atoms: C_6  and  C_7
REMARK    3  A    between atoms: C_11  and  O_12
REMARK    4  A    between atoms: O_12  and  C_13
REMARK    5  A    between atoms: C_13  and  C_14
REMARK                            x       y       z     vdW  Elec       q    Type
REMARK                         _______ _______ _______ _____ _____    ______ ____
ROOT
ATOM      1  C   UNL     1       6.269   4.826  15.431  0.00  0.00    +0.000 A 
ATOM      2  C   UNL     1       7.338   4.743  16.332  0.00  0.00    +0.000 A 
ATOM      3  C   UNL     1       7.217   5.203  17.643  0.00  0.00    +0.000 A 
ATOM      4  C   UNL     1       6.017   5.737  18.090  0.00  0.00    +0.000 A 
ATOM      5  C   UNL     1       4.934   5.842  17.213  0.00  0.00    +0.000 A 
ATOM      6  C   UNL     1       5.058   5.364  15.903  0.00  0.00    +0.000 A 
ENDROOT
BRANCH   1  12
ATOM      7  C   UNL     1       8.335   5.712  13.167  0.00  0.00    +0.000 C 
ATOM      8  N   UNL     1       7.289   4.723  13.078  0.00  0.00    +0.000 N 
ATOM      9  C   UNL     1       7.013   4.028  11.931  0.00  0.00    +0.000 A 
ATOM     10  N   UNL     1       5.990   3.225  12.082  0.00  0.00    +0.000 NA
ATOM     11  C   UNL     1       5.587   3.412  13.377  0.00  0.00    +0.000 A 
ATOM     12  C   UNL     1       6.376   4.338  14.047  0.00  0.00    +0.000 A 
ENDBRANCH   1  12
BRANCH   5  13
ATOM     13  O   UNL     1       3.721   6.389  17.541  0.00  0.00    +0.000 OA
BRANCH  13  14
ATOM     14  C   UNL     1       3.392   6.340  18.930  0.00  0.00    +0.000 C 
BRANCH  14  15
ATOM     15  C   UNL     1       2.492   5.161  19.190  0.00  0.00    +0.000 A 
ATOM     16  C   UNL     1       2.041   4.866  20.483  0.00  0.00    +0.000 A 
ATOM     17  C   UNL     1       1.193   3.780  20.699  0.00  0.00    +0.000 A 
ATOM     18  C   UNL     1       0.792   2.980  19.627  0.00  0.00    +0.000 A 
ATOM     19  C   UNL     1       1.244   3.260  18.341  0.00  0.00    +0.000 A 
ATOM     20  C   UNL     1       2.094   4.343  18.120  0.00  0.00    +0.000 A 
ENDBRANCH  14  15
ENDBRANCH  13  14
ENDBRANCH   5  13
TORSDOF 4
ENDMDL
MODEL 7
REMARK VINA RESULT:      -7.0      3.056      6.148
REMARK  Name = 
REMARK  5 active torsions:
REMARK  status: ('A' for Active; 'I' for Inactive)
REMARK    1  A    between atoms: C_1  and  N_2
REMARK    2  A    between atoms: C_6  and  C_7
REMARK    3  A    between atoms: C_11  and  O_12
REMARK    4  A    between atoms: O_12  and  C_13
REMARK    5  A    between atoms: C_13  and  C_14
REMARK                            x       y       z     vdW  Elec       q    Type
REMARK                         _______ _______ _______ _____ _____    ______ ____
ROOT
ATOM      1  C   UNL     1       3.418   6.541  17.879  0.00  0.00    +0.000 A 
ATOM      2  C   UNL     1       4.783   6.696  17.610  0.00  0.00    +0.000 A 
ATOM      3  C   UNL     1       5.543   5.646  17.097  0.00  0.00    +0.000 A 
ATOM      4  C   UNL     1       4.951   4.421  16.822  0.00  0.00    +0.000 A 
ATOM      5  C   UNL     1       3.593   4.232  17.088  0.00  0.00    +0.000 A 
ATOM      6  C   UNL     1       2.832   5.296  17.588  0.00  0.00    +0.000 A 
ENDROOT
BRANCH   1  12
ATOM      7  C   UNL     1       1.902   6.712  20.682  0.00  0.00    +0.000 C 
ATOM      8  N   UNL     1       1.958   7.707  19.638  0.00  0.00    +0.000 N 
ATOM      9  C   UNL     1       1.295   8.903  19.712  0.00  0.00    +0.000 A 
ATOM     10  N   UNL     1       1.457   9.616  18.625  0.00  0.00    +0.000 NA
ATOM     11  C   UNL     1       2.251   8.848  17.817  0.00  0.00    +0.000 A 
ATOM     12  C   UNL     1       2.599   7.641  18.412  0.00  0.00    +0.000 A 
ENDBRANCH   1  12
BRANCH   5  13
ATOM     13  O   UNL     1       2.921   3.054  16.891  0.00  0.00    +0.000 OA
BRANCH  13  14
ATOM     14  C   UNL     1       3.207   2.028  17.844  0.00  0.00    +0.000 C 
BRANCH  14  15
ATOM     15  C   UNL     1       2.565   2.377  19.161  0.00  0.00    +0.000 A 
ATOM     16  C   UNL     1       1.186   2.603  19.256  0.00  0.00    +0.000 A 
ATOM     17  C   UNL     1       0.607   2.906  20.489  0.00  0.00    +0.000 A 
ATOM     18  C   UNL     1       1.402   2.990  21.633  0.00  0.00    +0.000 A 
ATOM     19  C   UNL     1       2.775   2.778  21.546  0.00  0.00    +0.000 A 
ATOM     20  C   UNL     1       3.358   2.476  20.315  0.00  0.00    +0.000 A 
ENDBRANCH  14  15
ENDBRANCH  13  14
ENDBRANCH   5  13
TORSDOF 4
ENDMDL
MODEL 8
REMARK VINA RESULT:      -7.0      3.041      6.069
REMARK  Name = 
REMARK  5 active torsions:
REMARK  status: ('A' for Active; 'I' for Inactive)
REMARK    1  A    between atoms: C_1  and  N_2
REMARK    2  A    between atoms: C_6  and  C_7
REMARK    3  A    between atoms: C_11  and  O_12
REMARK    4  A    between atoms: O_12  and  C_13
REMARK    5  A    between atoms: C_13  and  C_14
REMARK                            x       y       z     vdW  Elec       q    Type
REMARK                         _______ _______ _______ _____ _____    ______ ____
ROOT
ATOM      1  C   UNL     1       3.408   6.815  17.843  0.00  0.00    +0.000 A 
ATOM      2  C   UNL     1       4.741   7.061  17.496  0.00  0.00    +0.000 A 
ATOM      3  C   UNL     1       5.545   6.059  16.954  0.00  0.00    +0.000 A 
ATOM      4  C   UNL     1       5.026   4.792  16.726  0.00  0.00    +0.000 A 
ATOM      5  C   UNL     1       3.702   4.512  17.070  0.00  0.00    +0.000 A 
ATOM      6  C   UNL     1       2.896   5.528  17.599  0.00  0.00    +0.000 A 
ENDROOT
BRANCH   1  12
ATOM      7  C   UNL     1       1.871   6.829  20.639  0.00  0.00    +0.000 C 
ATOM      8  N   UNL     1       1.893   7.861  19.632  0.00  0.00    +0.000 N 
ATOM      9  C   UNL     1       1.184   9.027  19.742  0.00  0.00    +0.000 A 
ATOM     10  N   UNL     1       1.323   9.783  18.682  0.00  0.00    +0.000 NA
ATOM     11  C   UNL     1       2.151   9.075  17.853  0.00  0.00    +0.000 A 
ATOM     12  C   UNL     1       2.543   7.863  18.408  0.00  0.00    +0.000 A 
ENDBRANCH   1  12
BRANCH   5  13
ATOM     13  O   UNL     1       3.105   3.287  16.924  0.00  0.00    +0.000 OA
BRANCH  13  14
ATOM     14  C   UNL     1       3.502   2.303  17.881  0.00  0.00    +0.000 C 
BRANCH  14  15
ATOM     15  C   UNL     1       2.743   2.519  19.164  0.00  0.00    +0.000 A 
ATOM     16  C   UNL     1       3.405   2.567  20.397  0.00  0.00    +0.000 A 
ATOM     17  C   UNL     1       2.686   2.787  21.572  0.00  0.00    +0.000 A 
ATOM     18  C   UNL     1       1.301   2.957  21.523  0.00  0.00    +0.000 A 
ATOM     19  C   UNL     1       0.634   2.901  20.303  0.00  0.00    +0.000 A 
ATOM     20  C   UNL     1       1.348   2.680  19.126  0.00  0.00    +0.000 A 
ENDBRANCH  14  15
ENDBRANCH  13  14
ENDBRANCH   5  13
TORSDOF 4
ENDMDL
MODEL 9
REMARK VINA RESULT:      -7.0      1.921      2.649
REMARK  Name = 
REMARK  5 active torsions:
REMARK  status: ('A' for Active; 'I' for Inactive)
REMARK    1  A    between atoms: C_1  and  N_2
REMARK    2  A    between atoms: C_6  and  C_7
REMARK    3  A    between atoms: C_11  and  O_12
REMARK    4  A    between atoms: O_12  and  C_13
REMARK    5  A    between atoms: C_13  and  C_14
REMARK                            x       y       z     vdW  Elec       q    Type
REMARK                         _______ _______ _______ _____ _____    ______ ____
ROOT
ATOM      1  C   UNL     1       4.821   4.407  18.122  0.00  0.00    +0.000 A 
ATOM      2  C   UNL     1       5.456   5.055  19.188  0.00  0.00    +0.000 A 
ATOM      3  C   UNL     1       6.775   5.493  19.087  0.00  0.00    +0.000 A 
ATOM      4  C   UNL     1       7.485   5.312  17.908  0.00  0.00    +0.000 A 
ATOM      5  C   UNL     1       6.883   4.660  16.829  0.00  0.00    +0.000 A 
ATOM      6  C   UNL     1       5.552   4.237  16.932  0.00  0.00    +0.000 A 
ENDROOT
BRANCH   1  12
ATOM      7  C   UNL     1       3.732   1.430  18.485  0.00  0.00    +0.000 C 
ATOM      8  N   UNL     1       2.968   2.650  18.381  0.00  0.00    +0.000 N 
ATOM      9  C   UNL     1       1.600   2.677  18.387  0.00  0.00    +0.000 A 
ATOM     10  N   UNL     1       1.136   3.891  18.229  0.00  0.00    +0.000 NA
ATOM     11  C   UNL     1       2.249   4.679  18.112  0.00  0.00    +0.000 A 
ATOM     12  C   UNL     1       3.426   3.946  18.208  0.00  0.00    +0.000 A 
ENDBRANCH   1  12
BRANCH   5  13
ATOM     13  O   UNL     1       7.507   4.396  15.637  0.00  0.00    +0.000 OA
BRANCH  13  14
ATOM     14  C   UNL     1       7.065   5.189  14.535  0.00  0.00    +0.000 C 
BRANCH  14  15
ATOM     15  C   UNL     1       6.494   4.290  13.469  0.00  0.00    +0.000 A 
ATOM     16  C   UNL     1       5.121   4.016  13.414  0.00  0.00    +0.000 A 
ATOM     17  C   UNL     1       4.609   3.196  12.408  0.00  0.00    +0.000 A 
ATOM     18  C   UNL     1       5.465   2.642  11.453  0.00  0.00    +0.000 A 
ATOM     19  C   UNL     1       6.831   2.901  11.507  0.00  0.00    +0.000 A 
ATOM     20  C   UNL     1       7.347   3.719  12.512  0.00  0.00    +0.000 A 
ENDBRANCH  14  15
ENDBRANCH  13  14
ENDBRANCH   5  13
TORSDOF 4
ENDMDL
