MODEL 1
REMARK VINA RESULT:      -8.1      0.000      0.000
REMARK  Name = 
REMARK  3 active torsions:
REMARK  status: ('A' for Active; 'I' for Inactive)
REMARK    1  A    between atoms: O_1  and  C_2
REMARK    2  A    between atoms: C_10  and  N_11
REMARK    3  A    between atoms: N_12  and  C_13
REMARK                            x       y       z     vdW  Elec       q    Type
REMARK                         _______ _______ _______ _____ _____    ______ ____
ROOT
ATOM      1  C   UNL     1       6.495   5.333  16.470  0.00  0.00    +0.000 A 
ATOM      2  N   UNL     1       7.434   5.545  15.492  0.00  0.00    +0.000 N 
ATOM      3  C   UNL     1       7.068   4.922  14.318  0.00  0.00    +0.000 A 
ATOM      4  C   UNL     1       7.719   4.886  13.079  0.00  0.00    +0.000 A 
ATOM      5  C   UNL     1       7.106   4.172  12.045  0.00  0.00    +0.000 A 
ATOM      6  C   UNL     1       5.889   3.525  12.243  0.00  0.00    +0.000 A 
ATOM      7  C   UNL     1       5.248   3.576  13.486  0.00  0.00    +0.000 A 
ATOM      8  C   UNL     1       5.847   4.282  14.551  0.00  0.00    +0.000 A 
ATOM      9  C   UNL     1       5.509   4.547  15.909  0.00  0.00    +0.000 A 
ATOM     10  H   UNL     1       8.276   6.090  15.596  0.00  0.00    +0.000 HD
ENDROOT
BRANCH   1  11
ATOM     11  O   UNL     1       6.613   5.839  17.694  0.00  0.00    +0.000 OA
ATOM     12  H   UNL     1       6.379   5.169  18.357  0.00  0.00    +0.000 HD
ENDBRANCH   1  11
BRANCH   9  13
ATOM     13  N   UNL     1       4.357   4.158  16.607  0.00  0.00    +0.000 NA
ATOM     14  N   UNL     1       4.546   3.927  17.819  0.00  0.00    +0.000 NA
BRANCH  14  15
ATOM     15  C   UNL     1       3.338   3.607  18.479  0.00  0.00    +0.000 A 
ATOM     16  C   UNL     1       2.472   2.599  18.024  0.00  0.00    +0.000 A 
ATOM     17  C   UNL     1       1.266   2.332  18.681  0.00  0.00    +0.000 A 
ATOM     18  C   UNL     1       0.902   3.079  19.800  0.00  0.00    +0.000 A 
ATOM     19  C   UNL     1       1.742   4.092  20.259  0.00  0.00    +0.000 A 
ATOM     20  C   UNL     1       2.945   4.349  19.599  0.00  0.00    +0.000 A 
ATOM     21  F   UNL     1       3.728   5.335  20.063  0.00  0.00    +0.000 F 
ENDBRANCH  14  15
ENDBRANCH   9  13
TORSDOF 3
ENDMDL
MODEL 2
REMARK VINA RESULT:      -8.1      1.090      1.502
REMARK  Name = 
REMARK  3 active torsions:
REMARK  status: ('A' for Active; 'I' for Inactive)
REMARK    1  A    between atoms: O_1  and  C_2
REMARK    2  A    between atoms: C_10  and  N_11
REMARK    3  A    between atoms: N_12  and  C_13
REMARK                            x       y       z     vdW  Elec       q    Type
REMARK                         _______ _______ _______ _____ _____    ______ ____
ROOT
ATOM      1  C   UNL     1       6.443   5.529  16.434  0.00  0.00    +0.000 A 
ATOM      2  N   UNL     1       7.394   5.700  15.460  0.00  0.00    +0.000 N 
ATOM      3  C   UNL     1       7.051   5.011  14.316  0.00  0.00    +0.000 A 
ATOM      4  C   UNL     1       7.720   4.917  13.089  0.00  0.00    +0.000 A 
ATOM      5  C   UNL     1       7.130   4.142  12.087  0.00  0.00    +0.000 A 
ATOM      6  C   UNL     1       5.917   3.493  12.302  0.00  0.00    +0.000 A 
ATOM      7  C   UNL     1       5.258   3.602  13.532  0.00  0.00    +0.000 A 
ATOM      8  C   UNL     1       5.834   4.370  14.566  0.00  0.00    +0.000 A 
ATOM      9  C   UNL     1       5.474   4.703  15.903  0.00  0.00    +0.000 A 
ATOM     10  H   UNL     1       8.228   6.259  15.546  0.00  0.00    +0.000 HD
ENDROOT
BRANCH   1  11
ATOM     11  O   UNL     1       6.538   6.100  17.631  0.00  0.00    +0.000 OA
ATOM     12  H   UNL     1       7.390   6.557  17.717  0.00  0.00    +0.000 HD
ENDBRANCH   1  11
BRANCH   9  13
ATOM     13  N   UNL     1       4.316   4.338  16.604  0.00  0.00    +0.000 NA
ATOM     14  N   UNL     1       4.525   3.952  17.773  0.00  0.00    +0.000 NA
BRANCH  14  15
ATOM     15  C   UNL     1       3.317   3.665  18.447  0.00  0.00    +0.000 A 
ATOM     16  C   UNL     1       2.611   4.633  19.181  0.00  0.00    +0.000 A 
ATOM     17  C   UNL     1       1.436   4.306  19.865  0.00  0.00    +0.000 A 
ATOM     18  C   UNL     1       0.954   2.998  19.836  0.00  0.00    +0.000 A 
ATOM     19  C   UNL     1       1.647   2.021  19.125  0.00  0.00    +0.000 A 
ATOM     20  C   UNL     1       2.817   2.357  18.441  0.00  0.00    +0.000 A 
ATOM     21  F   UNL     1       3.463   1.391  17.771  0.00  0.00    +0.000 F 
ENDBRANCH  14  15
ENDBRANCH   9  13
TORSDOF 3
ENDMDL
MODEL 3
REMARK VINA RESULT:      -8.0      1.035      1.077
REMARK  Name = 
REMARK  3 active torsions:
REMARK  status: ('A' for Active; 'I' for Inactive)
REMARK    1  A    between atoms: O_1  and  C_2
REMARK    2  A    between atoms: C_10  and  N_11
REMARK    3  A    between atoms: N_12  and  C_13
REMARK                            x       y       z     vdW  Elec       q    Type
REMARK                         _______ _______ _______ _____ _____    ______ ____
ROOT
ATOM      1  C   UNL     1       6.873   5.272  16.235  0.00  0.00    +0.000 A 
ATOM      2  N   UNL     1       7.641   5.691  15.178  0.00  0.00    +0.000 N 
ATOM      3  C   UNL     1       7.285   5.029  14.022  0.00  0.00    +0.000 A 
ATOM      4  C   UNL     1       7.795   5.151  12.723  0.00  0.00    +0.000 A 
ATOM      5  C   UNL     1       7.232   4.346  11.728  0.00  0.00    +0.000 A 
ATOM      6  C   UNL     1       6.198   3.460  12.020  0.00  0.00    +0.000 A 
ATOM      7  C   UNL     1       5.696   3.354  13.322  0.00  0.00    +0.000 A 
ATOM      8  C   UNL     1       6.250   4.148  14.350  0.00  0.00    +0.000 A 
ATOM      9  C   UNL     1       6.012   4.311  15.744  0.00  0.00    +0.000 A 
ATOM     10  H   UNL     1       8.362   6.394  15.219  0.00  0.00    +0.000 HD
ENDROOT
BRANCH   1  11
ATOM     11  O   UNL     1       7.016   5.767  17.461  0.00  0.00    +0.000 OA
ATOM     12  H   UNL     1       6.317   6.415  17.644  0.00  0.00    +0.000 HD
ENDBRANCH   1  11
BRANCH   9  13
ATOM     13  N   UNL     1       5.043   3.681  16.537  0.00  0.00    +0.000 NA
ATOM     14  N   UNL     1       4.171   4.452  16.990  0.00  0.00    +0.000 NA
BRANCH  14  15
ATOM     15  C   UNL     1       3.189   3.748  17.722  0.00  0.00    +0.000 A 
ATOM     16  C   UNL     1       3.304   2.381  18.024  0.00  0.00    +0.000 A 
ATOM     17  C   UNL     1       2.296   1.707  18.721  0.00  0.00    +0.000 A 
ATOM     18  C   UNL     1       1.147   2.390  19.117  0.00  0.00    +0.000 A 
ATOM     19  C   UNL     1       1.008   3.743  18.816  0.00  0.00    +0.000 A 
ATOM     20  C   UNL     1       2.021   4.408  18.123  0.00  0.00    +0.000 A 
ATOM     21  F   UNL     1       1.853   5.710  17.843  0.00  0.00    +0.000 F 
ENDBRANCH  14  15
ENDBRANCH   9  13
TORSDOF 3
ENDMDL
MODEL 4
REMARK VINA RESULT:      -7.5      1.533      1.847
REMARK  Name = 
REMARK  3 active torsions:
REMARK  status: ('A' for Active; 'I' for Inactive)
REMARK    1  A    between atoms: O_1  and  C_2
REMARK    2  A    between atoms: C_10  and  N_11
REMARK    3  A    between atoms: N_12  and  C_13
REMARK                            x       y       z     vdW  Elec       q    Type
REMARK                         _______ _______ _______ _____ _____    ______ ____
ROOT
ATOM      1  C   UNL     1       7.079   4.928  18.029  0.00  0.00    +0.000 A 
ATOM      2  N   UNL     1       7.863   5.023  16.907  0.00  0.00    +0.000 N 
ATOM      3  C   UNL     1       7.131   4.741  15.773  0.00  0.00    +0.000 A 
ATOM      4  C   UNL     1       7.524   4.730  14.429  0.00  0.00    +0.000 A 
ATOM      5  C   UNL     1       6.556   4.409  13.473  0.00  0.00    +0.000 A 
ATOM      6  C   UNL     1       5.246   4.118  13.848  0.00  0.00    +0.000 A 
ATOM      7  C   UNL     1       4.868   4.139  15.195  0.00  0.00    +0.000 A 
ATOM      8  C   UNL     1       5.826   4.451  16.183  0.00  0.00    +0.000 A 
ATOM      9  C   UNL     1       5.817   4.567  17.602  0.00  0.00    +0.000 A 
ATOM     10  H   UNL     1       8.839   5.276  16.893  0.00  0.00    +0.000 HD
ENDROOT
BRANCH   1  11
ATOM     11  O   UNL     1       7.550   5.163  19.250  0.00  0.00    +0.000 OA
ATOM     12  H   UNL     1       8.493   4.933  19.294  0.00  0.00    +0.000 HD
ENDBRANCH   1  11
BRANCH   9  13
ATOM     13  N   UNL     1       4.733   4.414  18.477  0.00  0.00    +0.000 NA
ATOM     14  N   UNL     1       4.201   3.285  18.443  0.00  0.00    +0.000 NA
BRANCH  14  15
ATOM     15  C   UNL     1       3.162   3.174  19.393  0.00  0.00    +0.000 A 
ATOM     16  C   UNL     1       1.881   3.711  19.180  0.00  0.00    +0.000 A 
ATOM     17  C   UNL     1       0.885   3.613  20.157  0.00  0.00    +0.000 A 
ATOM     18  C   UNL     1       1.158   2.986  21.370  0.00  0.00    +0.000 A 
ATOM     19  C   UNL     1       2.426   2.458  21.606  0.00  0.00    +0.000 A 
ATOM     20  C   UNL     1       3.413   2.557  20.624  0.00  0.00    +0.000 A 
ATOM     21  F   UNL     1       4.626   2.044  20.885  0.00  0.00    +0.000 F 
ENDBRANCH  14  15
ENDBRANCH   9  13
TORSDOF 3
ENDMDL
MODEL 5
REMARK VINA RESULT:      -7.4      1.534      2.012
REMARK  Name = 
REMARK  3 active torsions:
REMARK  status: ('A' for Active; 'I' for Inactive)
REMARK    1  A    between atoms: O_1  and  C_2
REMARK    2  A    between atoms: C_10  and  N_11
REMARK    3  A    between atoms: N_12  and  C_13
REMARK                            x       y       z     vdW  Elec       q    Type
REMARK                         _______ _______ _______ _____ _____    ______ ____
ROOT
ATOM      1  C   UNL     1       7.132   5.021  18.236  0.00  0.00    +0.000 A 
ATOM      2  N   UNL     1       7.895   5.130  17.101  0.00  0.00    +0.000 N 
ATOM      3  C   UNL     1       7.152   4.824  15.981  0.00  0.00    +0.000 A 
ATOM      4  C   UNL     1       7.524   4.815  14.631  0.00  0.00    +0.000 A 
ATOM      5  C   UNL     1       6.549   4.465  13.692  0.00  0.00    +0.000 A 
ATOM      6  C   UNL     1       5.254   4.142  14.089  0.00  0.00    +0.000 A 
ATOM      7  C   UNL     1       4.896   4.161  15.442  0.00  0.00    +0.000 A 
ATOM      8  C   UNL     1       5.862   4.503  16.413  0.00  0.00    +0.000 A 
ATOM      9  C   UNL     1       5.873   4.626  17.832  0.00  0.00    +0.000 A 
ATOM     10  H   UNL     1       8.864   5.407  17.070  0.00  0.00    +0.000 HD
ENDROOT
BRANCH   1  11
ATOM     11  O   UNL     1       7.617   5.274  19.448  0.00  0.00    +0.000 OA
ATOM     12  H   UNL     1       7.539   4.486  20.011  0.00  0.00    +0.000 HD
ENDBRANCH   1  11
BRANCH   9  13
ATOM     13  N   UNL     1       4.807   4.451  18.725  0.00  0.00    +0.000 NA
ATOM     14  N   UNL     1       4.156   3.401  18.546  0.00  0.00    +0.000 NA
BRANCH  14  15
ATOM     15  C   UNL     1       3.141   3.250  19.518  0.00  0.00    +0.000 A 
ATOM     16  C   UNL     1       3.378   2.672  20.776  0.00  0.00    +0.000 A 
ATOM     17  C   UNL     1       2.342   2.505  21.701  0.00  0.00    +0.000 A 
ATOM     18  C   UNL     1       1.047   2.906  21.376  0.00  0.00    +0.000 A 
ATOM     19  C   UNL     1       0.789   3.470  20.129  0.00  0.00    +0.000 A 
ATOM     20  C   UNL     1       1.830   3.635  19.213  0.00  0.00    +0.000 A 
ATOM     21  F   UNL     1       1.547   4.176  18.018  0.00  0.00    +0.000 F 
ENDBRANCH  14  15
ENDBRANCH   9  13
TORSDOF 3
ENDMDL
MODEL 6
REMARK VINA RESULT:      -7.3      1.772      6.380
REMARK  Name = 
REMARK  3 active torsions:
REMARK  status: ('A' for Active; 'I' for Inactive)
REMARK    1  A    between atoms: O_1  and  C_2
REMARK    2  A    between atoms: C_10  and  N_11
REMARK    3  A    between atoms: N_12  and  C_13
REMARK                            x       y       z     vdW  Elec       q    Type
REMARK                         _______ _______ _______ _____ _____    ______ ____
ROOT
ATOM      1  C   UNL     1       5.112   4.845  18.602  0.00  0.00    +0.000 A 
ATOM      2  N   UNL     1       4.309   4.852  19.714  0.00  0.00    +0.000 N 
ATOM      3  C   UNL     1       3.184   4.082  19.509  0.00  0.00    +0.000 A 
ATOM      4  C   UNL     1       2.115   3.805  20.371  0.00  0.00    +0.000 A 
ATOM      5  C   UNL     1       1.097   2.974  19.894  0.00  0.00    +0.000 A 
ATOM      6  C   UNL     1       1.150   2.438  18.610  0.00  0.00    +0.000 A 
ATOM      7  C   UNL     1       2.228   2.720  17.763  0.00  0.00    +0.000 A 
ATOM      8  C   UNL     1       3.266   3.563  18.214  0.00  0.00    +0.000 A 
ATOM      9  C   UNL     1       4.480   4.060  17.660  0.00  0.00    +0.000 A 
ATOM     10  H   UNL     1       4.504   5.337  20.576  0.00  0.00    +0.000 HD
ENDROOT
BRANCH   1  11
ATOM     11  O   UNL     1       6.264   5.508  18.551  0.00  0.00    +0.000 OA
ATOM     12  H   UNL     1       7.009   4.892  18.645  0.00  0.00    +0.000 HD
ENDBRANCH   1  11
BRANCH   9  13
ATOM     13  N   UNL     1       5.033   3.789  16.400  0.00  0.00    +0.000 NA
ATOM     14  N   UNL     1       5.011   4.757  15.612  0.00  0.00    +0.000 NA
BRANCH  14  15
ATOM     15  C   UNL     1       5.642   4.442  14.388  0.00  0.00    +0.000 A 
ATOM     16  C   UNL     1       5.022   3.663  13.396  0.00  0.00    +0.000 A 
ATOM     17  C   UNL     1       5.689   3.340  12.210  0.00  0.00    +0.000 A 
ATOM     18  C   UNL     1       6.994   3.782  12.002  0.00  0.00    +0.000 A 
ATOM     19  C   UNL     1       7.631   4.544  12.979  0.00  0.00    +0.000 A 
ATOM     20  C   UNL     1       6.956   4.865  14.158  0.00  0.00    +0.000 A 
ATOM     21  F   UNL     1       7.600   5.596  15.082  0.00  0.00    +0.000 F 
ENDBRANCH  14  15
ENDBRANCH   9  13
TORSDOF 3
ENDMDL
MODEL 7
REMARK VINA RESULT:      -7.2      1.211      1.294
REMARK  Name = 
REMARK  3 active torsions:
REMARK  status: ('A' for Active; 'I' for Inactive)
REMARK    1  A    between atoms: O_1  and  C_2
REMARK    2  A    between atoms: C_10  and  N_11
REMARK    3  A    between atoms: N_12  and  C_13
REMARK                            x       y       z     vdW  Elec       q    Type
REMARK                         _______ _______ _______ _____ _____    ______ ____
ROOT
ATOM      1  C   UNL     1       6.905   5.621  17.209  0.00  0.00    +0.000 A 
ATOM      2  N   UNL     1       7.609   5.900  16.065  0.00  0.00    +0.000 N 
ATOM      3  C   UNL     1       7.113   5.181  14.998  0.00  0.00    +0.000 A 
ATOM      4  C   UNL     1       7.520   5.166  13.658  0.00  0.00    +0.000 A 
ATOM      5  C   UNL     1       6.822   4.333  12.779  0.00  0.00    +0.000 A 
ATOM      6  C   UNL     1       5.759   3.551  13.222  0.00  0.00    +0.000 A 
ATOM      7  C   UNL     1       5.361   3.582  14.563  0.00  0.00    +0.000 A 
ATOM      8  C   UNL     1       6.052   4.408  15.476  0.00  0.00    +0.000 A 
ATOM      9  C   UNL     1       5.943   4.693  16.867  0.00  0.00    +0.000 A 
ATOM     10  H   UNL     1       8.377   6.549  15.993  0.00  0.00    +0.000 HD
ENDROOT
BRANCH   1  11
ATOM     11  O   UNL     1       7.184   6.196  18.376  0.00  0.00    +0.000 OA
ATOM     12  H   UNL     1       7.572   5.546  18.985  0.00  0.00    +0.000 HD
ENDBRANCH   1  11
BRANCH   9  13
ATOM     13  N   UNL     1       5.002   4.200  17.782  0.00  0.00    +0.000 NA
ATOM     14  N   UNL     1       4.493   5.073  18.515  0.00  0.00    +0.000 NA
BRANCH  14  15
ATOM     15  C   UNL     1       3.508   4.523  19.365  0.00  0.00    +0.000 A 
ATOM     16  C   UNL     1       3.570   3.203  19.843  0.00  0.00    +0.000 A 
ATOM     17  C   UNL     1       2.558   2.680  20.655  0.00  0.00    +0.000 A 
ATOM     18  C   UNL     1       1.460   3.468  20.993  0.00  0.00    +0.000 A 
ATOM     19  C   UNL     1       1.373   4.775  20.520  0.00  0.00    +0.000 A 
ATOM     20  C   UNL     1       2.389   5.290  19.713  0.00  0.00    +0.000 A 
ATOM     21  F   UNL     1       2.272   6.551  19.267  0.00  0.00    +0.000 F 
ENDBRANCH  14  15
ENDBRANCH   9  13
TORSDOF 3
ENDMDL
MODEL 8
REMARK VINA RESULT:      -7.1      2.181      6.630
REMARK  Name = 
REMARK  3 active torsions:
REMARK  status: ('A' for Active; 'I' for Inactive)
REMARK    1  A    between atoms: O_1  and  C_2
REMARK    2  A    between atoms: C_10  and  N_11
REMARK    3  A    between atoms: N_12  and  C_13
REMARK                            x       y       z     vdW  Elec       q    Type
REMARK                         _______ _______ _______ _____ _____    ______ ____
ROOT
ATOM      1  C   UNL     1       3.694   2.869  18.012  0.00  0.00    +0.000 A 
ATOM      2  N   UNL     1       3.028   3.017  19.202  0.00  0.00    +0.000 N 
ATOM      3  C   UNL     1       2.707   4.340  19.422  0.00  0.00    +0.000 A 
ATOM      4  C   UNL     1       2.026   4.933  20.492  0.00  0.00    +0.000 A 
ATOM      5  C   UNL     1       1.833   6.317  20.450  0.00  0.00    +0.000 A 
ATOM      6  C   UNL     1       2.299   7.074  19.378  0.00  0.00    +0.000 A 
ATOM      7  C   UNL     1       2.972   6.465  18.313  0.00  0.00    +0.000 A 
ATOM      8  C   UNL     1       3.189   5.070  18.332  0.00  0.00    +0.000 A 
ATOM      9  C   UNL     1       3.811   4.130  17.463  0.00  0.00    +0.000 A 
ATOM     10  H   UNL     1       2.785   2.271  19.835  0.00  0.00    +0.000 HD
ENDROOT
BRANCH   1  11
ATOM     11  O   UNL     1       4.105   1.685  17.568  0.00  0.00    +0.000 OA
ATOM     12  H   UNL     1       3.466   1.326  16.931  0.00  0.00    +0.000 HD
ENDBRANCH   1  11
BRANCH   9  13
ATOM     13  N   UNL     1       4.408   4.364  16.216  0.00  0.00    +0.000 NA
ATOM     14  N   UNL     1       5.507   3.794  16.059  0.00  0.00    +0.000 NA
BRANCH  14  15
ATOM     15  C   UNL     1       6.022   4.014  14.762  0.00  0.00    +0.000 A 
ATOM     16  C   UNL     1       5.551   3.324  13.632  0.00  0.00    +0.000 A 
ATOM     17  C   UNL     1       6.108   3.541  12.368  0.00  0.00    +0.000 A 
ATOM     18  C   UNL     1       7.157   4.446  12.215  0.00  0.00    +0.000 A 
ATOM     19  C   UNL     1       7.647   5.131  13.324  0.00  0.00    +0.000 A 
ATOM     20  C   UNL     1       7.083   4.911  14.582  0.00  0.00    +0.000 A 
ATOM     21  F   UNL     1       7.583   5.582  15.631  0.00  0.00    +0.000 F 
ENDBRANCH  14  15
ENDBRANCH   9  13
TORSDOF 3
ENDMDL
MODEL 9
REMARK VINA RESULT:      -7.1      5.025      8.135
REMARK  Name = 
REMARK  3 active torsions:
REMARK  status: ('A' for Active; 'I' for Inactive)
REMARK    1  A    between atoms: O_1  and  C_2
REMARK    2  A    between atoms: C_10  and  N_11
REMARK    3  A    between atoms: N_12  and  C_13
REMARK                            x       y       z     vdW  Elec       q    Type
REMARK                         _______ _______ _______ _____ _____    ______ ____
ROOT
ATOM      1  C   UNL     1       1.379   9.823  18.581  0.00  0.00    +0.000 A 
ATOM      2  N   UNL     1       0.621  10.820  19.142  0.00  0.00    +0.000 N 
ATOM      3  C   UNL     1       0.273  10.499  20.437  0.00  0.00    +0.000 A 
ATOM      4  C   UNL     1      -0.478  11.224  21.371  0.00  0.00    +0.000 A 
ATOM      5  C   UNL     1      -0.673  10.650  22.631  0.00  0.00    +0.000 A 
ATOM      6  C   UNL     1      -0.133   9.405  22.944  0.00  0.00    +0.000 A 
ATOM      7  C   UNL     1       0.619   8.697  22.001  0.00  0.00    +0.000 A 
ATOM      8  C   UNL     1       0.825   9.247  20.718  0.00  0.00    +0.000 A 
ATOM      9  C   UNL     1       1.509   8.837  19.538  0.00  0.00    +0.000 A 
ATOM     10  H   UNL     1       0.357  11.681  18.690  0.00  0.00    +0.000 HD
ENDROOT
BRANCH   1  11
ATOM     11  O   UNL     1       1.849   9.898  17.339  0.00  0.00    +0.000 OA
ATOM     12  H   UNL     1       2.816   9.813  17.342  0.00  0.00    +0.000 HD
ENDBRANCH   1  11
BRANCH   9  13
ATOM     13  N   UNL     1       2.260   7.671  19.332  0.00  0.00    +0.000 NA
ATOM     14  N   UNL     1       2.222   7.238  18.162  0.00  0.00    +0.000 NA
BRANCH  14  15
ATOM     15  C   UNL     1       3.050   6.104  18.003  0.00  0.00    +0.000 A 
ATOM     16  C   UNL     1       4.453   6.182  18.027  0.00  0.00    +0.000 A 
ATOM     17  C   UNL     1       5.243   5.045  17.831  0.00  0.00    +0.000 A 
ATOM     18  C   UNL     1       4.641   3.810  17.596  0.00  0.00    +0.000 A 
ATOM     19  C   UNL     1       3.251   3.714  17.557  0.00  0.00    +0.000 A 
ATOM     20  C   UNL     1       2.471   4.854  17.756  0.00  0.00    +0.000 A 
ATOM     21  F   UNL     1       1.135   4.728  17.705  0.00  0.00    +0.000 F 
ENDBRANCH  14  15
ENDBRANCH   9  13
TORSDOF 3
ENDMDL
