MODEL 1
REMARK VINA RESULT:      -7.3      0.000      0.000
REMARK  Name = 
REMARK  9 active torsions:
REMARK  status: ('A' for Active; 'I' for Inactive)
REMARK    1  A    between atoms: C_1  and  C_2
REMARK    2  A    between atoms: C_2  and  C_3
REMARK    3  A    between atoms: C_3  and  C_4
REMARK    4  A    between atoms: N_6  and  C_7
REMARK    5  A    between atoms: C_7  and  C_8
REMARK    6  A    between atoms: C_7  and  C_9
REMARK    7  A    between atoms: C_9  and  C_10
REMARK    8  A    between atoms: C_10  and  C_11
REMARK    9  A    between atoms: C_17  and  C_18
REMARK                            x       y       z     vdW  Elec       q    Type
REMARK                         _______ _______ _______ _____ _____    ______ ____
ROOT
ATOM      1  C   UNL     1       4.240   6.112  17.859  0.00  0.00    +0.000 C 
ATOM      2  O   UNL     1       4.029   6.690  16.800  0.00  0.00    +0.000 OA
ATOM      3  N   UNL     1       5.485   5.720  18.286  0.00  0.00    +0.000 N 
ATOM      4  H   UNL     1       5.592   5.351  19.222  0.00  0.00    +0.000 HD
ENDROOT
BRANCH   1   5
ATOM      5  C   UNL     1       3.112   5.870  18.825  0.00  0.00    +0.000 C 
ATOM      6  C   UNL     1       2.166   4.716  18.434  0.00  0.00    +0.000 C 
ATOM      7  C   UNL     1       2.398   3.818  17.257  0.00  0.00    +0.000 C 
ATOM      8  C   UNL     1       3.023   4.591  19.659  0.00  0.00    +0.000 C 
ATOM      9 CL   UNL     1       4.370   3.462  19.716  0.00  0.00    +0.000 Cl
ATOM     10 CL   UNL     1       2.109   4.523  21.184  0.00  0.00    +0.000 Cl
BRANCH   5  12
ATOM     11  C   UNL     1       2.107   8.172  18.388  0.00  0.00    +0.000 C 
ATOM     12  C   UNL     1       2.544   7.155  19.428  0.00  0.00    +0.000 C 
ENDBRANCH   5  12
ENDBRANCH   1   5
BRANCH   3  13
ATOM     13  C   UNL     1       6.675   5.968  17.483  0.00  0.00    +0.000 C 
ATOM     14  C   UNL     1       7.752   6.631  18.341  0.00  0.00    +0.000 C 
BRANCH  13  15
ATOM     15  C   UNL     1       7.195   4.664  16.863  0.00  0.00    +0.000 C 
BRANCH  15  16
ATOM     16  C   UNL     1       6.162   4.035  15.924  0.00  0.00    +0.000 C 
BRANCH  16  17
ATOM     17  C   UNL     1       6.541   4.200  14.476  0.00  0.00    +0.000 A 
ATOM     18  C   UNL     1       7.535   5.115  14.100  0.00  0.00    +0.000 A 
ATOM     19  C   UNL     1       7.879   5.268  12.757  0.00  0.00    +0.000 A 
ATOM     20  C   UNL     1       7.232   4.513  11.781  0.00  0.00    +0.000 A 
ATOM     21  C   UNL     1       6.240   3.604  12.146  0.00  0.00    +0.000 A 
ATOM     22  C   UNL     1       5.893   3.449  13.487  0.00  0.00    +0.000 A 
ENDBRANCH  16  17
ENDBRANCH  15  16
ENDBRANCH  13  15
ENDBRANCH   3  13
TORSDOF 6
ENDMDL
MODEL 2
REMARK VINA RESULT:      -7.1      1.570      2.698
REMARK  Name = 
REMARK  9 active torsions:
REMARK  status: ('A' for Active; 'I' for Inactive)
REMARK    1  A    between atoms: C_1  and  C_2
REMARK    2  A    between atoms: C_2  and  C_3
REMARK    3  A    between atoms: C_3  and  C_4
REMARK    4  A    between atoms: N_6  and  C_7
REMARK    5  A    between atoms: C_7  and  C_8
REMARK    6  A    between atoms: C_7  and  C_9
REMARK    7  A    between atoms: C_9  and  C_10
REMARK    8  A    between atoms: C_10  and  C_11
REMARK    9  A    between atoms: C_17  and  C_18
REMARK                            x       y       z     vdW  Elec       q    Type
REMARK                         _______ _______ _______ _____ _____    ______ ____
ROOT
ATOM      1  C   UNL     1       4.264   4.804  18.306  0.00  0.00    +0.000 C 
ATOM      2  O   UNL     1       3.855   5.573  17.444  0.00  0.00    +0.000 OA
ATOM      3  N   UNL     1       5.584   4.683  18.664  0.00  0.00    +0.000 N 
ATOM      4  H   UNL     1       5.829   4.111  19.463  0.00  0.00    +0.000 HD
ENDROOT
BRANCH   1   5
ATOM      5  C   UNL     1       3.292   3.984  19.110  0.00  0.00    +0.000 C 
ATOM      6  C   UNL     1       2.341   4.806  20.003  0.00  0.00    +0.000 C 
ATOM      7  C   UNL     1       2.288   6.304  19.999  0.00  0.00    +0.000 C 
ATOM      8  C   UNL     1       1.786   4.028  18.847  0.00  0.00    +0.000 C 
ATOM      9 CL   UNL     1       1.148   4.841  17.424  0.00  0.00    +0.000 Cl
ATOM     10 CL   UNL     1       0.709   2.692  19.316  0.00  0.00    +0.000 Cl
BRANCH   5  12
ATOM     11  C   UNL     1       3.833   1.542  18.617  0.00  0.00    +0.000 C 
ATOM     12  C   UNL     1       3.887   2.673  19.628  0.00  0.00    +0.000 C 
ENDBRANCH   5  12
ENDBRANCH   1   5
BRANCH   3  13
ATOM     13  C   UNL     1       6.621   5.482  18.023  0.00  0.00    +0.000 C 
ATOM     14  C   UNL     1       7.638   5.948  19.063  0.00  0.00    +0.000 C 
BRANCH  13  15
ATOM     15  C   UNL     1       7.306   4.685  16.904  0.00  0.00    +0.000 C 
BRANCH  15  16
ATOM     16  C   UNL     1       7.481   5.527  15.637  0.00  0.00    +0.000 C 
BRANCH  16  17
ATOM     17  C   UNL     1       6.929   4.836  14.419  0.00  0.00    +0.000 A 
ATOM     18  C   UNL     1       5.742   4.093  14.499  0.00  0.00    +0.000 A 
ATOM     19  C   UNL     1       5.236   3.451  13.370  0.00  0.00    +0.000 A 
ATOM     20  C   UNL     1       5.911   3.541  12.154  0.00  0.00    +0.000 A 
ATOM     21  C   UNL     1       7.095   4.274  12.067  0.00  0.00    +0.000 A 
ATOM     22  C   UNL     1       7.603   4.917  13.195  0.00  0.00    +0.000 A 
ENDBRANCH  16  17
ENDBRANCH  15  16
ENDBRANCH  13  15
ENDBRANCH   3  13
TORSDOF 6
ENDMDL
MODEL 3
REMARK VINA RESULT:      -7.0      1.974      3.664
REMARK  Name = 
REMARK  9 active torsions:
REMARK  status: ('A' for Active; 'I' for Inactive)
REMARK    1  A    between atoms: C_1  and  C_2
REMARK    2  A    between atoms: C_2  and  C_3
REMARK    3  A    between atoms: C_3  and  C_4
REMARK    4  A    between atoms: N_6  and  C_7
REMARK    5  A    between atoms: C_7  and  C_8
REMARK    6  A    between atoms: C_7  and  C_9
REMARK    7  A    between atoms: C_9  and  C_10
REMARK    8  A    between atoms: C_10  and  C_11
REMARK    9  A    between atoms: C_17  and  C_18
REMARK                            x       y       z     vdW  Elec       q    Type
REMARK                         _______ _______ _______ _____ _____    ______ ____
ROOT
ATOM      1  C   UNL     1       2.168   4.382  18.317  0.00  0.00    +0.000 C 
ATOM      2  O   UNL     1       1.319   4.339  17.435  0.00  0.00    +0.000 OA
ATOM      3  N   UNL     1       2.714   5.546  18.801  0.00  0.00    +0.000 N 
ATOM      4  H   UNL     1       3.324   5.506  19.608  0.00  0.00    +0.000 HD
ENDROOT
BRANCH   1   5
ATOM      5  C   UNL     1       2.609   3.119  19.004  0.00  0.00    +0.000 C 
ATOM      6  C   UNL     1       3.634   2.281  18.213  0.00  0.00    +0.000 C 
ATOM      7  C   UNL     1       4.247   2.726  16.919  0.00  0.00    +0.000 C 
ATOM      8  C   UNL     1       4.042   2.928  19.503  0.00  0.00    +0.000 C 
ATOM      9 CL   UNL     1       5.169   4.277  19.529  0.00  0.00    +0.000 Cl
ATOM     10 CL   UNL     1       4.442   1.779  20.802  0.00  0.00    +0.000 Cl
BRANCH   5  12
ATOM     11  C   UNL     1       1.181   3.073  21.116  0.00  0.00    +0.000 C 
ATOM     12  C   UNL     1       1.486   2.425  19.777  0.00  0.00    +0.000 C 
ENDBRANCH   5  12
ENDBRANCH   1   5
BRANCH   3  13
ATOM     13  C   UNL     1       2.313   6.846  18.281  0.00  0.00    +0.000 C 
ATOM     14  C   UNL     1       2.136   7.836  19.432  0.00  0.00    +0.000 C 
BRANCH  13  15
ATOM     15  C   UNL     1       3.339   7.365  17.265  0.00  0.00    +0.000 C 
BRANCH  15  16
ATOM     16  C   UNL     1       4.775   7.122  17.736  0.00  0.00    +0.000 C 
BRANCH  16  17
ATOM     17  C   UNL     1       5.539   6.236  16.789  0.00  0.00    +0.000 A 
ATOM     18  C   UNL     1       6.750   5.650  17.184  0.00  0.00    +0.000 A 
ATOM     19  C   UNL     1       7.457   4.833  16.302  0.00  0.00    +0.000 A 
ATOM     20  C   UNL     1       6.964   4.600  15.020  0.00  0.00    +0.000 A 
ATOM     21  C   UNL     1       5.763   5.183  14.618  0.00  0.00    +0.000 A 
ATOM     22  C   UNL     1       5.054   6.000  15.497  0.00  0.00    +0.000 A 
ENDBRANCH  16  17
ENDBRANCH  15  16
ENDBRANCH  13  15
ENDBRANCH   3  13
TORSDOF 6
ENDMDL
MODEL 4
REMARK VINA RESULT:      -7.0      1.089      1.282
REMARK  Name = 
REMARK  9 active torsions:
REMARK  status: ('A' for Active; 'I' for Inactive)
REMARK    1  A    between atoms: C_1  and  C_2
REMARK    2  A    between atoms: C_2  and  C_3
REMARK    3  A    between atoms: C_3  and  C_4
REMARK    4  A    between atoms: N_6  and  C_7
REMARK    5  A    between atoms: C_7  and  C_8
REMARK    6  A    between atoms: C_7  and  C_9
REMARK    7  A    between atoms: C_9  and  C_10
REMARK    8  A    between atoms: C_10  and  C_11
REMARK    9  A    between atoms: C_17  and  C_18
REMARK                            x       y       z     vdW  Elec       q    Type
REMARK                         _______ _______ _______ _____ _____    ______ ____
ROOT
ATOM      1  C   UNL     1       3.696   5.473  18.813  0.00  0.00    +0.000 C 
ATOM      2  O   UNL     1       3.400   6.297  17.955  0.00  0.00    +0.000 OA
ATOM      3  N   UNL     1       4.979   5.051  19.063  0.00  0.00    +0.000 N 
ATOM      4  H   UNL     1       5.155   4.456  19.862  0.00  0.00    +0.000 HD
ENDROOT
BRANCH   1   5
ATOM      5  C   UNL     1       2.638   4.926  19.732  0.00  0.00    +0.000 C 
ATOM      6  C   UNL     1       1.604   4.008  19.048  0.00  0.00    +0.000 C 
ATOM      7  C   UNL     1       1.694   3.583  17.614  0.00  0.00    +0.000 C 
ATOM      8  C   UNL     1       2.548   3.436  20.065  0.00  0.00    +0.000 C 
ATOM      9 CL   UNL     1       3.835   2.334  19.594  0.00  0.00    +0.000 Cl
ATOM     10 CL   UNL     1       1.757   2.848  21.546  0.00  0.00    +0.000 Cl
BRANCH   5  12
ATOM     11  C   UNL     1       1.930   7.318  20.257  0.00  0.00    +0.000 C 
ATOM     12  C   UNL     1       2.187   5.924  20.800  0.00  0.00    +0.000 C 
ENDBRANCH   5  12
ENDBRANCH   1   5
BRANCH   3  13
ATOM     13  C   UNL     1       6.109   5.565  18.300  0.00  0.00    +0.000 C 
ATOM     14  C   UNL     1       7.325   5.720  19.212  0.00  0.00    +0.000 C 
BRANCH  13  15
ATOM     15  C   UNL     1       6.427   4.646  17.113  0.00  0.00    +0.000 C 
BRANCH  15  16
ATOM     16  C   UNL     1       7.269   5.362  16.054  0.00  0.00    +0.000 C 
BRANCH  16  17
ATOM     17  C   UNL     1       6.990   4.847  14.667  0.00  0.00    +0.000 A 
ATOM     18  C   UNL     1       7.753   5.290  13.577  0.00  0.00    +0.000 A 
ATOM     19  C   UNL     1       7.489   4.814  12.293  0.00  0.00    +0.000 A 
ATOM     20  C   UNL     1       6.460   3.896  12.087  0.00  0.00    +0.000 A 
ATOM     21  C   UNL     1       5.694   3.454  13.166  0.00  0.00    +0.000 A 
ATOM     22  C   UNL     1       5.956   3.929  14.450  0.00  0.00    +0.000 A 
ENDBRANCH  16  17
ENDBRANCH  15  16
ENDBRANCH  13  15
ENDBRANCH   3  13
TORSDOF 6
ENDMDL
MODEL 5
REMARK VINA RESULT:      -6.9      1.774      2.013
REMARK  Name = 
REMARK  9 active torsions:
REMARK  status: ('A' for Active; 'I' for Inactive)
REMARK    1  A    between atoms: C_1  and  C_2
REMARK    2  A    between atoms: C_2  and  C_3
REMARK    3  A    between atoms: C_3  and  C_4
REMARK    4  A    between atoms: N_6  and  C_7
REMARK    5  A    between atoms: C_7  and  C_8
REMARK    6  A    between atoms: C_7  and  C_9
REMARK    7  A    between atoms: C_9  and  C_10
REMARK    8  A    between atoms: C_10  and  C_11
REMARK    9  A    between atoms: C_17  and  C_18
REMARK                            x       y       z     vdW  Elec       q    Type
REMARK                         _______ _______ _______ _____ _____    ______ ____
ROOT
ATOM      1  C   UNL     1       3.767   4.504  18.789  0.00  0.00    +0.000 C 
ATOM      2  O   UNL     1       4.870   4.495  19.321  0.00  0.00    +0.000 OA
ATOM      3  N   UNL     1       3.531   4.969  17.518  0.00  0.00    +0.000 N 
ATOM      4  H   UNL     1       2.616   4.838  17.107  0.00  0.00    +0.000 HD
ENDROOT
BRANCH   1   5
ATOM      5  C   UNL     1       2.582   3.901  19.493  0.00  0.00    +0.000 C 
ATOM      6  C   UNL     1       2.234   2.464  19.053  0.00  0.00    +0.000 C 
ATOM      7  C   UNL     1       3.064   1.668  18.091  0.00  0.00    +0.000 C 
ATOM      8  C   UNL     1       2.727   2.714  20.448  0.00  0.00    +0.000 C 
ATOM      9 CL   UNL     1       4.317   2.168  20.963  0.00  0.00    +0.000 Cl
ATOM     10 CL   UNL     1       1.527   2.375  21.717  0.00  0.00    +0.000 Cl
BRANCH   5  12
ATOM     11  C   UNL     1       1.888   6.044  20.686  0.00  0.00    +0.000 C 
ATOM     12  C   UNL     1       1.465   4.908  19.772  0.00  0.00    +0.000 C 
ENDBRANCH   5  12
ENDBRANCH   1   5
BRANCH   3  13
ATOM     13  C   UNL     1       4.607   5.503  16.694  0.00  0.00    +0.000 C 
ATOM     14  C   UNL     1       5.072   6.847  17.251  0.00  0.00    +0.000 C 
BRANCH  13  15
ATOM     15  C   UNL     1       5.774   4.510  16.612  0.00  0.00    +0.000 C 
BRANCH  15  16
ATOM     16  C   UNL     1       6.958   5.092  15.836  0.00  0.00    +0.000 C 
BRANCH  16  17
ATOM     17  C   UNL     1       6.920   4.713  14.379  0.00  0.00    +0.000 A 
ATOM     18  C   UNL     1       7.784   5.328  13.461  0.00  0.00    +0.000 A 
ATOM     19  C   UNL     1       7.742   4.979  12.112  0.00  0.00    +0.000 A 
ATOM     20  C   UNL     1       6.836   4.017  11.668  0.00  0.00    +0.000 A 
ATOM     21  C   UNL     1       5.971   3.404  12.574  0.00  0.00    +0.000 A 
ATOM     22  C   UNL     1       6.010   3.752  13.924  0.00  0.00    +0.000 A 
ENDBRANCH  16  17
ENDBRANCH  15  16
ENDBRANCH  13  15
ENDBRANCH   3  13
TORSDOF 6
ENDMDL
MODEL 6
REMARK VINA RESULT:      -6.9      3.236      8.076
REMARK  Name = 
REMARK  9 active torsions:
REMARK  status: ('A' for Active; 'I' for Inactive)
REMARK    1  A    between atoms: C_1  and  C_2
REMARK    2  A    between atoms: C_2  and  C_3
REMARK    3  A    between atoms: C_3  and  C_4
REMARK    4  A    between atoms: N_6  and  C_7
REMARK    5  A    between atoms: C_7  and  C_8
REMARK    6  A    between atoms: C_7  and  C_9
REMARK    7  A    between atoms: C_9  and  C_10
REMARK    8  A    between atoms: C_10  and  C_11
REMARK    9  A    between atoms: C_17  and  C_18
REMARK                            x       y       z     vdW  Elec       q    Type
REMARK                         _______ _______ _______ _____ _____    ______ ____
ROOT
ATOM      1  C   UNL     1       2.961   5.609  18.898  0.00  0.00    +0.000 C 
ATOM      2  O   UNL     1       3.675   5.757  19.882  0.00  0.00    +0.000 OA
ATOM      3  N   UNL     1       2.330   6.640  18.245  0.00  0.00    +0.000 N 
ATOM      4  H   UNL     1       1.851   6.452  17.373  0.00  0.00    +0.000 HD
ENDROOT
BRANCH   1   5
ATOM      5  C   UNL     1       2.801   4.248  18.277  0.00  0.00    +0.000 C 
ATOM      6  C   UNL     1       3.690   3.997  17.041  0.00  0.00    +0.000 C 
ATOM      7  C   UNL     1       4.722   4.967  16.552  0.00  0.00    +0.000 C 
ATOM      8  C   UNL     1       3.927   3.213  18.298  0.00  0.00    +0.000 C 
ATOM      9 CL   UNL     1       5.365   3.473  19.276  0.00  0.00    +0.000 Cl
ATOM     10 CL   UNL     1       3.605   1.470  18.142  0.00  0.00    +0.000 Cl
BRANCH   5  12
ATOM     11  C   UNL     1       0.887   3.321  19.682  0.00  0.00    +0.000 C 
ATOM     12  C   UNL     1       1.360   3.736  18.301  0.00  0.00    +0.000 C 
ENDBRANCH   5  12
ENDBRANCH   1   5
BRANCH   3  13
ATOM     13  C   UNL     1       2.469   8.020  18.692  0.00  0.00    +0.000 C 
ATOM     14  C   UNL     1       2.189   8.974  17.533  0.00  0.00    +0.000 C 
BRANCH  13  15
ATOM     15  C   UNL     1       1.533   8.304  19.875  0.00  0.00    +0.000 C 
BRANCH  15  16
ATOM     16  C   UNL     1       0.506   9.388  19.534  0.00  0.00    +0.000 C 
BRANCH  16  17
ATOM     17  C   UNL     1      -0.082  10.018  20.769  0.00  0.00    +0.000 A 
ATOM     18  C   UNL     1      -0.120   9.310  21.979  0.00  0.00    +0.000 A 
ATOM     19  C   UNL     1      -0.669   9.895  23.119  0.00  0.00    +0.000 A 
ATOM     20  C   UNL     1      -1.188  11.187  23.060  0.00  0.00    +0.000 A 
ATOM     21  C   UNL     1      -1.157  11.896  21.859  0.00  0.00    +0.000 A 
ATOM     22  C   UNL     1      -0.609  11.313  20.717  0.00  0.00    +0.000 A 
ENDBRANCH  16  17
ENDBRANCH  15  16
ENDBRANCH  13  15
ENDBRANCH   3  13
TORSDOF 6
ENDMDL
MODEL 7
REMARK VINA RESULT:      -6.9      1.072      1.582
REMARK  Name = 
REMARK  9 active torsions:
REMARK  status: ('A' for Active; 'I' for Inactive)
REMARK    1  A    between atoms: C_1  and  C_2
REMARK    2  A    between atoms: C_2  and  C_3
REMARK    3  A    between atoms: C_3  and  C_4
REMARK    4  A    between atoms: N_6  and  C_7
REMARK    5  A    between atoms: C_7  and  C_8
REMARK    6  A    between atoms: C_7  and  C_9
REMARK    7  A    between atoms: C_9  and  C_10
REMARK    8  A    between atoms: C_10  and  C_11
REMARK    9  A    between atoms: C_17  and  C_18
REMARK                            x       y       z     vdW  Elec       q    Type
REMARK                         _______ _______ _______ _____ _____    ______ ____
ROOT
ATOM      1  C   UNL     1       4.146   5.531  18.880  0.00  0.00    +0.000 C 
ATOM      2  O   UNL     1       3.905   6.457  18.114  0.00  0.00    +0.000 OA
ATOM      3  N   UNL     1       5.406   5.037  19.115  0.00  0.00    +0.000 N 
ATOM      4  H   UNL     1       5.538   4.349  19.845  0.00  0.00    +0.000 HD
ENDROOT
BRANCH   1   5
ATOM      5  C   UNL     1       3.043   4.922  19.701  0.00  0.00    +0.000 C 
ATOM      6  C   UNL     1       2.110   3.972  18.922  0.00  0.00    +0.000 C 
ATOM      7  C   UNL     1       2.335   3.578  17.493  0.00  0.00    +0.000 C 
ATOM      8  C   UNL     1       2.993   3.424  20.003  0.00  0.00    +0.000 C 
ATOM      9 CL   UNL     1       4.361   2.387  19.624  0.00  0.00    +0.000 Cl
ATOM     10 CL   UNL     1       2.111   2.775  21.406  0.00  0.00    +0.000 Cl
BRANCH   5  12
ATOM     11  C   UNL     1       1.949   7.180  20.152  0.00  0.00    +0.000 C 
ATOM     12  C   UNL     1       2.463   5.880  20.743  0.00  0.00    +0.000 C 
ENDBRANCH   5  12
ENDBRANCH   1   5
BRANCH   3  13
ATOM     13  C   UNL     1       6.576   5.593  18.447  0.00  0.00    +0.000 C 
ATOM     14  C   UNL     1       7.743   5.681  19.429  0.00  0.00    +0.000 C 
BRANCH  13  15
ATOM     15  C   UNL     1       6.953   4.751  17.221  0.00  0.00    +0.000 C 
BRANCH  15  16
ATOM     16  C   UNL     1       7.193   5.626  15.987  0.00  0.00    +0.000 C 
BRANCH  16  17
ATOM     17  C   UNL     1       6.788   4.932  14.714  0.00  0.00    +0.000 A 
ATOM     18  C   UNL     1       5.565   4.250  14.634  0.00  0.00    +0.000 A 
ATOM     19  C   UNL     1       5.195   3.604  13.456  0.00  0.00    +0.000 A 
ATOM     20  C   UNL     1       6.043   3.630  12.350  0.00  0.00    +0.000 A 
ATOM     21  C   UNL     1       7.262   4.302  12.423  0.00  0.00    +0.000 A 
ATOM     22  C   UNL     1       7.635   4.948  13.600  0.00  0.00    +0.000 A 
ENDBRANCH  16  17
ENDBRANCH  15  16
ENDBRANCH  13  15
ENDBRANCH   3  13
TORSDOF 6
ENDMDL
MODEL 8
REMARK VINA RESULT:      -6.9      1.630      2.089
REMARK  Name = 
REMARK  9 active torsions:
REMARK  status: ('A' for Active; 'I' for Inactive)
REMARK    1  A    between atoms: C_1  and  C_2
REMARK    2  A    between atoms: C_2  and  C_3
REMARK    3  A    between atoms: C_3  and  C_4
REMARK    4  A    between atoms: N_6  and  C_7
REMARK    5  A    between atoms: C_7  and  C_8
REMARK    6  A    between atoms: C_7  and  C_9
REMARK    7  A    between atoms: C_9  and  C_10
REMARK    8  A    between atoms: C_10  and  C_11
REMARK    9  A    between atoms: C_17  and  C_18
REMARK                            x       y       z     vdW  Elec       q    Type
REMARK                         _______ _______ _______ _____ _____    ______ ____
ROOT
ATOM      1  C   UNL     1       2.478   4.754  18.442  0.00  0.00    +0.000 C 
ATOM      2  O   UNL     1       1.559   4.895  17.644  0.00  0.00    +0.000 OA
ATOM      3  N   UNL     1       3.754   5.219  18.234  0.00  0.00    +0.000 N 
ATOM      4  H   UNL     1       4.428   5.165  18.987  0.00  0.00    +0.000 HD
ENDROOT
BRANCH   1   5
ATOM      5  C   UNL     1       2.226   4.117  19.782  0.00  0.00    +0.000 C 
ATOM      6  C   UNL     1       1.240   2.931  19.755  0.00  0.00    +0.000 C 
ATOM      7  C   UNL     1       0.661   2.364  18.494  0.00  0.00    +0.000 C 
ATOM      8  C   UNL     1       2.681   2.691  20.097  0.00  0.00    +0.000 C 
ATOM      9 CL   UNL     1       3.747   1.827  18.998  0.00  0.00    +0.000 Cl
ATOM     10 CL   UNL     1       2.952   2.137  21.766  0.00  0.00    +0.000 Cl
BRANCH   5  12
ATOM     11  C   UNL     1       1.553   6.451  20.554  0.00  0.00    +0.000 C 
ATOM     12  C   UNL     1       2.183   5.123  20.933  0.00  0.00    +0.000 C 
ENDBRANCH   5  12
ENDBRANCH   1   5
BRANCH   3  13
ATOM     13  C   UNL     1       4.113   5.928  17.013  0.00  0.00    +0.000 C 
ATOM     14  C   UNL     1       4.109   7.435  17.266  0.00  0.00    +0.000 C 
BRANCH  13  15
ATOM     15  C   UNL     1       5.481   5.463  16.496  0.00  0.00    +0.000 C 
BRANCH  15  16
ATOM     16  C   UNL     1       5.382   4.121  15.765  0.00  0.00    +0.000 C 
BRANCH  16  17
ATOM     17  C   UNL     1       6.015   4.173  14.400  0.00  0.00    +0.000 A 
ATOM     18  C   UNL     1       7.140   4.977  14.167  0.00  0.00    +0.000 A 
ATOM     19  C   UNL     1       7.720   5.026  12.901  0.00  0.00    +0.000 A 
ATOM     20  C   UNL     1       7.181   4.277  11.856  0.00  0.00    +0.000 A 
ATOM     21  C   UNL     1       6.059   3.479  12.078  0.00  0.00    +0.000 A 
ATOM     22  C   UNL     1       5.477   3.428  13.344  0.00  0.00    +0.000 A 
ENDBRANCH  16  17
ENDBRANCH  15  16
ENDBRANCH  13  15
ENDBRANCH   3  13
TORSDOF 6
ENDMDL
MODEL 9
REMARK VINA RESULT:      -6.9      1.257      1.755
REMARK  Name = 
REMARK  9 active torsions:
REMARK  status: ('A' for Active; 'I' for Inactive)
REMARK    1  A    between atoms: C_1  and  C_2
REMARK    2  A    between atoms: C_2  and  C_3
REMARK    3  A    between atoms: C_3  and  C_4
REMARK    4  A    between atoms: N_6  and  C_7
REMARK    5  A    between atoms: C_7  and  C_8
REMARK    6  A    between atoms: C_7  and  C_9
REMARK    7  A    between atoms: C_9  and  C_10
REMARK    8  A    between atoms: C_10  and  C_11
REMARK    9  A    between atoms: C_17  and  C_18
REMARK                            x       y       z     vdW  Elec       q    Type
REMARK                         _______ _______ _______ _____ _____    ______ ____
ROOT
ATOM      1  C   UNL     1       3.544   5.815  18.718  0.00  0.00    +0.000 C 
ATOM      2  O   UNL     1       3.143   6.909  18.339  0.00  0.00    +0.000 OA
ATOM      3  N   UNL     1       4.813   5.341  18.491  0.00  0.00    +0.000 N 
ATOM      4  H   UNL     1       5.104   4.479  18.933  0.00  0.00    +0.000 HD
ENDROOT
BRANCH   1   5
ATOM      5  C   UNL     1       2.661   4.937  19.562  0.00  0.00    +0.000 C 
ATOM      6  C   UNL     1       1.553   4.200  18.781  0.00  0.00    +0.000 C 
ATOM      7  C   UNL     1       1.421   4.243  17.289  0.00  0.00    +0.000 C 
ATOM      8  C   UNL     1       2.661   3.414  19.418  0.00  0.00    +0.000 C 
ATOM      9 CL   UNL     1       3.881   2.606  18.443  0.00  0.00    +0.000 Cl
ATOM     10 CL   UNL     1       2.132   2.344  20.738  0.00  0.00    +0.000 Cl
BRANCH   5  12
ATOM     11  C   UNL     1       1.395   6.691  20.910  0.00  0.00    +0.000 C 
ATOM     12  C   UNL     1       2.364   5.523  20.943  0.00  0.00    +0.000 C 
ENDBRANCH   5  12
ENDBRANCH   1   5
BRANCH   3  13
ATOM     13  C   UNL     1       5.797   6.127  17.758  0.00  0.00    +0.000 C 
ATOM     14  C   UNL     1       7.207   5.659  18.113  0.00  0.00    +0.000 C 
BRANCH  13  15
ATOM     15  C   UNL     1       5.553   6.031  16.246  0.00  0.00    +0.000 C 
BRANCH  15  16
ATOM     16  C   UNL     1       5.424   4.577  15.785  0.00  0.00    +0.000 C 
BRANCH  16  17
ATOM     17  C   UNL     1       5.980   4.371  14.401  0.00  0.00    +0.000 A 
ATOM     18  C   UNL     1       5.354   3.492  13.506  0.00  0.00    +0.000 A 
ATOM     19  C   UNL     1       5.875   3.300  12.227  0.00  0.00    +0.000 A 
ATOM     20  C   UNL     1       7.025   3.980  11.833  0.00  0.00    +0.000 A 
ATOM     21  C   UNL     1       7.657   4.853  12.719  0.00  0.00    +0.000 A 
ATOM     22  C   UNL     1       7.138   5.047  13.999  0.00  0.00    +0.000 A 
ENDBRANCH  16  17
ENDBRANCH  15  16
ENDBRANCH  13  15
ENDBRANCH   3  13
TORSDOF 6
ENDMDL
