MODEL 1
REMARK VINA RESULT:      -6.4      0.000      0.000
REMARK  Name = 
REMARK  8 active torsions:
REMARK  status: ('A' for Active; 'I' for Inactive)
REMARK    1  A    between atoms: C_1  and  C_2
REMARK    2  A    between atoms: C_2  and  C_3
REMARK    3  A    between atoms: C_8  and  C_9
REMARK    4  A    between atoms: C_9  and  C_10
REMARK    5  A    between atoms: N_12  and  C_13
REMARK    6  A    between atoms: C_13  and  C_14
REMARK    7  A    between atoms: C_14  and  O_15
REMARK    8  A    between atoms: N_17  and  C_18
REMARK                            x       y       z     vdW  Elec       q    Type
REMARK                         _______ _______ _______ _____ _____    ______ ____
ROOT
ATOM      1  C   UNL     1       3.660   4.665  17.880  0.00  0.00    +0.000 A 
ATOM      2  C   UNL     1       3.518   3.442  18.493  0.00  0.00    +0.000 A 
ATOM      3  N   UNL     1       2.444   3.556  19.361  0.00  0.00    +0.000 N 
ATOM      4  C   UNL     1       2.130   4.850  19.511  0.00  0.00    +0.000 A 
ATOM      5  N   UNL     1       2.891   5.552  18.651  0.00  0.00    +0.000 N 
ATOM      6  C   UNL     1       2.900   7.009  18.566  0.00  0.00    +0.000 C 
ENDROOT
BRANCH   1   7
ATOM      7  C   UNL     1       4.381   5.032  16.624  0.00  0.00    +0.000 C 
BRANCH   7  13
ATOM      8  C   UNL     1       7.004   4.883  16.341  0.00  0.00    +0.000 C 
ATOM      9  C   UNL     1       7.221   5.007  14.853  0.00  0.00    +0.000 C 
ATOM     10  O   UNL     1       8.086   5.661  14.295  0.00  0.00    +0.000 OA
ATOM     11  O   UNL     1       6.321   4.225  14.188  0.00  0.00    +0.000 OA
ATOM     12  C   UNL     1       5.639   3.403  15.129  0.00  0.00    +0.000 C 
ATOM     13  C   UNL     1       5.649   4.172  16.443  0.00  0.00    +0.000 C 
BRANCH   8  15
ATOM     14  C   UNL     1       7.636   6.058  18.580  0.00  0.00    +0.000 C 
ATOM     15  C   UNL     1       7.260   6.178  17.110  0.00  0.00    +0.000 C 
ENDBRANCH   8  15
ENDBRANCH   7  13
ENDBRANCH   1   7
BRANCH   3  16
ATOM     16  C   UNL     1       1.691   2.452  19.973  0.00  0.00    +0.000 C 
BRANCH  16  17
ATOM     17  C   UNL     1       1.448   2.666  21.463  0.00  0.00    +0.000 C 
BRANCH  17  18
ATOM     18  O   UNL     1       2.692   2.577  22.164  0.00  0.00    +0.000 OA
ATOM     19  H   UNL     1       3.376   2.919  21.558  0.00  0.00    +0.000 HD
ENDBRANCH  17  18
ENDBRANCH  16  17
ENDBRANCH   3  16
TORSDOF 6
ENDMDL
MODEL 2
REMARK VINA RESULT:      -6.4      2.332      6.297
REMARK  Name = 
REMARK  8 active torsions:
REMARK  status: ('A' for Active; 'I' for Inactive)
REMARK    1  A    between atoms: C_1  and  C_2
REMARK    2  A    between atoms: C_2  and  C_3
REMARK    3  A    between atoms: C_8  and  C_9
REMARK    4  A    between atoms: C_9  and  C_10
REMARK    5  A    between atoms: N_12  and  C_13
REMARK    6  A    between atoms: C_13  and  C_14
REMARK    7  A    between atoms: C_14  and  O_15
REMARK    8  A    between atoms: N_17  and  C_18
REMARK                            x       y       z     vdW  Elec       q    Type
REMARK                         _______ _______ _______ _____ _____    ______ ____
ROOT
ATOM      1  C   UNL     1       5.386   4.307  16.947  0.00  0.00    +0.000 A 
ATOM      2  C   UNL     1       5.174   4.369  15.589  0.00  0.00    +0.000 A 
ATOM      3  N   UNL     1       6.420   4.512  15.000  0.00  0.00    +0.000 N 
ATOM      4  C   UNL     1       7.321   4.831  15.939  0.00  0.00    +0.000 A 
ATOM      5  N   UNL     1       6.703   4.757  17.132  0.00  0.00    +0.000 N 
ATOM      6  C   UNL     1       7.329   5.109  18.403  0.00  0.00    +0.000 C 
ENDROOT
BRANCH   1   7
ATOM      7  C   UNL     1       4.496   3.803  18.036  0.00  0.00    +0.000 C 
BRANCH   7  13
ATOM      8  C   UNL     1       2.057   4.755  18.396  0.00  0.00    +0.000 C 
ATOM      9  C   UNL     1       1.439   3.813  19.400  0.00  0.00    +0.000 C 
ATOM     10  O   UNL     1       0.745   4.118  20.354  0.00  0.00    +0.000 OA
ATOM     11  O   UNL     1       1.728   2.522  19.061  0.00  0.00    +0.000 OA
ATOM     12  C   UNL     1       2.323   2.506  17.767  0.00  0.00    +0.000 C 
ATOM     13  C   UNL     1       3.014   3.853  17.607  0.00  0.00    +0.000 C 
BRANCH   8  15
ATOM     14  C   UNL     1       2.933   7.185  18.049  0.00  0.00    +0.000 C 
ATOM     15  C   UNL     1       2.552   6.065  19.006  0.00  0.00    +0.000 C 
ENDBRANCH   8  15
ENDBRANCH   7  13
ENDBRANCH   1   7
BRANCH   3  16
ATOM     16  C   UNL     1       6.753   4.280  13.588  0.00  0.00    +0.000 C 
BRANCH  16  17
ATOM     17  C   UNL     1       5.649   3.540  12.840  0.00  0.00    +0.000 C 
BRANCH  17  18
ATOM     18  O   UNL     1       6.222   2.462  12.095  0.00  0.00    +0.000 OA
ATOM     19  H   UNL     1       6.339   1.723  12.722  0.00  0.00    +0.000 HD
ENDBRANCH  17  18
ENDBRANCH  16  17
ENDBRANCH   3  16
TORSDOF 6
ENDMDL
MODEL 3
REMARK VINA RESULT:      -6.3      1.006      1.130
REMARK  Name = 
REMARK  8 active torsions:
REMARK  status: ('A' for Active; 'I' for Inactive)
REMARK    1  A    between atoms: C_1  and  C_2
REMARK    2  A    between atoms: C_2  and  C_3
REMARK    3  A    between atoms: C_8  and  C_9
REMARK    4  A    between atoms: C_9  and  C_10
REMARK    5  A    between atoms: N_12  and  C_13
REMARK    6  A    between atoms: C_13  and  C_14
REMARK    7  A    between atoms: C_14  and  O_15
REMARK    8  A    between atoms: N_17  and  C_18
REMARK                            x       y       z     vdW  Elec       q    Type
REMARK                         _______ _______ _______ _____ _____    ______ ____
ROOT
ATOM      1  C   UNL     1       3.727   5.519  18.192  0.00  0.00    +0.000 A 
ATOM      2  C   UNL     1       3.764   4.719  19.310  0.00  0.00    +0.000 A 
ATOM      3  N   UNL     1       2.796   5.204  20.176  0.00  0.00    +0.000 N 
ATOM      4  C   UNL     1       2.395   6.413  19.762  0.00  0.00    +0.000 A 
ATOM      5  N   UNL     1       2.984   6.648  18.575  0.00  0.00    +0.000 N 
ATOM      6  C   UNL     1       2.860   7.898  17.831  0.00  0.00    +0.000 C 
ENDROOT
BRANCH   1   7
ATOM      7  C   UNL     1       4.257   5.273  16.817  0.00  0.00    +0.000 C 
BRANCH   7  13
ATOM      8  C   UNL     1       6.892   5.227  16.614  0.00  0.00    +0.000 C 
ATOM      9  C   UNL     1       7.143   5.000  15.143  0.00  0.00    +0.000 C 
ATOM     10  O   UNL     1       7.983   5.552  14.453  0.00  0.00    +0.000 OA
ATOM     11  O   UNL     1       6.310   4.023  14.678  0.00  0.00    +0.000 OA
ATOM     12  C   UNL     1       5.651   3.413  15.783  0.00  0.00    +0.000 C 
ATOM     13  C   UNL     1       5.579   4.478  16.869  0.00  0.00    +0.000 C 
BRANCH   8  15
ATOM     14  C   UNL     1       7.894   6.962  18.281  0.00  0.00    +0.000 C 
ATOM     15  C   UNL     1       7.049   6.684  17.046  0.00  0.00    +0.000 C 
ENDBRANCH   8  15
ENDBRANCH   7  13
ENDBRANCH   1   7
BRANCH   3  16
ATOM     16  C   UNL     1       2.218   4.498  21.329  0.00  0.00    +0.000 C 
BRANCH  16  17
ATOM     17  C   UNL     1       1.592   3.162  20.943  0.00  0.00    +0.000 C 
BRANCH  17  18
ATOM     18  O   UNL     1       1.449   2.350  22.111  0.00  0.00    +0.000 OA
ATOM     19  H   UNL     1       1.721   1.448  21.857  0.00  0.00    +0.000 HD
ENDBRANCH  17  18
ENDBRANCH  16  17
ENDBRANCH   3  16
TORSDOF 6
ENDMDL
MODEL 4
REMARK VINA RESULT:      -6.2      2.005      6.612
REMARK  Name = 
REMARK  8 active torsions:
REMARK  status: ('A' for Active; 'I' for Inactive)
REMARK    1  A    between atoms: C_1  and  C_2
REMARK    2  A    between atoms: C_2  and  C_3
REMARK    3  A    between atoms: C_8  and  C_9
REMARK    4  A    between atoms: C_9  and  C_10
REMARK    5  A    between atoms: N_12  and  C_13
REMARK    6  A    between atoms: C_13  and  C_14
REMARK    7  A    between atoms: C_14  and  O_15
REMARK    8  A    between atoms: N_17  and  C_18
REMARK                            x       y       z     vdW  Elec       q    Type
REMARK                         _______ _______ _______ _____ _____    ______ ____
ROOT
ATOM      1  C   UNL     1       5.358   4.579  18.088  0.00  0.00    +0.000 A 
ATOM      2  C   UNL     1       4.972   4.365  16.786  0.00  0.00    +0.000 A 
ATOM      3  N   UNL     1       6.134   4.310  16.032  0.00  0.00    +0.000 N 
ATOM      4  C   UNL     1       7.159   4.769  16.763  0.00  0.00    +0.000 A 
ATOM      5  N   UNL     1       6.700   4.983  18.010  0.00  0.00    +0.000 N 
ATOM      6  C   UNL     1       7.498   5.559  19.088  0.00  0.00    +0.000 C 
ENDROOT
BRANCH   1   7
ATOM      7  C   UNL     1       4.605   4.366  19.361  0.00  0.00    +0.000 C 
BRANCH   7  13
ATOM      8  C   UNL     1       2.404   2.940  19.686  0.00  0.00    +0.000 C 
ATOM      9  C   UNL     1       2.375   2.639  21.165  0.00  0.00    +0.000 C 
ATOM     10  O   UNL     1       1.402   2.677  21.897  0.00  0.00    +0.000 OA
ATOM     11  O   UNL     1       3.618   2.258  21.583  0.00  0.00    +0.000 OA
ATOM     12  C   UNL     1       4.451   2.068  20.443  0.00  0.00    +0.000 C 
ATOM     13  C   UNL     1       3.902   2.992  19.364  0.00  0.00    +0.000 C 
BRANCH   8  15
ATOM     14  C   UNL     1       1.361   4.389  17.788  0.00  0.00    +0.000 C 
ATOM     15  C   UNL     1       1.482   4.086  19.274  0.00  0.00    +0.000 C 
ENDBRANCH   8  15
ENDBRANCH   7  13
ENDBRANCH   1   7
BRANCH   3  16
ATOM     16  C   UNL     1       6.272   3.766  14.674  0.00  0.00    +0.000 C 
BRANCH  16  17
ATOM     17  C   UNL     1       6.912   4.759  13.709  0.00  0.00    +0.000 C 
BRANCH  17  18
ATOM     18  O   UNL     1       6.992   4.171  12.407  0.00  0.00    +0.000 OA
ATOM     19  H   UNL     1       6.486   3.336  12.449  0.00  0.00    +0.000 HD
ENDBRANCH  17  18
ENDBRANCH  16  17
ENDBRANCH   3  16
TORSDOF 6
ENDMDL
MODEL 5
REMARK VINA RESULT:      -6.0      1.451      1.613
REMARK  Name = 
REMARK  8 active torsions:
REMARK  status: ('A' for Active; 'I' for Inactive)
REMARK    1  A    between atoms: C_1  and  C_2
REMARK    2  A    between atoms: C_2  and  C_3
REMARK    3  A    between atoms: C_8  and  C_9
REMARK    4  A    between atoms: C_9  and  C_10
REMARK    5  A    between atoms: N_12  and  C_13
REMARK    6  A    between atoms: C_13  and  C_14
REMARK    7  A    between atoms: C_14  and  O_15
REMARK    8  A    between atoms: N_17  and  C_18
REMARK                            x       y       z     vdW  Elec       q    Type
REMARK                         _______ _______ _______ _____ _____    ______ ____
ROOT
ATOM      1  C   UNL     1       3.564   5.379  19.190  0.00  0.00    +0.000 A 
ATOM      2  C   UNL     1       3.425   4.143  19.776  0.00  0.00    +0.000 A 
ATOM      3  N   UNL     1       2.129   4.080  20.263  0.00  0.00    +0.000 N 
ATOM      4  C   UNL     1       1.592   5.307  20.258  0.00  0.00    +0.000 A 
ATOM      5  N   UNL     1       2.468   6.127  19.649  0.00  0.00    +0.000 N 
ATOM      6  C   UNL     1       2.283   7.569  19.513  0.00  0.00    +0.000 C 
ENDROOT
BRANCH   1   7
ATOM      7  C   UNL     1       4.577   5.867  18.205  0.00  0.00    +0.000 C 
BRANCH   7  13
ATOM      8  C   UNL     1       6.917   5.012  17.324  0.00  0.00    +0.000 C 
ATOM      9  C   UNL     1       6.849   5.229  15.832  0.00  0.00    +0.000 C 
ATOM     10  O   UNL     1       7.735   5.667  15.118  0.00  0.00    +0.000 OA
ATOM     11  O   UNL     1       5.639   4.809  15.358  0.00  0.00    +0.000 OA
ATOM     12  C   UNL     1       4.952   4.117  16.396  0.00  0.00    +0.000 C 
ATOM     13  C   UNL     1       5.463   4.707  17.703  0.00  0.00    +0.000 C 
BRANCH   8  15
ATOM     14  C   UNL     1       7.548   7.527  17.585  0.00  0.00    +0.000 C 
ATOM     15  C   UNL     1       7.702   6.092  18.066  0.00  0.00    +0.000 C 
ENDBRANCH   8  15
ENDBRANCH   7  13
ENDBRANCH   1   7
BRANCH   3  16
ATOM     16  C   UNL     1       1.400   2.866  20.656  0.00  0.00    +0.000 C 
BRANCH  16  17
ATOM     17  C   UNL     1       0.645   2.234  19.491  0.00  0.00    +0.000 C 
BRANCH  17  18
ATOM     18  O   UNL     1       1.558   1.478  18.690  0.00  0.00    +0.000 OA
ATOM     19  H   UNL     1       2.450   1.822  18.887  0.00  0.00    +0.000 HD
ENDBRANCH  17  18
ENDBRANCH  16  17
ENDBRANCH   3  16
TORSDOF 6
ENDMDL
MODEL 6
REMARK VINA RESULT:      -6.0      2.126      6.390
REMARK  Name = 
REMARK  8 active torsions:
REMARK  status: ('A' for Active; 'I' for Inactive)
REMARK    1  A    between atoms: C_1  and  C_2
REMARK    2  A    between atoms: C_2  and  C_3
REMARK    3  A    between atoms: C_8  and  C_9
REMARK    4  A    between atoms: C_9  and  C_10
REMARK    5  A    between atoms: N_12  and  C_13
REMARK    6  A    between atoms: C_13  and  C_14
REMARK    7  A    between atoms: C_14  and  O_15
REMARK    8  A    between atoms: N_17  and  C_18
REMARK                            x       y       z     vdW  Elec       q    Type
REMARK                         _______ _______ _______ _____ _____    ______ ____
ROOT
ATOM      1  C   UNL     1       4.479   4.379  17.085  0.00  0.00    +0.000 A 
ATOM      2  C   UNL     1       4.945   3.687  15.992  0.00  0.00    +0.000 A 
ATOM      3  N   UNL     1       5.660   4.592  15.225  0.00  0.00    +0.000 N 
ATOM      4  C   UNL     1       5.399   5.837  15.648  0.00  0.00    +0.000 A 
ATOM      5  N   UNL     1       4.642   5.734  16.756  0.00  0.00    +0.000 N 
ATOM      6  C   UNL     1       4.082   6.876  17.474  0.00  0.00    +0.000 C 
ENDROOT
BRANCH   1   7
ATOM      7  C   UNL     1       3.979   3.875  18.399  0.00  0.00    +0.000 C 
BRANCH   7  13
ATOM      8  C   UNL     1       1.705   4.196  19.708  0.00  0.00    +0.000 C 
ATOM      9  C   UNL     1       1.484   2.869  20.392  0.00  0.00    +0.000 C 
ATOM     10  O   UNL     1       1.092   2.694  21.533  0.00  0.00    +0.000 OA
ATOM     11  O   UNL     1       1.743   1.850  19.520  0.00  0.00    +0.000 OA
ATOM     12  C   UNL     1       1.919   2.393  18.215  0.00  0.00    +0.000 C 
ATOM     13  C   UNL     1       2.437   3.810  18.416  0.00  0.00    +0.000 C 
BRANCH   8  15
ATOM     14  C   UNL     1       1.569   6.624  20.642  0.00  0.00    +0.000 C 
ATOM     15  C   UNL     1       2.272   5.275  20.628  0.00  0.00    +0.000 C 
ENDBRANCH   8  15
ENDBRANCH   7  13
ENDBRANCH   1   7
BRANCH   3  16
ATOM     16  C   UNL     1       6.624   4.272  14.162  0.00  0.00    +0.000 C 
BRANCH  16  17
ATOM     17  C   UNL     1       5.944   3.880  12.855  0.00  0.00    +0.000 C 
BRANCH  17  18
ATOM     18  O   UNL     1       6.381   2.574  12.466  0.00  0.00    +0.000 OA
ATOM     19  H   UNL     1       5.842   1.939  12.975  0.00  0.00    +0.000 HD
ENDBRANCH  17  18
ENDBRANCH  16  17
ENDBRANCH   3  16
TORSDOF 6
ENDMDL
MODEL 7
REMARK VINA RESULT:      -6.0      2.755      6.310
REMARK  Name = 
REMARK  8 active torsions:
REMARK  status: ('A' for Active; 'I' for Inactive)
REMARK    1  A    between atoms: C_1  and  C_2
REMARK    2  A    between atoms: C_2  and  C_3
REMARK    3  A    between atoms: C_8  and  C_9
REMARK    4  A    between atoms: C_9  and  C_10
REMARK    5  A    between atoms: N_12  and  C_13
REMARK    6  A    between atoms: C_13  and  C_14
REMARK    7  A    between atoms: C_14  and  O_15
REMARK    8  A    between atoms: N_17  and  C_18
REMARK                            x       y       z     vdW  Elec       q    Type
REMARK                         _______ _______ _______ _____ _____    ______ ____
ROOT
ATOM      1  C   UNL     1       5.973   4.438  18.319  0.00  0.00    +0.000 A 
ATOM      2  C   UNL     1       6.814   5.234  19.060  0.00  0.00    +0.000 A 
ATOM      3  N   UNL     1       7.419   6.107  18.170  0.00  0.00    +0.000 N 
ATOM      4  C   UNL     1       7.207   5.681  16.917  0.00  0.00    +0.000 A 
ATOM      5  N   UNL     1       6.363   4.635  16.985  0.00  0.00    +0.000 N 
ATOM      6  C   UNL     1       5.948   3.842  15.832  0.00  0.00    +0.000 C 
ENDROOT
BRANCH   1   7
ATOM      7  C   UNL     1       4.820   3.592  18.754  0.00  0.00    +0.000 C 
BRANCH   7  13
ATOM      8  C   UNL     1       2.311   3.798  19.557  0.00  0.00    +0.000 C 
ATOM      9  C   UNL     1       1.507   3.280  18.390  0.00  0.00    +0.000 C 
ATOM     10  O   UNL     1       0.536   2.545  18.442  0.00  0.00    +0.000 OA
ATOM     11  O   UNL     1       1.997   3.800  17.225  0.00  0.00    +0.000 OA
ATOM     12  C   UNL     1       2.949   4.812  17.536  0.00  0.00    +0.000 C 
ATOM     13  C   UNL     1       3.535   4.436  18.890  0.00  0.00    +0.000 C 
BRANCH   8  15
ATOM     14  C   UNL     1       1.392   2.709  21.739  0.00  0.00    +0.000 C 
ATOM     15  C   UNL     1       2.485   2.780  20.683  0.00  0.00    +0.000 C 
ENDBRANCH   8  15
ENDBRANCH   7  13
ENDBRANCH   1   7
BRANCH   3  16
ATOM     16  C   UNL     1       8.121   7.354  18.505  0.00  0.00    +0.000 C 
BRANCH  16  17
ATOM     17  C   UNL     1       7.705   8.518  17.612  0.00  0.00    +0.000 C 
BRANCH  17  18
ATOM     18  O   UNL     1       8.316   9.721  18.085  0.00  0.00    +0.000 OA
ATOM     19  H   UNL     1       9.222   9.482  18.360  0.00  0.00    +0.000 HD
ENDBRANCH  17  18
ENDBRANCH  16  17
ENDBRANCH   3  16
TORSDOF 6
ENDMDL
MODEL 8
REMARK VINA RESULT:      -6.0      1.632      2.288
REMARK  Name = 
REMARK  8 active torsions:
REMARK  status: ('A' for Active; 'I' for Inactive)
REMARK    1  A    between atoms: C_1  and  C_2
REMARK    2  A    between atoms: C_2  and  C_3
REMARK    3  A    between atoms: C_8  and  C_9
REMARK    4  A    between atoms: C_9  and  C_10
REMARK    5  A    between atoms: N_12  and  C_13
REMARK    6  A    between atoms: C_13  and  C_14
REMARK    7  A    between atoms: C_14  and  O_15
REMARK    8  A    between atoms: N_17  and  C_18
REMARK                            x       y       z     vdW  Elec       q    Type
REMARK                         _______ _______ _______ _____ _____    ______ ____
ROOT
ATOM      1  C   UNL     1       3.410   4.897  18.292  0.00  0.00    +0.000 A 
ATOM      2  C   UNL     1       3.213   3.679  18.898  0.00  0.00    +0.000 A 
ATOM      3  N   UNL     1       2.034   3.782  19.620  0.00  0.00    +0.000 N 
ATOM      4  C   UNL     1       1.681   5.071  19.711  0.00  0.00    +0.000 A 
ATOM      5  N   UNL     1       2.533   5.777  18.945  0.00  0.00    +0.000 N 
ATOM      6  C   UNL     1       2.527   7.233  18.842  0.00  0.00    +0.000 C 
ENDROOT
BRANCH   1   7
ATOM      7  C   UNL     1       4.279   5.264  17.133  0.00  0.00    +0.000 C 
BRANCH   7  13
ATOM      8  C   UNL     1       6.864   5.739  16.862  0.00  0.00    +0.000 C 
ATOM      9  C   UNL     1       7.525   4.664  17.690  0.00  0.00    +0.000 C 
ATOM     10  O   UNL     1       8.513   4.016  17.389  0.00  0.00    +0.000 OA
ATOM     11  O   UNL     1       6.878   4.540  18.886  0.00  0.00    +0.000 OA
ATOM     12  C   UNL     1       5.948   5.610  19.022  0.00  0.00    +0.000 C 
ATOM     13  C   UNL     1       5.549   6.001  17.606  0.00  0.00    +0.000 C 
BRANCH   8  15
ATOM     14  C   UNL     1       6.316   4.098  14.913  0.00  0.00    +0.000 C 
ATOM     15  C   UNL     1       6.862   5.445  15.363  0.00  0.00    +0.000 C 
ENDBRANCH   8  15
ENDBRANCH   7  13
ENDBRANCH   1   7
BRANCH   3  16
ATOM     16  C   UNL     1       1.230   2.671  20.147  0.00  0.00    +0.000 C 
BRANCH  16  17
ATOM     17  C   UNL     1       1.369   2.513  21.658  0.00  0.00    +0.000 C 
BRANCH  17  18
ATOM     18  O   UNL     1       2.754   2.542  22.012  0.00  0.00    +0.000 OA
ATOM     19  H   UNL     1       3.146   3.300  21.537  0.00  0.00    +0.000 HD
ENDBRANCH  17  18
ENDBRANCH  16  17
ENDBRANCH   3  16
TORSDOF 6
ENDMDL
MODEL 9
REMARK VINA RESULT:      -5.9      1.946      6.281
REMARK  Name = 
REMARK  8 active torsions:
REMARK  status: ('A' for Active; 'I' for Inactive)
REMARK    1  A    between atoms: C_1  and  C_2
REMARK    2  A    between atoms: C_2  and  C_3
REMARK    3  A    between atoms: C_8  and  C_9
REMARK    4  A    between atoms: C_9  and  C_10
REMARK    5  A    between atoms: N_12  and  C_13
REMARK    6  A    between atoms: C_13  and  C_14
REMARK    7  A    between atoms: C_14  and  O_15
REMARK    8  A    between atoms: N_17  and  C_18
REMARK                            x       y       z     vdW  Elec       q    Type
REMARK                         _______ _______ _______ _____ _____    ______ ____
ROOT
ATOM      1  C   UNL     1       5.418   4.882  18.044  0.00  0.00    +0.000 A 
ATOM      2  C   UNL     1       5.176   4.973  16.694  0.00  0.00    +0.000 A 
ATOM      3  N   UNL     1       6.410   5.107  16.078  0.00  0.00    +0.000 N 
ATOM      4  C   UNL     1       7.338   5.393  17.002  0.00  0.00    +0.000 A 
ATOM      5  N   UNL     1       6.746   5.306  18.207  0.00  0.00    +0.000 N 
ATOM      6  C   UNL     1       7.407   5.623  19.470  0.00  0.00    +0.000 C 
ENDROOT
BRANCH   1   7
ATOM      7  C   UNL     1       4.545   4.371  19.144  0.00  0.00    +0.000 C 
BRANCH   7  13
ATOM      8  C   UNL     1       1.932   4.353  19.542  0.00  0.00    +0.000 C 
ATOM      9  C   UNL     1       1.671   3.024  20.208  0.00  0.00    +0.000 C 
ATOM     10  O   UNL     1       0.925   2.814  21.149  0.00  0.00    +0.000 OA
ATOM     11  O   UNL     1       2.367   2.040  19.565  0.00  0.00    +0.000 OA
ATOM     12  C   UNL     1       2.921   2.573  18.366  0.00  0.00    +0.000 C 
ATOM     13  C   UNL     1       3.125   4.060  18.624  0.00  0.00    +0.000 C 
BRANCH   8  15
ATOM     14  C   UNL     1       2.136   6.922  19.923  0.00  0.00    +0.000 C 
ATOM     15  C   UNL     1       1.972   5.530  20.514  0.00  0.00    +0.000 C 
ENDBRANCH   8  15
ENDBRANCH   7  13
ENDBRANCH   1   7
BRANCH   3  16
ATOM     16  C   UNL     1       6.707   4.896  14.654  0.00  0.00    +0.000 C 
BRANCH  16  17
ATOM     17  C   UNL     1       5.709   3.960  13.981  0.00  0.00    +0.000 C 
BRANCH  17  18
ATOM     18  O   UNL     1       6.387   3.169  13.001  0.00  0.00    +0.000 OA
ATOM     19  H   UNL     1       5.708   2.611  12.577  0.00  0.00    +0.000 HD
ENDBRANCH  17  18
ENDBRANCH  16  17
ENDBRANCH   3  16
TORSDOF 6
ENDMDL
