MODEL 1
REMARK VINA RESULT:      -7.6      0.000      0.000
REMARK  Name = 
REMARK  10 active torsions:
REMARK  status: ('A' for Active; 'I' for Inactive)
REMARK    1  A    between atoms: C_1  and  O_2
REMARK    2  A    between atoms: O_2  and  C_3
REMARK    3  A    between atoms: C_5  and  C_6
REMARK    4  A    between atoms: C_8  and  C_9
REMARK    5  A    between atoms: C_15  and  C_16
REMARK    6  A    between atoms: C_16  and  C_17
REMARK    7  A    between atoms: C_16  and  C_18
REMARK    8  A    between atoms: C_21  and  O_22
REMARK    9  A    between atoms: O_22  and  C_23
REMARK   10  A    between atoms: C_24  and  O_25
REMARK                            x       y       z     vdW  Elec       q    Type
REMARK                         _______ _______ _______ _____ _____    ______ ____
ROOT
ATOM      1  C   UNL     1       2.543   7.398  18.600  0.00  0.00    +0.000 A 
ATOM      2  N   UNL     1       2.009   8.461  18.021  0.00  0.00    +0.000 NA
ATOM      3  C   UNL     1       1.335   9.155  19.009  0.00  0.00    +0.000 A 
ATOM      4  C   UNL     1       1.443   8.499  20.230  0.00  0.00    +0.000 A 
ATOM      5  N   UNL     1       2.193   7.390  19.918  0.00  0.00    +0.000 N 
ATOM      6  H   UNL     1       2.420   6.634  20.560  0.00  0.00    +0.000 HD
ENDROOT
BRANCH   1   9
ATOM      7  C   UNL     1       3.786   4.055  17.258  0.00  0.00    +0.000 A 
ATOM      8  C   UNL     1       2.957   5.042  17.826  0.00  0.00    +0.000 A 
ATOM      9  C   UNL     1       3.376   6.372  17.943  0.00  0.00    +0.000 A 
ATOM     10  C   UNL     1       4.638   6.705  17.436  0.00  0.00    +0.000 A 
ATOM     11  C   UNL     1       5.497   5.741  16.874  0.00  0.00    +0.000 A 
ATOM     12  C   UNL     1       5.073   4.404  16.810  0.00  0.00    +0.000 A 
BRANCH   7  14
ATOM     13  C   UNL     1       3.378   1.924  18.297  0.00  0.00    +0.000 C 
ATOM     14  O   UNL     1       3.182   2.821  17.211  0.00  0.00    +0.000 OA
ENDBRANCH   7  14
BRANCH  11  15
ATOM     15  O   UNL     1       6.663   6.285  16.403  0.00  0.00    +0.000 OA
ATOM     16  C   UNL     1       7.497   7.039  17.268  0.00  0.00    +0.000 C 
ENDBRANCH  11  15
BRANCH  12  17
ATOM     17  O   UNL     1       5.894   3.420  16.333  0.00  0.00    +0.000 OA
ATOM     18  H   UNL     1       5.472   2.568  16.510  0.00  0.00    +0.000 HD
ENDBRANCH  12  17
ENDBRANCH   1   9
BRANCH   3  19
ATOM     19  C   UNL     1       0.639  10.400  18.722  0.00  0.00    +0.000 A 
ATOM     20  C   UNL     1       1.345  11.610  18.721  0.00  0.00    +0.000 A 
ATOM     21  C   UNL     1       0.665  12.830  18.618  0.00  0.00    +0.000 A 
ATOM     22  C   UNL     1      -0.722  12.841  18.484  0.00  0.00    +0.000 A 
ATOM     23  C   UNL     1      -1.428  11.646  18.426  0.00  0.00    +0.000 A 
ATOM     24  C   UNL     1      -0.750  10.431  18.552  0.00  0.00    +0.000 A 
ENDBRANCH   3  19
BRANCH   4  25
ATOM     25  C   UNL     1       0.872   8.747  21.607  0.00  0.00    +0.000 C 
ATOM     26  C   UNL     1       1.078  10.200  22.034  0.00  0.00    +0.000 C 
ATOM     27  C   UNL     1      -0.613   8.395  21.746  0.00  0.00    +0.000 C 
ENDBRANCH   4  25
TORSDOF 6
ENDMDL
MODEL 2
REMARK VINA RESULT:      -7.6      0.316      2.566
REMARK  Name = 
REMARK  10 active torsions:
REMARK  status: ('A' for Active; 'I' for Inactive)
REMARK    1  A    between atoms: C_1  and  O_2
REMARK    2  A    between atoms: O_2  and  C_3
REMARK    3  A    between atoms: C_5  and  C_6
REMARK    4  A    between atoms: C_8  and  C_9
REMARK    5  A    between atoms: C_15  and  C_16
REMARK    6  A    between atoms: C_16  and  C_17
REMARK    7  A    between atoms: C_16  and  C_18
REMARK    8  A    between atoms: C_21  and  O_22
REMARK    9  A    between atoms: O_22  and  C_23
REMARK   10  A    between atoms: C_24  and  O_25
REMARK                            x       y       z     vdW  Elec       q    Type
REMARK                         _______ _______ _______ _____ _____    ______ ____
ROOT
ATOM      1  C   UNL     1       2.704   7.214  18.667  0.00  0.00    +0.000 A 
ATOM      2  N   UNL     1       2.153   8.262  18.077  0.00  0.00    +0.000 NA
ATOM      3  C   UNL     1       1.417   8.921  19.044  0.00  0.00    +0.000 A 
ATOM      4  C   UNL     1       1.504   8.258  20.263  0.00  0.00    +0.000 A 
ATOM      5  N   UNL     1       2.306   7.180  19.970  0.00  0.00    +0.000 N 
ATOM      6  H   UNL     1       2.537   6.427  20.615  0.00  0.00    +0.000 HD
ENDROOT
BRANCH   1   9
ATOM      7  C   UNL     1       5.647   5.653  16.816  0.00  0.00    +0.000 A 
ATOM      8  C   UNL     1       4.830   6.590  17.478  0.00  0.00    +0.000 A 
ATOM      9  C   UNL     1       3.598   6.225  18.034  0.00  0.00    +0.000 A 
ATOM     10  C   UNL     1       3.218   4.881  17.948  0.00  0.00    +0.000 A 
ATOM     11  C   UNL     1       4.005   3.920  17.282  0.00  0.00    +0.000 A 
ATOM     12  C   UNL     1       5.214   4.320  16.693  0.00  0.00    +0.000 A 
BRANCH   7  14
ATOM     13  C   UNL     1       7.541   7.079  17.227  0.00  0.00    +0.000 C 
ATOM     14  O   UNL     1       6.824   6.203  16.366  0.00  0.00    +0.000 OA
ENDBRANCH   7  14
BRANCH  11  15
ATOM     15  O   UNL     1       3.470   2.661  17.353  0.00  0.00    +0.000 OA
ATOM     16  C   UNL     1       3.322   2.020  18.609  0.00  0.00    +0.000 C 
ENDBRANCH  11  15
BRANCH  12  17
ATOM     17  O   UNL     1       5.982   3.441  15.980  0.00  0.00    +0.000 OA
ATOM     18  H   UNL     1       6.837   3.861  15.813  0.00  0.00    +0.000 HD
ENDBRANCH  12  17
ENDBRANCH   1   9
BRANCH   3  19
ATOM     19  C   UNL     1       0.687  10.142  18.741  0.00  0.00    +0.000 A 
ATOM     20  C   UNL     1       1.274  11.388  18.998  0.00  0.00    +0.000 A 
ATOM     21  C   UNL     1       0.525  12.566  18.876  0.00  0.00    +0.000 A 
ATOM     22  C   UNL     1      -0.805  12.502  18.465  0.00  0.00    +0.000 A 
ATOM     23  C   UNL     1      -1.381  11.277  18.150  0.00  0.00    +0.000 A 
ATOM     24  C   UNL     1      -0.639  10.102  18.296  0.00  0.00    +0.000 A 
ENDBRANCH   3  19
BRANCH   4  25
ATOM     25  C   UNL     1       0.874   8.472  21.620  0.00  0.00    +0.000 C 
ATOM     26  C   UNL     1       1.414   9.739  22.283  0.00  0.00    +0.000 C 
ATOM     27  C   UNL     1      -0.657   8.539  21.599  0.00  0.00    +0.000 C 
ENDBRANCH   4  25
TORSDOF 6
ENDMDL
MODEL 3
REMARK VINA RESULT:      -7.5      0.397      1.031
REMARK  Name = 
REMARK  10 active torsions:
REMARK  status: ('A' for Active; 'I' for Inactive)
REMARK    1  A    between atoms: C_1  and  O_2
REMARK    2  A    between atoms: O_2  and  C_3
REMARK    3  A    between atoms: C_5  and  C_6
REMARK    4  A    between atoms: C_8  and  C_9
REMARK    5  A    between atoms: C_15  and  C_16
REMARK    6  A    between atoms: C_16  and  C_17
REMARK    7  A    between atoms: C_16  and  C_18
REMARK    8  A    between atoms: C_21  and  O_22
REMARK    9  A    between atoms: O_22  and  C_23
REMARK   10  A    between atoms: C_24  and  O_25
REMARK                            x       y       z     vdW  Elec       q    Type
REMARK                         _______ _______ _______ _____ _____    ______ ____
ROOT
ATOM      1  C   UNL     1       2.556   7.316  18.712  0.00  0.00    +0.000 A 
ATOM      2  N   UNL     1       2.001   8.401  18.196  0.00  0.00    +0.000 NA
ATOM      3  C   UNL     1       1.311   9.020  19.221  0.00  0.00    +0.000 A 
ATOM      4  C   UNL     1       1.430   8.294  20.402  0.00  0.00    +0.000 A 
ATOM      5  N   UNL     1       2.204   7.222  20.026  0.00  0.00    +0.000 N 
ATOM      6  H   UNL     1       2.445   6.434  20.622  0.00  0.00    +0.000 HD
ENDROOT
BRANCH   1   9
ATOM      7  C   UNL     1       3.901   4.074  17.229  0.00  0.00    +0.000 A 
ATOM      8  C   UNL     1       3.048   5.005  17.853  0.00  0.00    +0.000 A 
ATOM      9  C   UNL     1       3.411   6.349  17.998  0.00  0.00    +0.000 A 
ATOM     10  C   UNL     1       4.639   6.753  17.461  0.00  0.00    +0.000 A 
ATOM     11  C   UNL     1       5.522   5.846  16.843  0.00  0.00    +0.000 A 
ATOM     12  C   UNL     1       5.155   4.494  16.751  0.00  0.00    +0.000 A 
BRANCH   7  14
ATOM     13  C   UNL     1       2.186   2.539  17.931  0.00  0.00    +0.000 C 
ATOM     14  O   UNL     1       3.350   2.816  17.162  0.00  0.00    +0.000 OA
ENDBRANCH   7  14
BRANCH  11  15
ATOM     15  O   UNL     1       6.646   6.456  16.352  0.00  0.00    +0.000 OA
ATOM     16  C   UNL     1       7.510   7.164  17.226  0.00  0.00    +0.000 C 
ENDBRANCH  11  15
BRANCH  12  17
ATOM     17  O   UNL     1       6.003   3.563  16.217  0.00  0.00    +0.000 OA
ATOM     18  H   UNL     1       6.385   3.935  15.410  0.00  0.00    +0.000 HD
ENDBRANCH  12  17
ENDBRANCH   1   9
BRANCH   3  19
ATOM     19  C   UNL     1       0.589  10.265  19.008  0.00  0.00    +0.000 A 
ATOM     20  C   UNL     1      -0.717  10.236  18.501  0.00  0.00    +0.000 A 
ATOM     21  C   UNL     1      -1.362  11.423  18.128  0.00  0.00    +0.000 A 
ATOM     22  C   UNL     1      -0.712  12.645  18.291  0.00  0.00    +0.000 A 
ATOM     23  C   UNL     1       0.561  12.691  18.846  0.00  0.00    +0.000 A 
ATOM     24  C   UNL     1       1.210  11.505  19.195  0.00  0.00    +0.000 A 
ENDBRANCH   3  19
BRANCH   4  25
ATOM     25  C   UNL     1       0.852   8.448  21.789  0.00  0.00    +0.000 C 
ATOM     26  C   UNL     1       1.481   9.635  22.518  0.00  0.00    +0.000 C 
ATOM     27  C   UNL     1      -0.673   8.597  21.823  0.00  0.00    +0.000 C 
ENDBRANCH   4  25
TORSDOF 6
ENDMDL
MODEL 4
REMARK VINA RESULT:      -7.4      3.395      7.502
REMARK  Name = 
REMARK  10 active torsions:
REMARK  status: ('A' for Active; 'I' for Inactive)
REMARK    1  A    between atoms: C_1  and  O_2
REMARK    2  A    between atoms: O_2  and  C_3
REMARK    3  A    between atoms: C_5  and  C_6
REMARK    4  A    between atoms: C_8  and  C_9
REMARK    5  A    between atoms: C_15  and  C_16
REMARK    6  A    between atoms: C_16  and  C_17
REMARK    7  A    between atoms: C_16  and  C_18
REMARK    8  A    between atoms: C_21  and  O_22
REMARK    9  A    between atoms: O_22  and  C_23
REMARK   10  A    between atoms: C_24  and  O_25
REMARK                            x       y       z     vdW  Elec       q    Type
REMARK                         _______ _______ _______ _____ _____    ______ ____
ROOT
ATOM      1  C   UNL     1       2.533   6.600  19.519  0.00  0.00    +0.000 A 
ATOM      2  N   UNL     1       3.517   6.524  18.639  0.00  0.00    +0.000 NA
ATOM      3  C   UNL     1       3.954   5.212  18.644  0.00  0.00    +0.000 A 
ATOM      4  C   UNL     1       3.230   4.457  19.561  0.00  0.00    +0.000 A 
ATOM      5  N   UNL     1       2.363   5.379  20.100  0.00  0.00    +0.000 N 
ATOM      6  H   UNL     1       1.715   5.199  20.864  0.00  0.00    +0.000 HD
ENDROOT
BRANCH   1   9
ATOM      7  C   UNL     1       0.137   9.004  21.251  0.00  0.00    +0.000 A 
ATOM      8  C   UNL     1       0.941   7.879  20.987  0.00  0.00    +0.000 A 
ATOM      9  C   UNL     1       1.741   7.803  19.841  0.00  0.00    +0.000 A 
ATOM     10  C   UNL     1       1.751   8.907  18.980  0.00  0.00    +0.000 A 
ATOM     11  C   UNL     1       0.949  10.042  19.207  0.00  0.00    +0.000 A 
ATOM     12  C   UNL     1       0.120  10.075  20.339  0.00  0.00    +0.000 A 
BRANCH   7  14
ATOM     13  C   UNL     1      -0.059   9.586  23.578  0.00  0.00    +0.000 C 
ATOM     14  O   UNL     1      -0.551   8.894  22.437  0.00  0.00    +0.000 OA
ENDBRANCH   7  14
BRANCH  11  15
ATOM     15  O   UNL     1       1.142  11.021  18.268  0.00  0.00    +0.000 OA
ATOM     16  C   UNL     1       2.080  12.058  18.503  0.00  0.00    +0.000 C 
ENDBRANCH  11  15
BRANCH  12  17
ATOM     17  O   UNL     1      -0.725  11.125  20.572  0.00  0.00    +0.000 OA
ATOM     18  H   UNL     1      -1.431  11.091  19.911  0.00  0.00    +0.000 HD
ENDBRANCH  12  17
ENDBRANCH   1   9
BRANCH   3  19
ATOM     19  C   UNL     1       5.029   4.765  17.771  0.00  0.00    +0.000 A 
ATOM     20  C   UNL     1       6.362   4.901  18.180  0.00  0.00    +0.000 A 
ATOM     21  C   UNL     1       7.410   4.638  17.288  0.00  0.00    +0.000 A 
ATOM     22  C   UNL     1       7.126   4.208  15.993  0.00  0.00    +0.000 A 
ATOM     23  C   UNL     1       5.809   4.014  15.594  0.00  0.00    +0.000 A 
ATOM     24  C   UNL     1       4.766   4.299  16.478  0.00  0.00    +0.000 A 
ENDBRANCH   3  19
BRANCH   4  25
ATOM     25  C   UNL     1       3.308   3.024  20.033  0.00  0.00    +0.000 C 
ATOM     26  C   UNL     1       2.505   2.824  21.319  0.00  0.00    +0.000 C 
ATOM     27  C   UNL     1       2.846   1.994  18.996  0.00  0.00    +0.000 C 
ENDBRANCH   4  25
TORSDOF 6
ENDMDL
MODEL 5
REMARK VINA RESULT:      -7.4      3.584      7.932
REMARK  Name = 
REMARK  10 active torsions:
REMARK  status: ('A' for Active; 'I' for Inactive)
REMARK    1  A    between atoms: C_1  and  O_2
REMARK    2  A    between atoms: O_2  and  C_3
REMARK    3  A    between atoms: C_5  and  C_6
REMARK    4  A    between atoms: C_8  and  C_9
REMARK    5  A    between atoms: C_15  and  C_16
REMARK    6  A    between atoms: C_16  and  C_17
REMARK    7  A    between atoms: C_16  and  C_18
REMARK    8  A    between atoms: C_21  and  O_22
REMARK    9  A    between atoms: O_22  and  C_23
REMARK   10  A    between atoms: C_24  and  O_25
REMARK                            x       y       z     vdW  Elec       q    Type
REMARK                         _______ _______ _______ _____ _____    ______ ____
ROOT
ATOM      1  C   UNL     1       2.269   7.809  18.579  0.00  0.00    +0.000 A 
ATOM      2  N   UNL     1       2.146   6.513  18.815  0.00  0.00    +0.000 NA
ATOM      3  C   UNL     1       3.217   5.893  18.198  0.00  0.00    +0.000 A 
ATOM      4  C   UNL     1       4.020   6.828  17.553  0.00  0.00    +0.000 A 
ATOM      5  N   UNL     1       3.371   8.014  17.804  0.00  0.00    +0.000 N 
ATOM      6  H   UNL     1       3.638   8.920  17.426  0.00  0.00    +0.000 HD
ENDROOT
BRANCH   1   9
ATOM      7  C   UNL     1       0.412  10.222  20.870  0.00  0.00    +0.000 A 
ATOM      8  C   UNL     1       1.323   9.253  20.407  0.00  0.00    +0.000 A 
ATOM      9  C   UNL     1       1.368   8.873  19.061  0.00  0.00    +0.000 A 
ATOM     10  C   UNL     1       0.503   9.522  18.172  0.00  0.00    +0.000 A 
ATOM     11  C   UNL     1      -0.430  10.487  18.603  0.00  0.00    +0.000 A 
ATOM     12  C   UNL     1      -0.487  10.817  19.966  0.00  0.00    +0.000 A 
BRANCH   7  14
ATOM     13  C   UNL     1      -0.183   9.666  23.134  0.00  0.00    +0.000 C 
ATOM     14  O   UNL     1       0.545  10.472  22.216  0.00  0.00    +0.000 OA
ENDBRANCH   7  14
BRANCH  11  15
ATOM     15  O   UNL     1      -1.147  11.025  17.568  0.00  0.00    +0.000 OA
ATOM     16  C   UNL     1      -2.175  10.270  16.947  0.00  0.00    +0.000 C 
ENDBRANCH  11  15
BRANCH  12  17
ATOM     17  O   UNL     1      -1.416  11.698  20.445  0.00  0.00    +0.000 OA
ATOM     18  H   UNL     1      -1.767  11.341  21.273  0.00  0.00    +0.000 HD
ENDBRANCH  12  17
ENDBRANCH   1   9
BRANCH   3  19
ATOM     19  C   UNL     1       3.405   4.452  18.271  0.00  0.00    +0.000 A 
ATOM     20  C   UNL     1       2.625   3.606  17.473  0.00  0.00    +0.000 A 
ATOM     21  C   UNL     1       2.670   2.217  17.653  0.00  0.00    +0.000 A 
ATOM     22  C   UNL     1       3.521   1.670  18.611  0.00  0.00    +0.000 A 
ATOM     23  C   UNL     1       4.344   2.496  19.369  0.00  0.00    +0.000 A 
ATOM     24  C   UNL     1       4.279   3.881  19.203  0.00  0.00    +0.000 A 
ENDBRANCH   3  19
BRANCH   4  25
ATOM     25  C   UNL     1       5.252   6.729  16.685  0.00  0.00    +0.000 C 
ATOM     26  C   UNL     1       6.505   6.511  17.533  0.00  0.00    +0.000 C 
ATOM     27  C   UNL     1       5.182   5.635  15.614  0.00  0.00    +0.000 C 
ENDBRANCH   4  25
TORSDOF 6
ENDMDL
MODEL 6
REMARK VINA RESULT:      -7.3      3.592      7.943
REMARK  Name = 
REMARK  10 active torsions:
REMARK  status: ('A' for Active; 'I' for Inactive)
REMARK    1  A    between atoms: C_1  and  O_2
REMARK    2  A    between atoms: O_2  and  C_3
REMARK    3  A    between atoms: C_5  and  C_6
REMARK    4  A    between atoms: C_8  and  C_9
REMARK    5  A    between atoms: C_15  and  C_16
REMARK    6  A    between atoms: C_16  and  C_17
REMARK    7  A    between atoms: C_16  and  C_18
REMARK    8  A    between atoms: C_21  and  O_22
REMARK    9  A    between atoms: O_22  and  C_23
REMARK   10  A    between atoms: C_24  and  O_25
REMARK                            x       y       z     vdW  Elec       q    Type
REMARK                         _______ _______ _______ _____ _____    ______ ____
ROOT
ATOM      1  C   UNL     1       2.252   7.781  18.616  0.00  0.00    +0.000 A 
ATOM      2  N   UNL     1       2.132   6.483  18.840  0.00  0.00    +0.000 NA
ATOM      3  C   UNL     1       3.214   5.874  18.232  0.00  0.00    +0.000 A 
ATOM      4  C   UNL     1       4.020   6.818  17.603  0.00  0.00    +0.000 A 
ATOM      5  N   UNL     1       3.362   7.999  17.855  0.00  0.00    +0.000 N 
ATOM      6  H   UNL     1       3.629   8.909  17.488  0.00  0.00    +0.000 HD
ENDROOT
BRANCH   1   9
ATOM      7  C   UNL     1      -0.330  10.583  18.680  0.00  0.00    +0.000 A 
ATOM      8  C   UNL     1       0.489   9.531  18.226  0.00  0.00    +0.000 A 
ATOM      9  C   UNL     1       1.339   8.837  19.095  0.00  0.00    +0.000 A 
ATOM     10  C   UNL     1       1.320   9.195  20.448  0.00  0.00    +0.000 A 
ATOM     11  C   UNL     1       0.523  10.250  20.933  0.00  0.00    +0.000 A 
ATOM     12  C   UNL     1      -0.287  10.961  20.034  0.00  0.00    +0.000 A 
BRANCH   7  14
ATOM     13  C   UNL     1      -2.087  10.289  17.062  0.00  0.00    +0.000 C 
ATOM     14  O   UNL     1      -1.108  11.116  17.679  0.00  0.00    +0.000 OA
ENDBRANCH   7  14
BRANCH  11  15
ATOM     15  O   UNL     1       0.622  10.405  22.291  0.00  0.00    +0.000 OA
ATOM     16  C   UNL     1      -0.253   9.697  23.154  0.00  0.00    +0.000 C 
ENDBRANCH  11  15
BRANCH  12  17
ATOM     17  O   UNL     1      -1.030  12.034  20.442  0.00  0.00    +0.000 OA
ATOM     18  H   UNL     1      -0.756  12.802  19.921  0.00  0.00    +0.000 HD
ENDBRANCH  12  17
ENDBRANCH   1   9
BRANCH   3  19
ATOM     19  C   UNL     1       3.410   4.434  18.295  0.00  0.00    +0.000 A 
ATOM     20  C   UNL     1       2.676   3.592  17.449  0.00  0.00    +0.000 A 
ATOM     21  C   UNL     1       2.723   2.202  17.614  0.00  0.00    +0.000 A 
ATOM     22  C   UNL     1       3.530   1.648  18.606  0.00  0.00    +0.000 A 
ATOM     23  C   UNL     1       4.307   2.469  19.413  0.00  0.00    +0.000 A 
ATOM     24  C   UNL     1       4.240   3.857  19.262  0.00  0.00    +0.000 A 
ENDBRANCH   3  19
BRANCH   4  25
ATOM     25  C   UNL     1       5.263   6.732  16.750  0.00  0.00    +0.000 C 
ATOM     26  C   UNL     1       6.494   6.419  17.601  0.00  0.00    +0.000 C 
ATOM     27  C   UNL     1       5.176   5.711  15.610  0.00  0.00    +0.000 C 
ENDBRANCH   4  25
TORSDOF 6
ENDMDL
MODEL 7
REMARK VINA RESULT:      -7.3      3.478      7.667
REMARK  Name = 
REMARK  10 active torsions:
REMARK  status: ('A' for Active; 'I' for Inactive)
REMARK    1  A    between atoms: C_1  and  O_2
REMARK    2  A    between atoms: O_2  and  C_3
REMARK    3  A    between atoms: C_5  and  C_6
REMARK    4  A    between atoms: C_8  and  C_9
REMARK    5  A    between atoms: C_15  and  C_16
REMARK    6  A    between atoms: C_16  and  C_17
REMARK    7  A    between atoms: C_16  and  C_18
REMARK    8  A    between atoms: C_21  and  O_22
REMARK    9  A    between atoms: O_22  and  C_23
REMARK   10  A    between atoms: C_24  and  O_25
REMARK                            x       y       z     vdW  Elec       q    Type
REMARK                         _______ _______ _______ _____ _____    ______ ____
ROOT
ATOM      1  C   UNL     1       2.515   6.738  19.499  0.00  0.00    +0.000 A 
ATOM      2  N   UNL     1       3.502   6.631  18.624  0.00  0.00    +0.000 NA
ATOM      3  C   UNL     1       3.913   5.311  18.648  0.00  0.00    +0.000 A 
ATOM      4  C   UNL     1       3.170   4.582  19.570  0.00  0.00    +0.000 A 
ATOM      5  N   UNL     1       2.319   5.527  20.094  0.00  0.00    +0.000 N 
ATOM      6  H   UNL     1       1.664   5.369  20.856  0.00  0.00    +0.000 HD
ENDROOT
BRANCH   1   9
ATOM      7  C   UNL     1       0.474   9.929  19.087  0.00  0.00    +0.000 A 
ATOM      8  C   UNL     1       1.149   8.728  18.796  0.00  0.00    +0.000 A 
ATOM      9  C   UNL     1       1.746   7.960  19.802  0.00  0.00    +0.000 A 
ATOM     10  C   UNL     1       1.614   8.402  21.123  0.00  0.00    +0.000 A 
ATOM     11  C   UNL     1       0.957   9.606  21.449  0.00  0.00    +0.000 A 
ATOM     12  C   UNL     1       0.407  10.382  20.418  0.00  0.00    +0.000 A 
BRANCH   7  14
ATOM     13  C   UNL     1      -1.382  10.161  17.574  0.00  0.00    +0.000 C 
ATOM     14  O   UNL     1      -0.063  10.519  17.967  0.00  0.00    +0.000 OA
ENDBRANCH   7  14
BRANCH  11  15
ATOM     15  O   UNL     1       0.906   9.829  22.800  0.00  0.00    +0.000 OA
ATOM     16  C   UNL     1      -0.269   9.515  23.529  0.00  0.00    +0.000 C 
ENDBRANCH  11  15
BRANCH  12  17
ATOM     17  O   UNL     1      -0.184  11.588  20.674  0.00  0.00    +0.000 OA
ATOM     18  H   UNL     1      -0.375  11.630  21.622  0.00  0.00    +0.000 HD
ENDBRANCH  12  17
ENDBRANCH   1   9
BRANCH   3  19
ATOM     19  C   UNL     1       4.983   4.834  17.785  0.00  0.00    +0.000 A 
ATOM     20  C   UNL     1       6.317   4.963  18.192  0.00  0.00    +0.000 A 
ATOM     21  C   UNL     1       7.362   4.668  17.307  0.00  0.00    +0.000 A 
ATOM     22  C   UNL     1       7.074   4.213  16.022  0.00  0.00    +0.000 A 
ATOM     23  C   UNL     1       5.756   4.025  15.626  0.00  0.00    +0.000 A 
ATOM     24  C   UNL     1       4.715   4.342  16.503  0.00  0.00    +0.000 A 
ENDBRANCH   3  19
BRANCH   4  25
ATOM     25  C   UNL     1       3.217   3.154  20.059  0.00  0.00    +0.000 C 
ATOM     26  C   UNL     1       2.392   2.981  21.334  0.00  0.00    +0.000 C 
ATOM     27  C   UNL     1       2.756   2.119  19.026  0.00  0.00    +0.000 C 
ENDBRANCH   4  25
TORSDOF 6
ENDMDL
MODEL 8
REMARK VINA RESULT:      -7.2      0.755      1.000
REMARK  Name = 
REMARK  10 active torsions:
REMARK  status: ('A' for Active; 'I' for Inactive)
REMARK    1  A    between atoms: C_1  and  O_2
REMARK    2  A    between atoms: O_2  and  C_3
REMARK    3  A    between atoms: C_5  and  C_6
REMARK    4  A    between atoms: C_8  and  C_9
REMARK    5  A    between atoms: C_15  and  C_16
REMARK    6  A    between atoms: C_16  and  C_17
REMARK    7  A    between atoms: C_16  and  C_18
REMARK    8  A    between atoms: C_21  and  O_22
REMARK    9  A    between atoms: O_22  and  C_23
REMARK   10  A    between atoms: C_24  and  O_25
REMARK                            x       y       z     vdW  Elec       q    Type
REMARK                         _______ _______ _______ _____ _____    ______ ____
ROOT
ATOM      1  C   UNL     1       2.218   7.666  18.686  0.00  0.00    +0.000 A 
ATOM      2  N   UNL     1       1.836   8.767  18.059  0.00  0.00    +0.000 NA
ATOM      3  C   UNL     1       1.225   9.571  19.003  0.00  0.00    +0.000 A 
ATOM      4  C   UNL     1       1.217   8.947  20.247  0.00  0.00    +0.000 A 
ATOM      5  N   UNL     1       1.833   7.745  19.991  0.00  0.00    +0.000 N 
ATOM      6  H   UNL     1       1.947   6.989  20.663  0.00  0.00    +0.000 HD
ENDROOT
BRANCH   1   9
ATOM      7  C   UNL     1       3.041   4.173  17.406  0.00  0.00    +0.000 A 
ATOM      8  C   UNL     1       2.329   5.275  17.916  0.00  0.00    +0.000 A 
ATOM      9  C   UNL     1       2.936   6.525  18.087  0.00  0.00    +0.000 A 
ATOM     10  C   UNL     1       4.272   6.659  17.693  0.00  0.00    +0.000 A 
ATOM     11  C   UNL     1       5.018   5.574  17.191  0.00  0.00    +0.000 A 
ATOM     12  C   UNL     1       4.400   4.319  17.073  0.00  0.00    +0.000 A 
BRANCH   7  14
ATOM     13  C   UNL     1       1.870   2.363  18.475  0.00  0.00    +0.000 C 
ATOM     14  O   UNL     1       2.261   3.047  17.290  0.00  0.00    +0.000 OA
ENDBRANCH   7  14
BRANCH  11  15
ATOM     15  O   UNL     1       6.290   5.932  16.828  0.00  0.00    +0.000 OA
ATOM     16  C   UNL     1       7.353   5.824  17.761  0.00  0.00    +0.000 C 
ENDBRANCH  11  15
BRANCH  12  17
ATOM     17  O   UNL     1       5.098   3.221  16.652  0.00  0.00    +0.000 OA
ATOM     18  H   UNL     1       4.529   2.446  16.765  0.00  0.00    +0.000 HD
ENDBRANCH  12  17
ENDBRANCH   1   9
BRANCH   3  19
ATOM     19  C   UNL     1       0.696  10.881  18.657  0.00  0.00    +0.000 A 
ATOM     20  C   UNL     1       1.544  11.996  18.653  0.00  0.00    +0.000 A 
ATOM     21  C   UNL     1       1.022  13.286  18.492  0.00  0.00    +0.000 A 
ATOM     22  C   UNL     1      -0.348  13.461  18.303  0.00  0.00    +0.000 A 
ATOM     23  C   UNL     1      -1.192  12.358  18.248  0.00  0.00    +0.000 A 
ATOM     24  C   UNL     1      -0.671  11.075  18.432  0.00  0.00    +0.000 A 
ENDBRANCH   3  19
BRANCH   4  25
ATOM     25  C   UNL     1       0.643   9.310  21.596  0.00  0.00    +0.000 C 
ATOM     26  C   UNL     1      -0.594   8.468  21.912  0.00  0.00    +0.000 C 
ATOM     27  C   UNL     1       1.636   9.185  22.757  0.00  0.00    +0.000 C 
ENDBRANCH   4  25
TORSDOF 6
ENDMDL
MODEL 9
REMARK VINA RESULT:      -7.2      3.627      7.595
REMARK  Name = 
REMARK  10 active torsions:
REMARK  status: ('A' for Active; 'I' for Inactive)
REMARK    1  A    between atoms: C_1  and  O_2
REMARK    2  A    between atoms: O_2  and  C_3
REMARK    3  A    between atoms: C_5  and  C_6
REMARK    4  A    between atoms: C_8  and  C_9
REMARK    5  A    between atoms: C_15  and  C_16
REMARK    6  A    between atoms: C_16  and  C_17
REMARK    7  A    between atoms: C_16  and  C_18
REMARK    8  A    between atoms: C_21  and  O_22
REMARK    9  A    between atoms: O_22  and  C_23
REMARK   10  A    between atoms: C_24  and  O_25
REMARK                            x       y       z     vdW  Elec       q    Type
REMARK                         _______ _______ _______ _____ _____    ______ ____
ROOT
ATOM      1  C   UNL     1       2.329   7.059  19.609  0.00  0.00    +0.000 A 
ATOM      2  N   UNL     1       3.364   6.924  18.797  0.00  0.00    +0.000 NA
ATOM      3  C   UNL     1       3.781   5.610  18.899  0.00  0.00    +0.000 A 
ATOM      4  C   UNL     1       2.992   4.914  19.809  0.00  0.00    +0.000 A 
ATOM      5  N   UNL     1       2.107   5.873  20.244  0.00  0.00    +0.000 N 
ATOM      6  H   UNL     1       1.411   5.742  20.974  0.00  0.00    +0.000 HD
ENDROOT
BRANCH   1   9
ATOM      7  C   UNL     1       0.540   9.976  21.286  0.00  0.00    +0.000 A 
ATOM      8  C   UNL     1       1.353   8.843  21.088  0.00  0.00    +0.000 A 
ATOM      9  C   UNL     1       1.536   8.286  19.817  0.00  0.00    +0.000 A 
ATOM     10  C   UNL     1       0.916   8.919  18.733  0.00  0.00    +0.000 A 
ATOM     11  C   UNL     1       0.086  10.045  18.897  0.00  0.00    +0.000 A 
ATOM     12  C   UNL     1      -0.120  10.557  20.188  0.00  0.00    +0.000 A 
BRANCH   7  14
ATOM     13  C   UNL     1      -0.063   9.514  23.569  0.00  0.00    +0.000 C 
ATOM     14  O   UNL     1       0.511  10.382  22.599  0.00  0.00    +0.000 OA
ENDBRANCH   7  14
BRANCH  11  15
ATOM     15  O   UNL     1      -0.385  10.530  17.706  0.00  0.00    +0.000 OA
ATOM     16  C   UNL     1      -1.680  10.171  17.253  0.00  0.00    +0.000 C 
ENDBRANCH  11  15
BRANCH  12  17
ATOM     17  O   UNL     1      -0.966  11.608  20.408  0.00  0.00    +0.000 OA
ATOM     18  H   UNL     1      -0.896  11.857  21.341  0.00  0.00    +0.000 HD
ENDBRANCH  12  17
ENDBRANCH   1   9
BRANCH   3  19
ATOM     19  C   UNL     1       4.901   5.105  18.119  0.00  0.00    +0.000 A 
ATOM     20  C   UNL     1       6.207   5.239  18.606  0.00  0.00    +0.000 A 
ATOM     21  C   UNL     1       7.305   4.917  17.797  0.00  0.00    +0.000 A 
ATOM     22  C   UNL     1       7.096   4.430  16.509  0.00  0.00    +0.000 A 
ATOM     23  C   UNL     1       5.804   4.238  16.035  0.00  0.00    +0.000 A 
ATOM     24  C   UNL     1       4.712   4.582  16.835  0.00  0.00    +0.000 A 
ENDBRANCH   3  19
BRANCH   4  25
ATOM     25  C   UNL     1       3.021   3.508  20.360  0.00  0.00    +0.000 C 
ATOM     26  C   UNL     1       2.174   3.397  21.628  0.00  0.00    +0.000 C 
ATOM     27  C   UNL     1       2.567   2.433  19.367  0.00  0.00    +0.000 C 
ENDBRANCH   4  25
TORSDOF 6
ENDMDL
