MODEL 1
REMARK VINA RESULT:      -7.7      0.000      0.000
REMARK  Name = 
REMARK  7 active torsions:
REMARK  status: ('A' for Active; 'I' for Inactive)
REMARK    1  A    between atoms: C_1  and  C_2
REMARK    2  A    between atoms: C_2  and  N_3
REMARK    3  A    between atoms: C_5  and  C_6
REMARK    4  A    between atoms: C_19  and  N_20
REMARK    5  A    between atoms: N_20  and  C_21
REMARK    6  A    between atoms: C_21  and  C_22
REMARK    7  A    between atoms: C_22  and  C_23
REMARK                            x       y       z     vdW  Elec       q    Type
REMARK                         _______ _______ _______ _____ _____    ______ ____
ROOT
ATOM      1  N   UNL     1      -0.581  11.627  21.908  0.00  0.00    +0.000 N 
ATOM      2  N   UNL     1      -0.448  12.860  21.374  0.00  0.00    +0.000 NA
ATOM      3  C   UNL     1       0.260  12.685  20.238  0.00  0.00    +0.000 A 
ATOM      4  C   UNL     1       0.565  11.307  20.068  0.00  0.00    +0.000 A 
ATOM      5  C   UNL     1       0.005  10.658  21.144  0.00  0.00    +0.000 A 
ATOM      6  C   UNL     1       0.036   9.192  21.378  0.00  0.00    +0.000 C 
ATOM      7  C   UNL     1       1.132   8.538  20.501  0.00  0.00    +0.000 C 
ATOM      8  C   UNL     1       1.149   9.077  19.040  0.00  0.00    +0.000 C 
ATOM      9  C   UNL     1       1.365  10.618  19.022  0.00  0.00    +0.000 C 
ENDROOT
BRANCH   3  10
ATOM     10  C   UNL     1       0.605  13.772  19.287  0.00  0.00    +0.000 C 
ATOM     11  O   UNL     1      -0.069  13.926  18.265  0.00  0.00    +0.000 OA
ATOM     12  N   UNL     1       1.709  14.612  19.552  0.00  0.00    +0.000 N 
ATOM     13  C   UNL     1       1.924  15.757  18.671  0.00  0.00    +0.000 C 
ATOM     14  C   UNL     1       3.046  15.533  17.659  0.00  0.00    +0.000 C 
ATOM     15  C   UNL     1       4.444  15.797  18.214  0.00  0.00    +0.000 C 
ATOM     16  C   UNL     1       4.846  14.916  19.392  0.00  0.00    +0.000 C 
ATOM     17  C   UNL     1       3.968  15.118  20.623  0.00  0.00    +0.000 C 
ATOM     18  C   UNL     1       2.685  14.293  20.590  0.00  0.00    +0.000 C 
ENDBRANCH   3  10
BRANCH   1  20
ATOM     19  C   UNL     1      -2.680  12.079  23.121  0.00  0.00    +0.000 C 
ATOM     20  C   UNL     1      -1.282  11.486  23.169  0.00  0.00    +0.000 C 
ENDBRANCH   1  20
BRANCH   8  21
ATOM     21  N   UNL     1       2.208   8.468  18.203  0.00  0.00    +0.000 NA
ATOM     22  H   UNL     1       1.780   8.126  17.340  0.00  0.00    +0.000 HD
BRANCH  21  23
ATOM     23  C   UNL     1       2.911   7.352  18.845  0.00  0.00    +0.000 C 
BRANCH  23  24
ATOM     24  C   UNL     1       2.596   6.023  18.133  0.00  0.00    +0.000 C 
BRANCH  24  25
ATOM     25  C   UNL     1       2.155   4.955  19.104  0.00  0.00    +0.000 A 
ATOM     26  C   UNL     1       2.534   5.013  20.452  0.00  0.00    +0.000 A 
ATOM     27  C   UNL     1       2.099   4.034  21.352  0.00  0.00    +0.000 A 
ATOM     28  C   UNL     1       1.286   2.988  20.915  0.00  0.00    +0.000 A 
ATOM     29  C   UNL     1       0.904   2.921  19.578  0.00  0.00    +0.000 A 
ATOM     30  C   UNL     1       1.336   3.901  18.686  0.00  0.00    +0.000 A 
ATOM     31  F   UNL     1       0.951   3.821  17.404  0.00  0.00    +0.000 F 
ENDBRANCH  24  25
ENDBRANCH  23  24
ENDBRANCH  21  23
ENDBRANCH   8  21
TORSDOF 6
ENDMDL
MODEL 2
REMARK VINA RESULT:      -7.3      4.286      8.270
REMARK  Name = 
REMARK  7 active torsions:
REMARK  status: ('A' for Active; 'I' for Inactive)
REMARK    1  A    between atoms: C_1  and  C_2
REMARK    2  A    between atoms: C_2  and  N_3
REMARK    3  A    between atoms: C_5  and  C_6
REMARK    4  A    between atoms: C_19  and  N_20
REMARK    5  A    between atoms: N_20  and  C_21
REMARK    6  A    between atoms: C_21  and  C_22
REMARK    7  A    between atoms: C_22  and  C_23
REMARK                            x       y       z     vdW  Elec       q    Type
REMARK                         _______ _______ _______ _____ _____    ______ ____
ROOT
ATOM      1  N   UNL     1       3.149   4.695  18.816  0.00  0.00    +0.000 N 
ATOM      2  N   UNL     1       2.221   5.676  18.811  0.00  0.00    +0.000 NA
ATOM      3  C   UNL     1       2.865   6.778  18.371  0.00  0.00    +0.000 A 
ATOM      4  C   UNL     1       4.223   6.463  18.092  0.00  0.00    +0.000 A 
ATOM      5  C   UNL     1       4.369   5.124  18.376  0.00  0.00    +0.000 A 
ATOM      6  C   UNL     1       5.616   4.337  18.203  0.00  0.00    +0.000 C 
ATOM      7  C   UNL     1       6.831   5.289  18.077  0.00  0.00    +0.000 C 
ATOM      8  C   UNL     1       6.561   6.504  17.142  0.00  0.00    +0.000 C 
ATOM      9  C   UNL     1       5.343   7.332  17.647  0.00  0.00    +0.000 C 
ENDROOT
BRANCH   3  10
ATOM     10  C   UNL     1       2.220   8.098  18.154  0.00  0.00    +0.000 C 
ATOM     11  O   UNL     1       2.481   8.744  17.136  0.00  0.00    +0.000 OA
ATOM     12  N   UNL     1       1.327   8.609  19.120  0.00  0.00    +0.000 N 
ATOM     13  C   UNL     1       0.604   9.838  18.801  0.00  0.00    +0.000 C 
ATOM     14  C   UNL     1       1.182  11.071  19.493  0.00  0.00    +0.000 C 
ATOM     15  C   UNL     1       0.705  11.257  20.931  0.00  0.00    +0.000 C 
ATOM     16  C   UNL     1       1.060  10.117  21.879  0.00  0.00    +0.000 C 
ATOM     17  C   UNL     1       0.414   8.789  21.496  0.00  0.00    +0.000 C 
ATOM     18  C   UNL     1       1.208   8.014  20.448  0.00  0.00    +0.000 C 
ENDBRANCH   3  10
BRANCH   1  20
ATOM     19  C   UNL     1       1.344   3.343  19.812  0.00  0.00    +0.000 C 
ATOM     20  C   UNL     1       2.764   3.375  19.276  0.00  0.00    +0.000 C 
ENDBRANCH   1  20
BRANCH   8  21
ATOM     21  N   UNL     1       7.714   7.427  17.033  0.00  0.00    +0.000 NA
ATOM     22  H   UNL     1       8.516   6.998  17.499  0.00  0.00    +0.000 HD
BRANCH  21  23
ATOM     23  C   UNL     1       7.483   8.747  17.630  0.00  0.00    +0.000 C 
BRANCH  23  24
ATOM     24  C   UNL     1       8.706   9.202  18.447  0.00  0.00    +0.000 C 
BRANCH  24  25
ATOM     25  C   UNL     1       8.933  10.690  18.341  0.00  0.00    +0.000 A 
ATOM     26  C   UNL     1       8.103  11.485  17.539  0.00  0.00    +0.000 A 
ATOM     27  C   UNL     1       8.303  12.867  17.465  0.00  0.00    +0.000 A 
ATOM     28  C   UNL     1       9.333  13.469  18.189  0.00  0.00    +0.000 A 
ATOM     29  C   UNL     1      10.163  12.688  18.989  0.00  0.00    +0.000 A 
ATOM     30  C   UNL     1       9.958  11.312  19.061  0.00  0.00    +0.000 A 
ATOM     31  F   UNL     1      10.765  10.580  19.842  0.00  0.00    +0.000 F 
ENDBRANCH  24  25
ENDBRANCH  23  24
ENDBRANCH  21  23
ENDBRANCH   8  21
TORSDOF 6
ENDMDL
MODEL 3
REMARK VINA RESULT:      -7.3      1.048      1.361
REMARK  Name = 
REMARK  7 active torsions:
REMARK  status: ('A' for Active; 'I' for Inactive)
REMARK    1  A    between atoms: C_1  and  C_2
REMARK    2  A    between atoms: C_2  and  N_3
REMARK    3  A    between atoms: C_5  and  C_6
REMARK    4  A    between atoms: C_19  and  N_20
REMARK    5  A    between atoms: N_20  and  C_21
REMARK    6  A    between atoms: C_21  and  C_22
REMARK    7  A    between atoms: C_22  and  C_23
REMARK                            x       y       z     vdW  Elec       q    Type
REMARK                         _______ _______ _______ _____ _____    ______ ____
ROOT
ATOM      1  N   UNL     1      -0.755  12.169  21.968  0.00  0.00    +0.000 N 
ATOM      2  N   UNL     1      -0.588  13.418  21.481  0.00  0.00    +0.000 NA
ATOM      3  C   UNL     1       0.171  13.273  20.374  0.00  0.00    +0.000 A 
ATOM      4  C   UNL     1       0.473  11.899  20.172  0.00  0.00    +0.000 A 
ATOM      5  C   UNL     1      -0.141  11.220  21.200  0.00  0.00    +0.000 A 
ATOM      6  C   UNL     1      -0.132   9.747  21.386  0.00  0.00    +0.000 C 
ATOM      7  C   UNL     1       0.998   9.112  20.539  0.00  0.00    +0.000 C 
ATOM      8  C   UNL     1       1.086   9.698  19.099  0.00  0.00    +0.000 C 
ATOM      9  C   UNL     1       1.314  11.237  19.142  0.00  0.00    +0.000 C 
ENDROOT
BRANCH   3  10
ATOM     10  C   UNL     1       0.568  14.388  19.477  0.00  0.00    +0.000 C 
ATOM     11  O   UNL     1      -0.163  14.700  18.532  0.00  0.00    +0.000 OA
ATOM     12  N   UNL     1       1.782  15.071  19.702  0.00  0.00    +0.000 N 
ATOM     13  C   UNL     1       2.063  16.252  18.889  0.00  0.00    +0.000 C 
ATOM     14  C   UNL     1       3.066  15.985  17.768  0.00  0.00    +0.000 C 
ATOM     15  C   UNL     1       4.525  16.042  18.215  0.00  0.00    +0.000 C 
ATOM     16  C   UNL     1       4.910  15.028  19.287  0.00  0.00    +0.000 C 
ATOM     17  C   UNL     1       4.164  15.228  20.602  0.00  0.00    +0.000 C 
ATOM     18  C   UNL     1       2.792  14.560  20.624  0.00  0.00    +0.000 C 
ENDBRANCH   3  10
BRANCH   1  20
ATOM     19  C   UNL     1      -2.999  12.240  22.987  0.00  0.00    +0.000 C 
ATOM     20  C   UNL     1      -1.514  11.993  23.190  0.00  0.00    +0.000 C 
ENDBRANCH   1  20
BRANCH   8  21
ATOM     21  N   UNL     1       2.178   9.107  18.292  0.00  0.00    +0.000 NA
ATOM     22  H   UNL     1       2.326   9.696  17.470  0.00  0.00    +0.000 HD
BRANCH  21  23
ATOM     23  C   UNL     1       1.914   7.737  17.839  0.00  0.00    +0.000 C 
BRANCH  23  24
ATOM     24  C   UNL     1       2.873   6.741  18.516  0.00  0.00    +0.000 C 
BRANCH  24  25
ATOM     25  C   UNL     1       2.189   5.436  18.844  0.00  0.00    +0.000 A 
ATOM     26  C   UNL     1       2.012   4.454  17.860  0.00  0.00    +0.000 A 
ATOM     27  C   UNL     1       1.401   3.236  18.177  0.00  0.00    +0.000 A 
ATOM     28  C   UNL     1       0.960   2.987  19.477  0.00  0.00    +0.000 A 
ATOM     29  C   UNL     1       1.132   3.956  20.462  0.00  0.00    +0.000 A 
ATOM     30  C   UNL     1       1.744   5.166  20.142  0.00  0.00    +0.000 A 
ATOM     31  F   UNL     1       1.905   6.083  21.108  0.00  0.00    +0.000 F 
ENDBRANCH  24  25
ENDBRANCH  23  24
ENDBRANCH  21  23
ENDBRANCH   8  21
TORSDOF 6
ENDMDL
MODEL 4
REMARK VINA RESULT:      -7.2      4.884      7.631
REMARK  Name = 
REMARK  7 active torsions:
REMARK  status: ('A' for Active; 'I' for Inactive)
REMARK    1  A    between atoms: C_1  and  C_2
REMARK    2  A    between atoms: C_2  and  N_3
REMARK    3  A    between atoms: C_5  and  C_6
REMARK    4  A    between atoms: C_19  and  N_20
REMARK    5  A    between atoms: N_20  and  C_21
REMARK    6  A    between atoms: C_21  and  C_22
REMARK    7  A    between atoms: C_22  and  C_23
REMARK                            x       y       z     vdW  Elec       q    Type
REMARK                         _______ _______ _______ _____ _____    ______ ____
ROOT
ATOM      1  N   UNL     1       3.138   4.767  19.514  0.00  0.00    +0.000 N 
ATOM      2  N   UNL     1       2.405   5.897  19.605  0.00  0.00    +0.000 NA
ATOM      3  C   UNL     1       2.819   6.679  18.585  0.00  0.00    +0.000 A 
ATOM      4  C   UNL     1       3.830   6.008  17.845  0.00  0.00    +0.000 A 
ATOM      5  C   UNL     1       4.003   4.787  18.456  0.00  0.00    +0.000 A 
ATOM      6  C   UNL     1       4.937   3.723  18.009  0.00  0.00    +0.000 C 
ATOM      7  C   UNL     1       5.991   4.316  17.041  0.00  0.00    +0.000 C 
ATOM      8  C   UNL     1       5.378   5.283  15.986  0.00  0.00    +0.000 C 
ATOM      9  C   UNL     1       4.637   6.462  16.683  0.00  0.00    +0.000 C 
ENDROOT
BRANCH   3  10
ATOM     10  C   UNL     1       2.249   8.011  18.262  0.00  0.00    +0.000 C 
ATOM     11  O   UNL     1       2.585   8.582  17.221  0.00  0.00    +0.000 OA
ATOM     12  N   UNL     1       1.338   8.619  19.153  0.00  0.00    +0.000 N 
ATOM     13  C   UNL     1       0.690   9.857  18.728  0.00  0.00    +0.000 C 
ATOM     14  C   UNL     1       1.294  11.103  19.373  0.00  0.00    +0.000 C 
ATOM     15  C   UNL     1       0.762  11.397  20.774  0.00  0.00    +0.000 C 
ATOM     16  C   UNL     1       1.019  10.301  21.803  0.00  0.00    +0.000 C 
ATOM     17  C   UNL     1       0.329   8.983  21.467  0.00  0.00    +0.000 C 
ATOM     18  C   UNL     1       1.132   8.111  20.506  0.00  0.00    +0.000 C 
ENDBRANCH   3  10
BRANCH   1  20
ATOM     19  C   UNL     1       1.567   3.795  21.146  0.00  0.00    +0.000 C 
ATOM     20  C   UNL     1       2.942   3.727  20.504  0.00  0.00    +0.000 C 
ENDBRANCH   1  20
BRANCH   8  21
ATOM     21  N   UNL     1       6.384   5.867  15.071  0.00  0.00    +0.000 NA
ATOM     22  H   UNL     1       5.897   6.443  14.381  0.00  0.00    +0.000 HD
BRANCH  21  23
ATOM     23  C   UNL     1       7.192   4.873  14.357  0.00  0.00    +0.000 C 
BRANCH  23  24
ATOM     24  C   UNL     1       7.037   5.031  12.833  0.00  0.00    +0.000 C 
BRANCH  24  25
ATOM     25  C   UNL     1       6.762   3.711  12.155  0.00  0.00    +0.000 A 
ATOM     26  C   UNL     1       7.805   2.972  11.578  0.00  0.00    +0.000 A 
ATOM     27  C   UNL     1       7.548   1.738  10.974  0.00  0.00    +0.000 A 
ATOM     28  C   UNL     1       6.249   1.229  10.937  0.00  0.00    +0.000 A 
ATOM     29  C   UNL     1       5.206   1.955  11.506  0.00  0.00    +0.000 A 
ATOM     30  C   UNL     1       5.468   3.183  12.110  0.00  0.00    +0.000 A 
ATOM     31  F   UNL     1       4.450   3.863  12.658  0.00  0.00    +0.000 F 
ENDBRANCH  24  25
ENDBRANCH  23  24
ENDBRANCH  21  23
ENDBRANCH   8  21
TORSDOF 6
ENDMDL
MODEL 5
REMARK VINA RESULT:      -7.2      7.226      9.416
REMARK  Name = 
REMARK  7 active torsions:
REMARK  status: ('A' for Active; 'I' for Inactive)
REMARK    1  A    between atoms: C_1  and  C_2
REMARK    2  A    between atoms: C_2  and  N_3
REMARK    3  A    between atoms: C_5  and  C_6
REMARK    4  A    between atoms: C_19  and  N_20
REMARK    5  A    between atoms: N_20  and  C_21
REMARK    6  A    between atoms: C_21  and  C_22
REMARK    7  A    between atoms: C_22  and  C_23
REMARK                            x       y       z     vdW  Elec       q    Type
REMARK                         _______ _______ _______ _____ _____    ______ ____
ROOT
ATOM      1  N   UNL     1       5.348  14.953  19.106  0.00  0.00    +0.000 N 
ATOM      2  N   UNL     1       4.965  14.915  20.401  0.00  0.00    +0.000 NA
ATOM      3  C   UNL     1       6.083  15.169  21.114  0.00  0.00    +0.000 A 
ATOM      4  C   UNL     1       7.180  15.375  20.235  0.00  0.00    +0.000 A 
ATOM      5  C   UNL     1       6.676  15.241  18.961  0.00  0.00    +0.000 A 
ATOM      6  C   UNL     1       7.452  15.408  17.706  0.00  0.00    +0.000 C 
ATOM      7  C   UNL     1       8.969  15.324  18.004  0.00  0.00    +0.000 C 
ATOM      8  C   UNL     1       9.389  16.126  19.271  0.00  0.00    +0.000 C 
ATOM      9  C   UNL     1       8.616  15.623  20.525  0.00  0.00    +0.000 C 
ENDROOT
BRANCH   3  10
ATOM     10  C   UNL     1       6.127  15.276  22.595  0.00  0.00    +0.000 C 
ATOM     11  O   UNL     1       5.991  16.380  23.130  0.00  0.00    +0.000 OA
ATOM     12  N   UNL     1       6.340  14.120  23.376  0.00  0.00    +0.000 N 
ATOM     13  C   UNL     1       6.230  14.246  24.827  0.00  0.00    +0.000 C 
ATOM     14  C   UNL     1       7.586  14.293  25.530  0.00  0.00    +0.000 C 
ATOM     15  C   UNL     1       8.206  12.920  25.775  0.00  0.00    +0.000 C 
ATOM     16  C   UNL     1       8.485  12.106  24.516  0.00  0.00    +0.000 C 
ATOM     17  C   UNL     1       7.224  11.754  23.733  0.00  0.00    +0.000 C 
ATOM     18  C   UNL     1       6.778  12.860  22.782  0.00  0.00    +0.000 C 
ENDBRANCH   3  10
BRANCH   1  20
ATOM     19  C   UNL     1       3.624  15.942  17.648  0.00  0.00    +0.000 C 
ATOM     20  C   UNL     1       4.362  14.686  18.079  0.00  0.00    +0.000 C 
ENDBRANCH   1  20
BRANCH   8  21
ATOM     21  N   UNL     1      10.835  16.033  19.571  0.00  0.00    +0.000 NA
ATOM     22  H   UNL     1      11.340  15.911  18.690  0.00  0.00    +0.000 HD
BRANCH  21  23
ATOM     23  C   UNL     1      11.192  14.927  20.466  0.00  0.00    +0.000 C 
BRANCH  23  24
ATOM     24  C   UNL     1      11.852  13.778  19.683  0.00  0.00    +0.000 C 
BRANCH  24  25
ATOM     25  C   UNL     1      10.941  12.581  19.565  0.00  0.00    +0.000 A 
ATOM     26  C   UNL     1      10.367  12.003  20.705  0.00  0.00    +0.000 A 
ATOM     27  C   UNL     1       9.503  10.909  20.586  0.00  0.00    +0.000 A 
ATOM     28  C   UNL     1       9.205  10.381  19.330  0.00  0.00    +0.000 A 
ATOM     29  C   UNL     1       9.771  10.947  18.190  0.00  0.00    +0.000 A 
ATOM     30  C   UNL     1      10.629  12.038  18.314  0.00  0.00    +0.000 A 
ATOM     31  F   UNL     1      11.157  12.572  17.203  0.00  0.00    +0.000 F 
ENDBRANCH  24  25
ENDBRANCH  23  24
ENDBRANCH  21  23
ENDBRANCH   8  21
TORSDOF 6
ENDMDL
MODEL 6
REMARK VINA RESULT:      -7.1      1.972      2.671
REMARK  Name = 
REMARK  7 active torsions:
REMARK  status: ('A' for Active; 'I' for Inactive)
REMARK    1  A    between atoms: C_1  and  C_2
REMARK    2  A    between atoms: C_2  and  N_3
REMARK    3  A    between atoms: C_5  and  C_6
REMARK    4  A    between atoms: C_19  and  N_20
REMARK    5  A    between atoms: N_20  and  C_21
REMARK    6  A    between atoms: C_21  and  C_22
REMARK    7  A    between atoms: C_22  and  C_23
REMARK                            x       y       z     vdW  Elec       q    Type
REMARK                         _______ _______ _______ _____ _____    ______ ____
ROOT
ATOM      1  N   UNL     1      -0.695  11.601  21.966  0.00  0.00    +0.000 N 
ATOM      2  N   UNL     1      -0.545  12.804  21.371  0.00  0.00    +0.000 NA
ATOM      3  C   UNL     1       0.208  12.572  20.275  0.00  0.00    +0.000 A 
ATOM      4  C   UNL     1       0.523  11.189  20.191  0.00  0.00    +0.000 A 
ATOM      5  C   UNL     1      -0.077  10.595  21.278  0.00  0.00    +0.000 A 
ATOM      6  C   UNL     1      -0.051   9.144  21.591  0.00  0.00    +0.000 C 
ATOM      7  C   UNL     1       1.080   8.449  20.793  0.00  0.00    +0.000 C 
ATOM      8  C   UNL     1       1.153   8.909  19.308  0.00  0.00    +0.000 C 
ATOM      9  C   UNL     1       1.365  10.448  19.215  0.00  0.00    +0.000 C 
ENDROOT
BRANCH   3  10
ATOM     10  C   UNL     1       0.588  13.609  19.282  0.00  0.00    +0.000 C 
ATOM     11  O   UNL     1      -0.022  13.679  18.211  0.00  0.00    +0.000 OA
ATOM     12  N   UNL     1       1.650  14.495  19.563  0.00  0.00    +0.000 N 
ATOM     13  C   UNL     1       1.893  15.590  18.627  0.00  0.00    +0.000 C 
ATOM     14  C   UNL     1       3.085  15.338  17.706  0.00  0.00    +0.000 C 
ATOM     15  C   UNL     1       4.436  15.676  18.331  0.00  0.00    +0.000 C 
ATOM     16  C   UNL     1       4.781  14.882  19.586  0.00  0.00    +0.000 C 
ATOM     17  C   UNL     1       3.820  15.133  20.743  0.00  0.00    +0.000 C 
ATOM     18  C   UNL     1       2.563  14.270  20.680  0.00  0.00    +0.000 C 
ENDBRANCH   3  10
BRANCH   1  20
ATOM     19  C   UNL     1      -2.822  12.152  23.084  0.00  0.00    +0.000 C 
ATOM     20  C   UNL     1      -1.444  11.524  23.204  0.00  0.00    +0.000 C 
ENDBRANCH   1  20
BRANCH   8  21
ATOM     21  N   UNL     1       2.245   8.261  18.546  0.00  0.00    +0.000 NA
ATOM     22  H   UNL     1       1.957   8.188  17.568  0.00  0.00    +0.000 HD
BRANCH  21  23
ATOM     23  C   UNL     1       2.598   6.922  19.028  0.00  0.00    +0.000 C 
BRANCH  23  24
ATOM     24  C   UNL     1       3.227   6.082  17.901  0.00  0.00    +0.000 C 
BRANCH  24  25
ATOM     25  C   UNL     1       4.731   6.025  18.013  0.00  0.00    +0.000 A 
ATOM     26  C   UNL     1       5.344   5.501  19.160  0.00  0.00    +0.000 A 
ATOM     27  C   UNL     1       6.738   5.427  19.247  0.00  0.00    +0.000 A 
ATOM     28  C   UNL     1       7.534   5.877  18.193  0.00  0.00    +0.000 A 
ATOM     29  C   UNL     1       6.935   6.400  17.050  0.00  0.00    +0.000 A 
ATOM     30  C   UNL     1       5.546   6.468  16.967  0.00  0.00    +0.000 A 
ATOM     31  F   UNL     1       4.990   6.969  15.854  0.00  0.00    +0.000 F 
ENDBRANCH  24  25
ENDBRANCH  23  24
ENDBRANCH  21  23
ENDBRANCH   8  21
TORSDOF 6
ENDMDL
MODEL 7
REMARK VINA RESULT:      -7.1      4.822      8.829
REMARK  Name = 
REMARK  7 active torsions:
REMARK  status: ('A' for Active; 'I' for Inactive)
REMARK    1  A    between atoms: C_1  and  C_2
REMARK    2  A    between atoms: C_2  and  N_3
REMARK    3  A    between atoms: C_5  and  C_6
REMARK    4  A    between atoms: C_19  and  N_20
REMARK    5  A    between atoms: N_20  and  C_21
REMARK    6  A    between atoms: C_21  and  C_22
REMARK    7  A    between atoms: C_22  and  C_23
REMARK                            x       y       z     vdW  Elec       q    Type
REMARK                         _______ _______ _______ _____ _____    ______ ____
ROOT
ATOM      1  N   UNL     1       3.863   4.536  17.818  0.00  0.00    +0.000 N 
ATOM      2  N   UNL     1       2.836   5.413  17.835  0.00  0.00    +0.000 NA
ATOM      3  C   UNL     1       3.406   6.633  17.925  0.00  0.00    +0.000 A 
ATOM      4  C   UNL     1       4.821   6.502  17.960  0.00  0.00    +0.000 A 
ATOM      5  C   UNL     1       5.081   5.153  17.879  0.00  0.00    +0.000 A 
ATOM      6  C   UNL     1       6.430   4.536  17.844  0.00  0.00    +0.000 C 
ATOM      7  C   UNL     1       7.490   5.550  18.339  0.00  0.00    +0.000 C 
ATOM      8  C   UNL     1       7.292   6.978  17.753  0.00  0.00    +0.000 C 
ATOM      9  C   UNL     1       5.882   7.532  18.112  0.00  0.00    +0.000 C 
ENDROOT
BRANCH   3  10
ATOM     10  C   UNL     1       2.654   7.914  17.924  0.00  0.00    +0.000 C 
ATOM     11  O   UNL     1       2.840   8.729  17.016  0.00  0.00    +0.000 OA
ATOM     12  N   UNL     1       1.746   8.195  18.967  0.00  0.00    +0.000 N 
ATOM     13  C   UNL     1       0.921   9.396  18.849  0.00  0.00    +0.000 C 
ATOM     14  C   UNL     1       1.415  10.550  19.719  0.00  0.00    +0.000 C 
ATOM     15  C   UNL     1       0.957  10.472  21.174  0.00  0.00    +0.000 C 
ATOM     16  C   UNL     1       1.422   9.232  21.929  0.00  0.00    +0.000 C 
ATOM     17  C   UNL     1       0.875   7.931  21.350  0.00  0.00    +0.000 C 
ATOM     18  C   UNL     1       1.704   7.395  20.187  0.00  0.00    +0.000 C 
ENDBRANCH   3  10
BRANCH   1  20
ATOM     19  C   UNL     1       3.305   2.523  19.128  0.00  0.00    +0.000 C 
ATOM     20  C   UNL     1       3.568   3.119  17.756  0.00  0.00    +0.000 C 
ENDBRANCH   1  20
BRANCH   8  21
ATOM     21  N   UNL     1       8.292   7.956  18.239  0.00  0.00    +0.000 NA
ATOM     22  H   UNL     1       8.059   8.204  19.203  0.00  0.00    +0.000 HD
BRANCH  21  23
ATOM     23  C   UNL     1       8.360   9.188  17.446  0.00  0.00    +0.000 C 
BRANCH  23  24
ATOM     24  C   UNL     1       8.224  10.429  18.348  0.00  0.00    +0.000 C 
BRANCH  24  25
ATOM     25  C   UNL     1       9.569  11.013  18.708  0.00  0.00    +0.000 A 
ATOM     26  C   UNL     1      10.474  11.394  17.708  0.00  0.00    +0.000 A 
ATOM     27  C   UNL     1      11.708  11.958  18.047  0.00  0.00    +0.000 A 
ATOM     28  C   UNL     1      12.051  12.146  19.386  0.00  0.00    +0.000 A 
ATOM     29  C   UNL     1      11.159  11.771  20.388  0.00  0.00    +0.000 A 
ATOM     30  C   UNL     1       9.930  11.212  20.044  0.00  0.00    +0.000 A 
ATOM     31  F   UNL     1       9.083  10.864  21.024  0.00  0.00    +0.000 F 
ENDBRANCH  24  25
ENDBRANCH  23  24
ENDBRANCH  21  23
ENDBRANCH   8  21
TORSDOF 6
ENDMDL
MODEL 8
REMARK VINA RESULT:      -7.1      1.851      2.470
REMARK  Name = 
REMARK  7 active torsions:
REMARK  status: ('A' for Active; 'I' for Inactive)
REMARK    1  A    between atoms: C_1  and  C_2
REMARK    2  A    between atoms: C_2  and  N_3
REMARK    3  A    between atoms: C_5  and  C_6
REMARK    4  A    between atoms: C_19  and  N_20
REMARK    5  A    between atoms: N_20  and  C_21
REMARK    6  A    between atoms: C_21  and  C_22
REMARK    7  A    between atoms: C_22  and  C_23
REMARK                            x       y       z     vdW  Elec       q    Type
REMARK                         _______ _______ _______ _____ _____    ______ ____
ROOT
ATOM      1  N   UNL     1      -0.540  11.962  21.794  0.00  0.00    +0.000 N 
ATOM      2  N   UNL     1      -0.372  13.255  21.441  0.00  0.00    +0.000 NA
ATOM      3  C   UNL     1       0.324  13.224  20.284  0.00  0.00    +0.000 A 
ATOM      4  C   UNL     1       0.584  11.876  19.914  0.00  0.00    +0.000 A 
ATOM      5  C   UNL     1       0.010  11.096  20.892  0.00  0.00    +0.000 A 
ATOM      6  C   UNL     1      -0.004   9.612  20.913  0.00  0.00    +0.000 C 
ATOM      7  C   UNL     1       1.065   9.057  19.939  0.00  0.00    +0.000 C 
ATOM      8  C   UNL     1       1.090   9.800  18.571  0.00  0.00    +0.000 C 
ATOM      9  C   UNL     1       1.354  11.320  18.772  0.00  0.00    +0.000 C 
ENDROOT
BRANCH   3  10
ATOM     10  C   UNL     1       0.697  14.425  19.495  0.00  0.00    +0.000 C 
ATOM     11  O   UNL     1      -0.059  14.832  18.608  0.00  0.00    +0.000 OA
ATOM     12  N   UNL     1       1.918  15.084  19.756  0.00  0.00    +0.000 N 
ATOM     13  C   UNL     1       2.177  16.343  19.062  0.00  0.00    +0.000 C 
ATOM     14  C   UNL     1       3.149  16.195  17.893  0.00  0.00    +0.000 C 
ATOM     15  C   UNL     1       4.620  16.207  18.303  0.00  0.00    +0.000 C 
ATOM     16  C   UNL     1       5.033  15.090  19.254  0.00  0.00    +0.000 C 
ATOM     17  C   UNL     1       4.323  15.152  20.603  0.00  0.00    +0.000 C 
ATOM     18  C   UNL     1       2.952  14.483  20.593  0.00  0.00    +0.000 C 
ENDBRANCH   3  10
BRANCH   1  20
ATOM     19  C   UNL     1      -2.688  12.112  22.996  0.00  0.00    +0.000 C 
ATOM     20  C   UNL     1      -1.237  11.663  23.029  0.00  0.00    +0.000 C 
ENDBRANCH   1  20
BRANCH   8  21
ATOM     21  N   UNL     1       2.123   9.285  17.644  0.00  0.00    +0.000 NA
ATOM     22  H   UNL     1       1.903   9.614  16.701  0.00  0.00    +0.000 HD
BRANCH  21  23
ATOM     23  C   UNL     1       2.226   7.823  17.613  0.00  0.00    +0.000 C 
BRANCH  23  24
ATOM     24  C   UNL     1       3.608   7.359  18.108  0.00  0.00    +0.000 C 
BRANCH  24  25
ATOM     25  C   UNL     1       4.184   6.272  17.235  0.00  0.00    +0.000 A 
ATOM     26  C   UNL     1       5.000   6.590  16.140  0.00  0.00    +0.000 A 
ATOM     27  C   UNL     1       5.552   5.576  15.350  0.00  0.00    +0.000 A 
ATOM     28  C   UNL     1       5.293   4.236  15.642  0.00  0.00    +0.000 A 
ATOM     29  C   UNL     1       4.483   3.909  16.727  0.00  0.00    +0.000 A 
ATOM     30  C   UNL     1       3.939   4.923  17.513  0.00  0.00    +0.000 A 
ATOM     31  F   UNL     1       3.168   4.586  18.557  0.00  0.00    +0.000 F 
ENDBRANCH  24  25
ENDBRANCH  23  24
ENDBRANCH  21  23
ENDBRANCH   8  21
TORSDOF 6
ENDMDL
MODEL 9
REMARK VINA RESULT:      -7.0      4.762      8.948
REMARK  Name = 
REMARK  7 active torsions:
REMARK  status: ('A' for Active; 'I' for Inactive)
REMARK    1  A    between atoms: C_1  and  C_2
REMARK    2  A    between atoms: C_2  and  N_3
REMARK    3  A    between atoms: C_5  and  C_6
REMARK    4  A    between atoms: C_19  and  N_20
REMARK    5  A    between atoms: N_20  and  C_21
REMARK    6  A    between atoms: C_21  and  C_22
REMARK    7  A    between atoms: C_22  and  C_23
REMARK                            x       y       z     vdW  Elec       q    Type
REMARK                         _______ _______ _______ _____ _____    ______ ____
ROOT
ATOM      1  N   UNL     1       4.048   4.478  17.888  0.00  0.00    +0.000 N 
ATOM      2  N   UNL     1       2.998   5.328  17.849  0.00  0.00    +0.000 NA
ATOM      3  C   UNL     1       3.536   6.565  17.893  0.00  0.00    +0.000 A 
ATOM      4  C   UNL     1       4.953   6.474  17.955  0.00  0.00    +0.000 A 
ATOM      5  C   UNL     1       5.248   5.130  17.939  0.00  0.00    +0.000 A 
ATOM      6  C   UNL     1       6.613   4.547  17.953  0.00  0.00    +0.000 C 
ATOM      7  C   UNL     1       7.639   5.609  18.418  0.00  0.00    +0.000 C 
ATOM      8  C   UNL     1       7.413   7.005  17.765  0.00  0.00    +0.000 C 
ATOM      9  C   UNL     1       5.984   7.536  18.077  0.00  0.00    +0.000 C 
ENDROOT
BRANCH   3  10
ATOM     10  C   UNL     1       2.752   7.824  17.822  0.00  0.00    +0.000 C 
ATOM     11  O   UNL     1       2.922   8.596  16.874  0.00  0.00    +0.000 OA
ATOM     12  N   UNL     1       1.830   8.136  18.845  0.00  0.00    +0.000 N 
ATOM     13  C   UNL     1       0.976   9.307  18.662  0.00  0.00    +0.000 C 
ATOM     14  C   UNL     1       1.435  10.517  19.473  0.00  0.00    +0.000 C 
ATOM     15  C   UNL     1       0.971  10.502  20.928  0.00  0.00    +0.000 C 
ATOM     16  C   UNL     1       1.463   9.315  21.749  0.00  0.00    +0.000 C 
ATOM     17  C   UNL     1       0.953   7.973  21.235  0.00  0.00    +0.000 C 
ATOM     18  C   UNL     1       1.802   7.398  20.105  0.00  0.00    +0.000 C 
ENDBRANCH   3  10
BRANCH   1  20
ATOM     19  C   UNL     1       2.376   2.723  17.438  0.00  0.00    +0.000 C 
ATOM     20  C   UNL     1       3.790   3.052  17.885  0.00  0.00    +0.000 C 
ENDBRANCH   1  20
BRANCH   8  21
ATOM     21  N   UNL     1       8.380   8.029  18.221  0.00  0.00    +0.000 NA
ATOM     22  H   UNL     1       8.393   8.028  19.243  0.00  0.00    +0.000 HD
BRANCH  21  23
ATOM     23  C   UNL     1       8.075   9.388  17.762  0.00  0.00    +0.000 C 
BRANCH  23  24
ATOM     24  C   UNL     1       8.416  10.424  18.849  0.00  0.00    +0.000 C 
BRANCH  24  25
ATOM     25  C   UNL     1       9.549  11.328  18.429  0.00  0.00    +0.000 A 
ATOM     26  C   UNL     1      10.858  11.089  18.873  0.00  0.00    +0.000 A 
ATOM     27  C   UNL     1      11.907  11.916  18.459  0.00  0.00    +0.000 A 
ATOM     28  C   UNL     1      11.663  12.988  17.602  0.00  0.00    +0.000 A 
ATOM     29  C   UNL     1      10.367  13.234  17.155  0.00  0.00    +0.000 A 
ATOM     30  C   UNL     1       9.325  12.406  17.567  0.00  0.00    +0.000 A 
ATOM     31  F   UNL     1       8.086  12.657  17.119  0.00  0.00    +0.000 F 
ENDBRANCH  24  25
ENDBRANCH  23  24
ENDBRANCH  21  23
ENDBRANCH   8  21
TORSDOF 6
ENDMDL
