MODEL 1
REMARK VINA RESULT:      -8.4      0.000      0.000
REMARK  Name = 
REMARK  9 active torsions:
REMARK  status: ('A' for Active; 'I' for Inactive)
REMARK    1  A    between atoms: C_1  and  C_2
REMARK    2  A    between atoms: C_5  and  C_6
REMARK    3  A    between atoms: C_7  and  N_8
REMARK    4  A    between atoms: C_9  and  C_11
REMARK    5  A    between atoms: C_11  and  C_12
REMARK    6  A    between atoms: C_12  and  C_13
REMARK    7  A    between atoms: N_15  and  N_16
REMARK    8  A    between atoms: N_16  and  S_17
REMARK    9  A    between atoms: S_17  and  C_20
REMARK                            x       y       z     vdW  Elec       q    Type
REMARK                         _______ _______ _______ _____ _____    ______ ____
ROOT
ATOM      1  C   UNL     1       7.410   5.619  18.210  0.00  0.00    +0.000 C 
ATOM      2  O   UNL     1       7.733   5.075  17.158  0.00  0.00    +0.000 OA
ATOM      3  N   UNL     1       6.465   5.092  19.065  0.00  0.00    +0.000 N 
ATOM      4  H   UNL     1       6.285   5.471  19.994  0.00  0.00    +0.000 HD
ENDROOT
BRANCH   3   5
ATOM      5  N   UNL     1       5.859   3.794  18.747  0.00  0.00    +0.000 NA
ATOM      6  H   UNL     1       6.086   3.000  19.357  0.00  0.00    +0.000 HD
BRANCH   5   7
ATOM      7  S   UNL     1       4.362   3.823  17.936  0.00  0.00    +0.000 S 
ATOM      8  O   UNL     1       4.655   4.088  16.541  0.00  0.00    +0.000 OA
ATOM      9  O   UNL     1       3.637   2.637  18.327  0.00  0.00    +0.000 OA
BRANCH   7  10
ATOM     10  C   UNL     1       3.543   5.250  18.608  0.00  0.00    +0.000 A 
ATOM     11  C   UNL     1       3.477   6.424  17.855  0.00  0.00    +0.000 A 
ATOM     12  C   UNL     1       2.776   7.528  18.350  0.00  0.00    +0.000 A 
ATOM     13  C   UNL     1       2.138   7.450  19.587  0.00  0.00    +0.000 A 
ATOM     14 CL   UNL     1       1.297   8.819  20.202  0.00  0.00    +0.000 Cl
ATOM     15  C   UNL     1       2.173   6.265  20.326  0.00  0.00    +0.000 A 
ATOM     16  C   UNL     1       2.869   5.155  19.833  0.00  0.00    +0.000 A 
ENDBRANCH   7  10
ENDBRANCH   5   7
ENDBRANCH   3   5
BRANCH   1  17
ATOM     17  C   UNL     1       8.017   6.944  18.656  0.00  0.00    +0.000 C 
BRANCH  17  18
ATOM     18  C   UNL     1       8.120   7.975  17.535  0.00  0.00    +0.000 C 
BRANCH  18  20
ATOM     19  N   UNL     1       9.225   9.496  19.099  0.00  0.00    +0.000 N 
ATOM     20  C   UNL     1       8.273   9.386  18.094  0.00  0.00    +0.000 C 
ATOM     21  O   UNL     1       7.637  10.314  17.615  0.00  0.00    +0.000 OA
ATOM     22  H   UNL     1       9.893   8.740  19.200  0.00  0.00    +0.000 HD
BRANCH  19  29
ATOM     23  C   UNL     1       8.889  12.570  22.962  0.00  0.00    +0.000 C 
ATOM     24  C   UNL     1       9.427  12.258  21.598  0.00  0.00    +0.000 A 
ATOM     25  C   UNL     1      10.337  13.113  20.972  0.00  0.00    +0.000 A 
ATOM     26  C   UNL     1      10.864  12.783  19.724  0.00  0.00    +0.000 A 
ATOM     27  C   UNL     1      10.509  11.585  19.080  0.00  0.00    +0.000 A 
ATOM     28  C   UNL     1      11.075  11.312  17.715  0.00  0.00    +0.000 C 
ATOM     29  C   UNL     1       9.571  10.733  19.695  0.00  0.00    +0.000 A 
ATOM     30  C   UNL     1       9.032  11.076  20.935  0.00  0.00    +0.000 A 
ENDBRANCH  19  29
ENDBRANCH  18  20
ENDBRANCH  17  18
ENDBRANCH   1  17
TORSDOF 7
ENDMDL
MODEL 2
REMARK VINA RESULT:      -8.1      2.136      2.862
REMARK  Name = 
REMARK  9 active torsions:
REMARK  status: ('A' for Active; 'I' for Inactive)
REMARK    1  A    between atoms: C_1  and  C_2
REMARK    2  A    between atoms: C_5  and  C_6
REMARK    3  A    between atoms: C_7  and  N_8
REMARK    4  A    between atoms: C_9  and  C_11
REMARK    5  A    between atoms: C_11  and  C_12
REMARK    6  A    between atoms: C_12  and  C_13
REMARK    7  A    between atoms: N_15  and  N_16
REMARK    8  A    between atoms: N_16  and  S_17
REMARK    9  A    between atoms: S_17  and  C_20
REMARK                            x       y       z     vdW  Elec       q    Type
REMARK                         _______ _______ _______ _____ _____    ______ ____
ROOT
ATOM      1  C   UNL     1       7.695   6.104  18.758  0.00  0.00    +0.000 C 
ATOM      2  O   UNL     1       7.217   5.545  19.741  0.00  0.00    +0.000 OA
ATOM      3  N   UNL     1       7.679   5.543  17.497  0.00  0.00    +0.000 N 
ATOM      4  H   UNL     1       7.959   6.054  16.661  0.00  0.00    +0.000 HD
ENDROOT
BRANCH   3   5
ATOM      5  N   UNL     1       7.007   4.255  17.297  0.00  0.00    +0.000 NA
ATOM      6  H   UNL     1       7.152   3.526  18.006  0.00  0.00    +0.000 HD
BRANCH   5   7
ATOM      7  S   UNL     1       5.556   4.275  16.405  0.00  0.00    +0.000 S 
ATOM      8  O   UNL     1       5.412   5.621  15.886  0.00  0.00    +0.000 OA
ATOM      9  O   UNL     1       5.582   3.138  15.516  0.00  0.00    +0.000 OA
BRANCH   7  10
ATOM     10  C   UNL     1       4.299   4.020  17.634  0.00  0.00    +0.000 A 
ATOM     11  C   UNL     1       2.957   4.210  17.297  0.00  0.00    +0.000 A 
ATOM     12  C   UNL     1       1.960   3.947  18.240  0.00  0.00    +0.000 A 
ATOM     13  C   UNL     1       2.307   3.485  19.510  0.00  0.00    +0.000 A 
ATOM     14 CL   UNL     1       1.077   3.185  20.674  0.00  0.00    +0.000 Cl
ATOM     15  C   UNL     1       3.645   3.260  19.838  0.00  0.00    +0.000 A 
ATOM     16  C   UNL     1       4.648   3.519  18.896  0.00  0.00    +0.000 A 
ENDBRANCH   7  10
ENDBRANCH   5   7
ENDBRANCH   3   5
BRANCH   1  17
ATOM     17  C   UNL     1       8.371   7.466  18.850  0.00  0.00    +0.000 C 
BRANCH  17  18
ATOM     18  C   UNL     1       7.998   8.410  17.711  0.00  0.00    +0.000 C 
BRANCH  18  20
ATOM     19  N   UNL     1       9.586   9.953  18.748  0.00  0.00    +0.000 N 
ATOM     20  C   UNL     1       8.406   9.846  18.024  0.00  0.00    +0.000 C 
ATOM     21  O   UNL     1       7.750  10.783  17.594  0.00  0.00    +0.000 OA
ATOM     22  H   UNL     1      10.192   9.141  18.785  0.00  0.00    +0.000 HD
BRANCH  19  29
ATOM     23  C   UNL     1      12.316  13.835  17.347  0.00  0.00    +0.000 C 
ATOM     24  C   UNL     1      11.510  13.129  18.396  0.00  0.00    +0.000 A 
ATOM     25  C   UNL     1      11.252  13.732  19.629  0.00  0.00    +0.000 A 
ATOM     26  C   UNL     1      10.460  13.080  20.575  0.00  0.00    +0.000 A 
ATOM     27  C   UNL     1       9.894  11.822  20.305  0.00  0.00    +0.000 A 
ATOM     28  C   UNL     1       9.092  11.153  21.385  0.00  0.00    +0.000 C 
ATOM     29  C   UNL     1      10.175  11.199  19.074  0.00  0.00    +0.000 A 
ATOM     30  C   UNL     1      10.983  11.845  18.138  0.00  0.00    +0.000 A 
ENDBRANCH  19  29
ENDBRANCH  18  20
ENDBRANCH  17  18
ENDBRANCH   1  17
TORSDOF 7
ENDMDL
MODEL 3
REMARK VINA RESULT:      -8.1      2.615      3.234
REMARK  Name = 
REMARK  9 active torsions:
REMARK  status: ('A' for Active; 'I' for Inactive)
REMARK    1  A    between atoms: C_1  and  C_2
REMARK    2  A    between atoms: C_5  and  C_6
REMARK    3  A    between atoms: C_7  and  N_8
REMARK    4  A    between atoms: C_9  and  C_11
REMARK    5  A    between atoms: C_11  and  C_12
REMARK    6  A    between atoms: C_12  and  C_13
REMARK    7  A    between atoms: N_15  and  N_16
REMARK    8  A    between atoms: N_16  and  S_17
REMARK    9  A    between atoms: S_17  and  C_20
REMARK                            x       y       z     vdW  Elec       q    Type
REMARK                         _______ _______ _______ _____ _____    ______ ____
ROOT
ATOM      1  C   UNL     1       7.421   7.211  17.628  0.00  0.00    +0.000 C 
ATOM      2  O   UNL     1       6.889   6.607  18.555  0.00  0.00    +0.000 OA
ATOM      3  N   UNL     1       7.653   6.636  16.396  0.00  0.00    +0.000 N 
ATOM      4  H   UNL     1       7.978   7.168  15.589  0.00  0.00    +0.000 HD
ENDROOT
BRANCH   3   5
ATOM      5  N   UNL     1       7.193   5.265  16.149  0.00  0.00    +0.000 NA
ATOM      6  H   UNL     1       7.551   4.524  16.762  0.00  0.00    +0.000 HD
BRANCH   5   7
ATOM      7  S   UNL     1       5.658   5.088  15.432  0.00  0.00    +0.000 S 
ATOM      8  O   UNL     1       5.267   6.405  14.968  0.00  0.00    +0.000 OA
ATOM      9  O   UNL     1       5.737   3.975  14.516  0.00  0.00    +0.000 OA
BRANCH   7  10
ATOM     10  C   UNL     1       4.603   4.647  16.791  0.00  0.00    +0.000 A 
ATOM     11  C   UNL     1       4.650   3.349  17.307  0.00  0.00    +0.000 A 
ATOM     12  C   UNL     1       3.871   3.015  18.418  0.00  0.00    +0.000 A 
ATOM     13  C   UNL     1       3.060   3.980  19.015  0.00  0.00    +0.000 A 
ATOM     14 CL   UNL     1       2.086   3.557  20.369  0.00  0.00    +0.000 Cl
ATOM     15  C   UNL     1       3.039   5.286  18.524  0.00  0.00    +0.000 A 
ATOM     16  C   UNL     1       3.819   5.628  17.413  0.00  0.00    +0.000 A 
ENDBRANCH   7  10
ENDBRANCH   5   7
ENDBRANCH   3   5
BRANCH   1  17
ATOM     17  C   UNL     1       7.890   8.654  17.767  0.00  0.00    +0.000 C 
BRANCH  17  18
ATOM     18  C   UNL     1       8.867   8.869  18.919  0.00  0.00    +0.000 C 
BRANCH  18  20
ATOM     19  N   UNL     1       9.165  11.100  17.964  0.00  0.00    +0.000 N 
ATOM     20  C   UNL     1       9.153  10.352  19.133  0.00  0.00    +0.000 C 
ATOM     21  O   UNL     1       9.286  10.799  20.263  0.00  0.00    +0.000 OA
ATOM     22  H   UNL     1       8.748  10.689  17.136  0.00  0.00    +0.000 HD
BRANCH  19  29
ATOM     23  C   UNL     1       7.137  15.608  18.184  0.00  0.00    +0.000 C 
ATOM     24  C   UNL     1       8.353  14.740  18.075  0.00  0.00    +0.000 A 
ATOM     25  C   UNL     1       9.634  15.295  18.075  0.00  0.00    +0.000 A 
ATOM     26  C   UNL     1      10.757  14.469  18.021  0.00  0.00    +0.000 A 
ATOM     27  C   UNL     1      10.626  13.069  17.983  0.00  0.00    +0.000 A 
ATOM     28  C   UNL     1      11.874  12.238  17.876  0.00  0.00    +0.000 C 
ATOM     29  C   UNL     1       9.336  12.506  17.955  0.00  0.00    +0.000 A 
ATOM     30  C   UNL     1       8.216  13.337  17.990  0.00  0.00    +0.000 A 
ENDBRANCH  19  29
ENDBRANCH  18  20
ENDBRANCH  17  18
ENDBRANCH   1  17
TORSDOF 7
ENDMDL
MODEL 4
REMARK VINA RESULT:      -8.0      0.752      1.259
REMARK  Name = 
REMARK  9 active torsions:
REMARK  status: ('A' for Active; 'I' for Inactive)
REMARK    1  A    between atoms: C_1  and  C_2
REMARK    2  A    between atoms: C_5  and  C_6
REMARK    3  A    between atoms: C_7  and  N_8
REMARK    4  A    between atoms: C_9  and  C_11
REMARK    5  A    between atoms: C_11  and  C_12
REMARK    6  A    between atoms: C_12  and  C_13
REMARK    7  A    between atoms: N_15  and  N_16
REMARK    8  A    between atoms: N_16  and  S_17
REMARK    9  A    between atoms: S_17  and  C_20
REMARK                            x       y       z     vdW  Elec       q    Type
REMARK                         _______ _______ _______ _____ _____    ______ ____
ROOT
ATOM      1  C   UNL     1       7.370   5.521  18.380  0.00  0.00    +0.000 C 
ATOM      2  O   UNL     1       7.767   4.969  17.358  0.00  0.00    +0.000 OA
ATOM      3  N   UNL     1       6.404   4.974  19.198  0.00  0.00    +0.000 N 
ATOM      4  H   UNL     1       6.162   5.365  20.108  0.00  0.00    +0.000 HD
ENDROOT
BRANCH   3   5
ATOM      5  N   UNL     1       5.866   3.647  18.880  0.00  0.00    +0.000 NA
ATOM      6  H   UNL     1       6.460   2.833  19.074  0.00  0.00    +0.000 HD
BRANCH   5   7
ATOM      7  S   UNL     1       4.172   3.474  18.923  0.00  0.00    +0.000 S 
ATOM      8  O   UNL     1       3.814   2.652  17.783  0.00  0.00    +0.000 OA
ATOM      9  O   UNL     1       3.814   3.076  20.264  0.00  0.00    +0.000 OA
BRANCH   7  10
ATOM     10  C   UNL     1       3.570   5.119  18.627  0.00  0.00    +0.000 A 
ATOM     11  C   UNL     1       2.961   5.827  19.665  0.00  0.00    +0.000 A 
ATOM     12  C   UNL     1       2.545   7.145  19.456  0.00  0.00    +0.000 A 
ATOM     13  C   UNL     1       2.750   7.752  18.218  0.00  0.00    +0.000 A 
ATOM     14 CL   UNL     1       2.216   9.366  17.959  0.00  0.00    +0.000 Cl
ATOM     15  C   UNL     1       3.391   7.059  17.190  0.00  0.00    +0.000 A 
ATOM     16  C   UNL     1       3.813   5.739  17.394  0.00  0.00    +0.000 A 
ENDBRANCH   7  10
ENDBRANCH   5   7
ENDBRANCH   3   5
BRANCH   1  17
ATOM     17  C   UNL     1       7.902   6.878  18.826  0.00  0.00    +0.000 C 
BRANCH  17  18
ATOM     18  C   UNL     1       8.088   7.866  17.678  0.00  0.00    +0.000 C 
BRANCH  18  20
ATOM     19  N   UNL     1       9.180   9.454  19.184  0.00  0.00    +0.000 N 
ATOM     20  C   UNL     1       8.219   9.296  18.194  0.00  0.00    +0.000 C 
ATOM     21  O   UNL     1       7.558  10.196  17.697  0.00  0.00    +0.000 OA
ATOM     22  H   UNL     1       9.865   8.715  19.298  0.00  0.00    +0.000 HD
BRANCH  19  29
ATOM     23  C   UNL     1       8.922  12.586  23.005  0.00  0.00    +0.000 C 
ATOM     24  C   UNL     1       9.402  12.269  21.621  0.00  0.00    +0.000 A 
ATOM     25  C   UNL     1      10.245  13.146  20.935  0.00  0.00    +0.000 A 
ATOM     26  C   UNL     1      10.720  12.812  19.667  0.00  0.00    +0.000 A 
ATOM     27  C   UNL     1      10.380  11.589  19.063  0.00  0.00    +0.000 A 
ATOM     28  C   UNL     1      10.885  11.312  17.675  0.00  0.00    +0.000 C 
ATOM     29  C   UNL     1       9.508  10.714  19.739  0.00  0.00    +0.000 A 
ATOM     30  C   UNL     1       9.019  11.061  21.000  0.00  0.00    +0.000 A 
ENDBRANCH  19  29
ENDBRANCH  18  20
ENDBRANCH  17  18
ENDBRANCH   1  17
TORSDOF 7
ENDMDL
MODEL 5
REMARK VINA RESULT:      -7.9      2.980      4.097
REMARK  Name = 
REMARK  9 active torsions:
REMARK  status: ('A' for Active; 'I' for Inactive)
REMARK    1  A    between atoms: C_1  and  C_2
REMARK    2  A    between atoms: C_5  and  C_6
REMARK    3  A    between atoms: C_7  and  N_8
REMARK    4  A    between atoms: C_9  and  C_11
REMARK    5  A    between atoms: C_11  and  C_12
REMARK    6  A    between atoms: C_12  and  C_13
REMARK    7  A    between atoms: N_15  and  N_16
REMARK    8  A    between atoms: N_16  and  S_17
REMARK    9  A    between atoms: S_17  and  C_20
REMARK                            x       y       z     vdW  Elec       q    Type
REMARK                         _______ _______ _______ _____ _____    ______ ____
ROOT
ATOM      1  C   UNL     1       8.593   9.173  18.510  0.00  0.00    +0.000 C 
ATOM      2  O   UNL     1       7.828   9.689  17.700  0.00  0.00    +0.000 OA
ATOM      3  N   UNL     1       8.577   7.825  18.800  0.00  0.00    +0.000 N 
ATOM      4  H   UNL     1       9.288   7.373  19.374  0.00  0.00    +0.000 HD
ENDROOT
BRANCH   3   5
ATOM      5  N   UNL     1       7.655   6.948  18.069  0.00  0.00    +0.000 NA
ATOM      6  H   UNL     1       7.566   7.088  17.056  0.00  0.00    +0.000 HD
BRANCH   5   7
ATOM      7  S   UNL     1       7.385   5.400  18.725  0.00  0.00    +0.000 S 
ATOM      8  O   UNL     1       8.160   4.473  17.922  0.00  0.00    +0.000 OA
ATOM      9  O   UNL     1       7.591   5.494  20.151  0.00  0.00    +0.000 OA
BRANCH   7  10
ATOM     10  C   UNL     1       5.664   5.099  18.407  0.00  0.00    +0.000 A 
ATOM     11  C   UNL     1       5.291   4.339  17.296  0.00  0.00    +0.000 A 
ATOM     12  C   UNL     1       3.942   4.043  17.078  0.00  0.00    +0.000 A 
ATOM     13  C   UNL     1       2.976   4.497  17.975  0.00  0.00    +0.000 A 
ATOM     14 CL   UNL     1       1.315   4.150  17.690  0.00  0.00    +0.000 Cl
ATOM     15  C   UNL     1       3.350   5.226  19.105  0.00  0.00    +0.000 A 
ATOM     16  C   UNL     1       4.699   5.523  19.331  0.00  0.00    +0.000 A 
ENDBRANCH   7  10
ENDBRANCH   5   7
ENDBRANCH   3   5
BRANCH   1  17
ATOM     17  C   UNL     1       9.621   9.988  19.285  0.00  0.00    +0.000 C 
BRANCH  17  18
ATOM     18  C   UNL     1       9.013  11.143  20.076  0.00  0.00    +0.000 C 
BRANCH  18  20
ATOM     19  N   UNL     1       9.247  12.997  18.498  0.00  0.00    +0.000 N 
ATOM     20  C   UNL     1       9.670  12.471  19.711  0.00  0.00    +0.000 C 
ATOM     21  O   UNL     1      10.444  13.011  20.487  0.00  0.00    +0.000 OA
ATOM     22  H   UNL     1       8.395  12.624  18.094  0.00  0.00    +0.000 HD
BRANCH  19  29
ATOM     23  C   UNL     1       8.676  17.911  18.401  0.00  0.00    +0.000 C 
ATOM     24  C   UNL     1       9.420  16.685  17.966  0.00  0.00    +0.000 A 
ATOM     25  C   UNL     1      10.579  16.785  17.193  0.00  0.00    +0.000 A 
ATOM     26  C   UNL     1      11.286  15.637  16.837  0.00  0.00    +0.000 A 
ATOM     27  C   UNL     1      10.863  14.364  17.260  0.00  0.00    +0.000 A 
ATOM     28  C   UNL     1      11.641  13.164  16.801  0.00  0.00    +0.000 C 
ATOM     29  C   UNL     1       9.680  14.256  18.016  0.00  0.00    +0.000 A 
ATOM     30  C   UNL     1       8.965  15.406  18.353  0.00  0.00    +0.000 A 
ENDBRANCH  19  29
ENDBRANCH  18  20
ENDBRANCH  17  18
ENDBRANCH   1  17
TORSDOF 7
ENDMDL
MODEL 6
REMARK VINA RESULT:      -7.8      2.376      2.754
REMARK  Name = 
REMARK  9 active torsions:
REMARK  status: ('A' for Active; 'I' for Inactive)
REMARK    1  A    between atoms: C_1  and  C_2
REMARK    2  A    between atoms: C_5  and  C_6
REMARK    3  A    between atoms: C_7  and  N_8
REMARK    4  A    between atoms: C_9  and  C_11
REMARK    5  A    between atoms: C_11  and  C_12
REMARK    6  A    between atoms: C_12  and  C_13
REMARK    7  A    between atoms: N_15  and  N_16
REMARK    8  A    between atoms: N_16  and  S_17
REMARK    9  A    between atoms: S_17  and  C_20
REMARK                            x       y       z     vdW  Elec       q    Type
REMARK                         _______ _______ _______ _____ _____    ______ ____
ROOT
ATOM      1  C   UNL     1       7.834   6.375  18.547  0.00  0.00    +0.000 C 
ATOM      2  O   UNL     1       7.564   5.499  19.363  0.00  0.00    +0.000 OA
ATOM      3  N   UNL     1       7.582   6.242  17.197  0.00  0.00    +0.000 N 
ATOM      4  H   UNL     1       7.687   7.011  16.536  0.00  0.00    +0.000 HD
ENDROOT
BRANCH   3   5
ATOM      5  N   UNL     1       6.906   5.034  16.712  0.00  0.00    +0.000 NA
ATOM      6  H   UNL     1       7.096   4.152  17.201  0.00  0.00    +0.000 HD
BRANCH   5   7
ATOM      7  S   UNL     1       5.406   5.252  15.936  0.00  0.00    +0.000 S 
ATOM      8  O   UNL     1       5.339   6.650  15.556  0.00  0.00    +0.000 OA
ATOM      9  O   UNL     1       5.279   4.210  14.945  0.00  0.00    +0.000 OA
BRANCH   7  10
ATOM     10  C   UNL     1       4.217   4.974  17.225  0.00  0.00    +0.000 A 
ATOM     11  C   UNL     1       4.154   5.855  18.307  0.00  0.00    +0.000 A 
ATOM     12  C   UNL     1       3.176   5.679  19.290  0.00  0.00    +0.000 A 
ATOM     13  C   UNL     1       2.261   4.632  19.183  0.00  0.00    +0.000 A 
ATOM     14 CL   UNL     1       1.075   4.406  20.408  0.00  0.00    +0.000 Cl
ATOM     15  C   UNL     1       2.300   3.771  18.085  0.00  0.00    +0.000 A 
ATOM     16  C   UNL     1       3.274   3.945  17.095  0.00  0.00    +0.000 A 
ENDBRANCH   7  10
ENDBRANCH   5   7
ENDBRANCH   3   5
BRANCH   1  17
ATOM     17  C   UNL     1       8.491   7.687  18.955  0.00  0.00    +0.000 C 
BRANCH  17  18
ATOM     18  C   UNL     1       8.191   8.842  18.004  0.00  0.00    +0.000 C 
BRANCH  18  20
ATOM     19  N   UNL     1       8.758  11.187  17.604  0.00  0.00    +0.000 N 
ATOM     20  C   UNL     1       8.748  10.158  18.536  0.00  0.00    +0.000 C 
ATOM     21  O   UNL     1       9.079  10.260  19.709  0.00  0.00    +0.000 OA
ATOM     22  H   UNL     1       8.187  11.075  16.773  0.00  0.00    +0.000 HD
BRANCH  19  29
ATOM     23  C   UNL     1       7.511  15.833  18.763  0.00  0.00    +0.000 C 
ATOM     24  C   UNL     1       8.568  14.801  18.507  0.00  0.00    +0.000 A 
ATOM     25  C   UNL     1       9.920  15.100  18.684  0.00  0.00    +0.000 A 
ATOM     26  C   UNL     1      10.887  14.114  18.487  0.00  0.00    +0.000 A 
ATOM     27  C   UNL     1      10.525  12.804  18.128  0.00  0.00    +0.000 A 
ATOM     28  C   UNL     1      11.618  11.802  17.884  0.00  0.00    +0.000 C 
ATOM     29  C   UNL     1       9.164  12.505  17.922  0.00  0.00    +0.000 A 
ATOM     30  C   UNL     1       8.202  13.500  18.100  0.00  0.00    +0.000 A 
ENDBRANCH  19  29
ENDBRANCH  18  20
ENDBRANCH  17  18
ENDBRANCH   1  17
TORSDOF 7
ENDMDL
MODEL 7
REMARK VINA RESULT:      -7.7      5.126      7.839
REMARK  Name = 
REMARK  9 active torsions:
REMARK  status: ('A' for Active; 'I' for Inactive)
REMARK    1  A    between atoms: C_1  and  C_2
REMARK    2  A    between atoms: C_5  and  C_6
REMARK    3  A    between atoms: C_7  and  N_8
REMARK    4  A    between atoms: C_9  and  C_11
REMARK    5  A    between atoms: C_11  and  C_12
REMARK    6  A    between atoms: C_12  and  C_13
REMARK    7  A    between atoms: N_15  and  N_16
REMARK    8  A    between atoms: N_16  and  S_17
REMARK    9  A    between atoms: S_17  and  C_20
REMARK                            x       y       z     vdW  Elec       q    Type
REMARK                         _______ _______ _______ _____ _____    ______ ____
ROOT
ATOM      1  C   UNL     1       1.961   6.566  20.197  0.00  0.00    +0.000 C 
ATOM      2  O   UNL     1       2.512   7.308  19.389  0.00  0.00    +0.000 OA
ATOM      3  N   UNL     1       1.528   6.997  21.434  0.00  0.00    +0.000 N 
ATOM      4  H   UNL     1       0.961   6.420  22.054  0.00  0.00    +0.000 HD
ENDROOT
BRANCH   3   5
ATOM      5  N   UNL     1       1.670   8.414  21.787  0.00  0.00    +0.000 NA
ATOM      6  H   UNL     1       2.414   8.949  21.323  0.00  0.00    +0.000 HD
BRANCH   5   7
ATOM      7  S   UNL     1       0.264   9.219  22.310  0.00  0.00    +0.000 S 
ATOM      8  O   UNL     1      -0.848   8.333  22.026  0.00  0.00    +0.000 OA
ATOM      9  O   UNL     1       0.512   9.688  23.653  0.00  0.00    +0.000 OA
BRANCH   7  10
ATOM     10  C   UNL     1       0.146  10.618  21.221  0.00  0.00    +0.000 A 
ATOM     11  C   UNL     1       0.377  10.448  19.854  0.00  0.00    +0.000 A 
ATOM     12  C   UNL     1       0.220  11.530  18.984  0.00  0.00    +0.000 A 
ATOM     13  C   UNL     1      -0.177  12.771  19.480  0.00  0.00    +0.000 A 
ATOM     14 CL   UNL     1      -0.345  14.106  18.408  0.00  0.00    +0.000 Cl
ATOM     15  C   UNL     1      -0.443  12.935  20.841  0.00  0.00    +0.000 A 
ATOM     16  C   UNL     1      -0.291  11.854  21.717  0.00  0.00    +0.000 A 
ENDBRANCH   7  10
ENDBRANCH   5   7
ENDBRANCH   3   5
BRANCH   1  17
ATOM     17  C   UNL     1       1.721   5.090  19.907  0.00  0.00    +0.000 C 
BRANCH  17  18
ATOM     18  C   UNL     1       2.822   4.177  20.441  0.00  0.00    +0.000 C 
BRANCH  18  20
ATOM     19  N   UNL     1       4.273   4.891  18.607  0.00  0.00    +0.000 N 
ATOM     20  C   UNL     1       3.815   3.807  19.344  0.00  0.00    +0.000 C 
ATOM     21  O   UNL     1       4.190   2.651  19.214  0.00  0.00    +0.000 OA
ATOM     22  H   UNL     1       4.131   5.818  18.993  0.00  0.00    +0.000 HD
BRANCH  19  29
ATOM     23  C   UNL     1       5.375   3.954  13.875  0.00  0.00    +0.000 C 
ATOM     24  C   UNL     1       5.817   4.321  15.259  0.00  0.00    +0.000 A 
ATOM     25  C   UNL     1       7.149   4.645  15.525  0.00  0.00    +0.000 A 
ATOM     26  C   UNL     1       7.533   5.030  16.809  0.00  0.00    +0.000 A 
ATOM     27  C   UNL     1       6.594   5.120  17.851  0.00  0.00    +0.000 A 
ATOM     28  C   UNL     1       7.082   5.495  19.222  0.00  0.00    +0.000 C 
ATOM     29  C   UNL     1       5.255   4.769  17.594  0.00  0.00    +0.000 A 
ATOM     30  C   UNL     1       4.879   4.364  16.313  0.00  0.00    +0.000 A 
ENDBRANCH  19  29
ENDBRANCH  18  20
ENDBRANCH  17  18
ENDBRANCH   1  17
TORSDOF 7
ENDMDL
MODEL 8
REMARK VINA RESULT:      -7.7      5.541      7.732
REMARK  Name = 
REMARK  9 active torsions:
REMARK  status: ('A' for Active; 'I' for Inactive)
REMARK    1  A    between atoms: C_1  and  C_2
REMARK    2  A    between atoms: C_5  and  C_6
REMARK    3  A    between atoms: C_7  and  N_8
REMARK    4  A    between atoms: C_9  and  C_11
REMARK    5  A    between atoms: C_11  and  C_12
REMARK    6  A    between atoms: C_12  and  C_13
REMARK    7  A    between atoms: N_15  and  N_16
REMARK    8  A    between atoms: N_16  and  S_17
REMARK    9  A    between atoms: S_17  and  C_20
REMARK                            x       y       z     vdW  Elec       q    Type
REMARK                         _______ _______ _______ _____ _____    ______ ____
ROOT
ATOM      1  C   UNL     1       3.017   7.233  18.354  0.00  0.00    +0.000 C 
ATOM      2  O   UNL     1       4.005   7.411  17.648  0.00  0.00    +0.000 OA
ATOM      3  N   UNL     1       2.977   6.293  19.363  0.00  0.00    +0.000 N 
ATOM      4  H   UNL     1       2.210   6.228  20.030  0.00  0.00    +0.000 HD
ENDROOT
BRANCH   3   5
ATOM      5  N   UNL     1       4.183   5.510  19.657  0.00  0.00    +0.000 NA
ATOM      6  H   UNL     1       4.642   5.662  20.563  0.00  0.00    +0.000 HD
BRANCH   5   7
ATOM      7  S   UNL     1       4.316   3.991  18.899  0.00  0.00    +0.000 S 
ATOM      8  O   UNL     1       5.151   3.175  19.758  0.00  0.00    +0.000 OA
ATOM      9  O   UNL     1       2.982   3.567  18.546  0.00  0.00    +0.000 OA
BRANCH   7  10
ATOM     10  C   UNL     1       5.226   4.337  17.413  0.00  0.00    +0.000 A 
ATOM     11  C   UNL     1       6.586   4.644  17.494  0.00  0.00    +0.000 A 
ATOM     12  C   UNL     1       7.322   4.852  16.324  0.00  0.00    +0.000 A 
ATOM     13  C   UNL     1       6.700   4.740  15.081  0.00  0.00    +0.000 A 
ATOM     14 CL   UNL     1       7.604   5.019  13.645  0.00  0.00    +0.000 Cl
ATOM     15  C   UNL     1       5.349   4.398  14.996  0.00  0.00    +0.000 A 
ATOM     16  C   UNL     1       4.607   4.185  16.165  0.00  0.00    +0.000 A 
ENDBRANCH   7  10
ENDBRANCH   5   7
ENDBRANCH   3   5
BRANCH   1  17
ATOM     17  C   UNL     1       1.732   8.029  18.164  0.00  0.00    +0.000 C 
BRANCH  17  18
ATOM     18  C   UNL     1       1.969   9.486  17.773  0.00  0.00    +0.000 C 
BRANCH  18  20
ATOM     19  N   UNL     1       0.347   9.851  19.566  0.00  0.00    +0.000 N 
ATOM     20  C   UNL     1       1.323  10.439  18.773  0.00  0.00    +0.000 C 
ATOM     21  O   UNL     1       1.715  11.593  18.869  0.00  0.00    +0.000 OA
ATOM     22  H   UNL     1       0.321   8.838  19.609  0.00  0.00    +0.000 HD
BRANCH  19  29
ATOM     23  C   UNL     1      -2.990  13.242  20.925  0.00  0.00    +0.000 C 
ATOM     24  C   UNL     1      -1.970  12.208  21.296  0.00  0.00    +0.000 A 
ATOM     25  C   UNL     1      -1.756  11.856  22.630  0.00  0.00    +0.000 A 
ATOM     26  C   UNL     1      -0.837  10.858  22.953  0.00  0.00    +0.000 A 
ATOM     27  C   UNL     1      -0.125  10.176  21.951  0.00  0.00    +0.000 A 
ATOM     28  C   UNL     1       0.886   9.145  22.368  0.00  0.00    +0.000 C 
ATOM     29  C   UNL     1      -0.317  10.546  20.606  0.00  0.00    +0.000 A 
ATOM     30  C   UNL     1      -1.223  11.559  20.289  0.00  0.00    +0.000 A 
ENDBRANCH  19  29
ENDBRANCH  18  20
ENDBRANCH  17  18
ENDBRANCH   1  17
TORSDOF 7
ENDMDL
MODEL 9
REMARK VINA RESULT:      -7.6      5.461      8.068
REMARK  Name = 
REMARK  9 active torsions:
REMARK  status: ('A' for Active; 'I' for Inactive)
REMARK    1  A    between atoms: C_1  and  C_2
REMARK    2  A    between atoms: C_5  and  C_6
REMARK    3  A    between atoms: C_7  and  N_8
REMARK    4  A    between atoms: C_9  and  C_11
REMARK    5  A    between atoms: C_11  and  C_12
REMARK    6  A    between atoms: C_12  and  C_13
REMARK    7  A    between atoms: N_15  and  N_16
REMARK    8  A    between atoms: N_16  and  S_17
REMARK    9  A    between atoms: S_17  and  C_20
REMARK                            x       y       z     vdW  Elec       q    Type
REMARK                         _______ _______ _______ _____ _____    ______ ____
ROOT
ATOM      1  C   UNL     1       1.966   7.164  19.958  0.00  0.00    +0.000 C 
ATOM      2  O   UNL     1       2.296   7.595  18.857  0.00  0.00    +0.000 OA
ATOM      3  N   UNL     1       1.576   7.985  20.996  0.00  0.00    +0.000 N 
ATOM      4  H   UNL     1       1.183   7.628  21.866  0.00  0.00    +0.000 HD
ENDROOT
BRANCH   3   5
ATOM      5  N   UNL     1       1.486   9.431  20.768  0.00  0.00    +0.000 NA
ATOM      6  H   UNL     1       2.020   9.825  19.984  0.00  0.00    +0.000 HD
BRANCH   5   7
ATOM      7  S   UNL     1       0.054  10.201  21.273  0.00  0.00    +0.000 S 
ATOM      8  O   UNL     1      -0.682   9.227  22.056  0.00  0.00    +0.000 OA
ATOM      9  O   UNL     1       0.428  11.476  21.840  0.00  0.00    +0.000 OA
BRANCH   7  10
ATOM     10  C   UNL     1      -0.835  10.478  19.761  0.00  0.00    +0.000 A 
ATOM     11  C   UNL     1      -1.624  11.623  19.624  0.00  0.00    +0.000 A 
ATOM     12  C   UNL     1      -2.272  11.879  18.413  0.00  0.00    +0.000 A 
ATOM     13  C   UNL     1      -2.121  10.998  17.342  0.00  0.00    +0.000 A 
ATOM     14 CL   UNL     1      -2.940  11.306  15.861  0.00  0.00    +0.000 Cl
ATOM     15  C   UNL     1      -1.305   9.872  17.464  0.00  0.00    +0.000 A 
ATOM     16  C   UNL     1      -0.650   9.612  18.674  0.00  0.00    +0.000 A 
ENDBRANCH   7  10
ENDBRANCH   5   7
ENDBRANCH   3   5
BRANCH   1  17
ATOM     17  C   UNL     1       1.976   5.675  20.280  0.00  0.00    +0.000 C 
BRANCH  17  18
ATOM     18  C   UNL     1       1.627   4.790  19.087  0.00  0.00    +0.000 C 
BRANCH  18  20
ATOM     19  N   UNL     1       3.608   5.158  17.702  0.00  0.00    +0.000 N 
ATOM     20  C   UNL     1       2.882   4.225  18.430  0.00  0.00    +0.000 C 
ATOM     21  O   UNL     1       3.208   3.062  18.617  0.00  0.00    +0.000 OA
ATOM     22  H   UNL     1       3.413   6.140  17.866  0.00  0.00    +0.000 HD
BRANCH  19  29
ATOM     23  C   UNL     1       6.077   3.865  13.613  0.00  0.00    +0.000 C 
ATOM     24  C   UNL     1       6.080   4.227  15.068  0.00  0.00    +0.000 A 
ATOM     25  C   UNL     1       7.279   4.368  15.770  0.00  0.00    +0.000 A 
ATOM     26  C   UNL     1       7.265   4.751  17.111  0.00  0.00    +0.000 A 
ATOM     27  C   UNL     1       6.056   5.020  17.776  0.00  0.00    +0.000 A 
ATOM     28  C   UNL     1       6.107   5.381  19.234  0.00  0.00    +0.000 C 
ATOM     29  C   UNL     1       4.843   4.853  17.080  0.00  0.00    +0.000 A 
ATOM     30  C   UNL     1       4.861   4.450  15.744  0.00  0.00    +0.000 A 
ENDBRANCH  19  29
ENDBRANCH  18  20
ENDBRANCH  17  18
ENDBRANCH   1  17
TORSDOF 7
ENDMDL
