MODEL 1
REMARK VINA RESULT:      -8.2      0.000      0.000
REMARK  Name = 
REMARK  7 active torsions:
REMARK  status: ('A' for Active; 'I' for Inactive)
REMARK    1  A    between atoms: C_2  and  C_3
REMARK    2  A    between atoms: C_3  and  N_4
REMARK    3  A    between atoms: N_4  and  C_16
REMARK    4  A    between atoms: C_5  and  C_7
REMARK    5  A    between atoms: C_7  and  N_8
REMARK    6  A    between atoms: C_9  and  C_11
REMARK    7  A    between atoms: N_23  and  C_24
REMARK                            x       y       z     vdW  Elec       q    Type
REMARK                         _______ _______ _______ _____ _____    ______ ____
ROOT
ATOM      1  N   UNL     1       3.464   5.323  18.536  0.00  0.00    +0.000 N 
ATOM      2  C   UNL     1       4.772   4.952  18.226  0.00  0.00    +0.000 C 
ATOM      3  O   UNL     1       5.264   3.846  18.508  0.00  0.00    +0.000 OA
ENDROOT
BRANCH   1   4
ATOM      4  C   UNL     1       2.669   4.477  19.398  0.00  0.00    +0.000 A 
ATOM      5  C   UNL     1       2.891   4.401  20.781  0.00  0.00    +0.000 A 
ATOM      6  C   UNL     1       2.075   3.595  21.587  0.00  0.00    +0.000 A 
ATOM      7  C   UNL     1       1.019   2.880  21.024  0.00  0.00    +0.000 A 
ATOM      8  C   UNL     1       0.793   2.952  19.650  0.00  0.00    +0.000 A 
ATOM      9  C   UNL     1       1.624   3.730  18.853  0.00  0.00    +0.000 A 
ATOM     10  F   UNL     1       1.362   3.790  17.538  0.00  0.00    +0.000 F 
ENDBRANCH   1   4
BRANCH   1  11
ATOM     11  C   UNL     1       2.757   6.484  17.934  0.00  0.00    +0.000 C 
BRANCH  11  13
ATOM     12  O   UNL     1       2.219   7.599  20.062  0.00  0.00    +0.000 OA
ATOM     13  C   UNL     1       2.249   7.644  18.836  0.00  0.00    +0.000 C 
ATOM     14  N   UNL     1       1.907   8.784  18.124  0.00  0.00    +0.000 N 
ATOM     15  H   UNL     1       1.525   8.617  17.202  0.00  0.00    +0.000 HD
BRANCH  14  16
ATOM     16  C   UNL     1       1.490  10.026  18.764  0.00  0.00    +0.000 C 
ATOM     17  C   UNL     1       2.108  11.293  18.168  0.00  0.00    +0.000 C 
ATOM     18  C   UNL     1       1.149  12.411  18.569  0.00  0.00    +0.000 C 
ATOM     19  C   UNL     1      -0.227  11.766  18.692  0.00  0.00    +0.000 C 
ATOM     20  C   UNL     1      -0.007  10.264  18.545  0.00  0.00    +0.000 C 
ENDBRANCH  14  16
ENDBRANCH  11  13
ENDBRANCH   1  11
BRANCH   2  21
ATOM     21  C   UNL     1       5.656   5.955  17.495  0.00  0.00    +0.000 C 
BRANCH  21  22
ATOM     22  N   UNL     1       5.791   5.653  16.091  0.00  0.00    +0.000 N 
ATOM     23  C   UNL     1       6.866   4.944  15.614  0.00  0.00    +0.000 C 
ATOM     24  O   UNL     1       7.831   4.668  16.329  0.00  0.00    +0.000 OA
ATOM     25  H   UNL     1       5.023   5.878  15.467  0.00  0.00    +0.000 HD
BRANCH  23  26
ATOM     26  C   UNL     1       6.811   4.564  14.216  0.00  0.00    +0.000 A 
ATOM     27  C   UNL     1       5.908   3.682  13.648  0.00  0.00    +0.000 A 
ATOM     28  C   UNL     1       6.140   3.490  12.262  0.00  0.00    +0.000 A 
ATOM     29  C   UNL     1       7.201   4.239  11.808  0.00  0.00    +0.000 A 
ATOM     30  S   UNL     1       7.895   5.189  13.047  0.00  0.00    +0.000 S 
ENDBRANCH  23  26
ENDBRANCH  21  22
ENDBRANCH   2  21
TORSDOF 7
ENDMDL
MODEL 2
REMARK VINA RESULT:      -8.2      1.519      1.805
REMARK  Name = 
REMARK  7 active torsions:
REMARK  status: ('A' for Active; 'I' for Inactive)
REMARK    1  A    between atoms: C_2  and  C_3
REMARK    2  A    between atoms: C_3  and  N_4
REMARK    3  A    between atoms: N_4  and  C_16
REMARK    4  A    between atoms: C_5  and  C_7
REMARK    5  A    between atoms: C_7  and  N_8
REMARK    6  A    between atoms: C_9  and  C_11
REMARK    7  A    between atoms: N_23  and  C_24
REMARK                            x       y       z     vdW  Elec       q    Type
REMARK                         _______ _______ _______ _____ _____    ______ ____
ROOT
ATOM      1  N   UNL     1       3.288   5.482  18.498  0.00  0.00    +0.000 N 
ATOM      2  C   UNL     1       4.630   5.238  18.207  0.00  0.00    +0.000 C 
ATOM      3  O   UNL     1       5.231   4.199  18.530  0.00  0.00    +0.000 OA
ENDROOT
BRANCH   1   4
ATOM      4  C   UNL     1       2.578   4.587  19.386  0.00  0.00    +0.000 A 
ATOM      5  C   UNL     1       2.792   4.585  20.771  0.00  0.00    +0.000 A 
ATOM      6  C   UNL     1       2.058   3.726  21.601  0.00  0.00    +0.000 A 
ATOM      7  C   UNL     1       1.089   2.883  21.058  0.00  0.00    +0.000 A 
ATOM      8  C   UNL     1       0.871   2.882  19.682  0.00  0.00    +0.000 A 
ATOM      9  C   UNL     1       1.623   3.714  18.861  0.00  0.00    +0.000 A 
ATOM     10  F   UNL     1       1.370   3.700  17.544  0.00  0.00    +0.000 F 
ENDBRANCH   1   4
BRANCH   1  11
ATOM     11  C   UNL     1       2.468   6.541  17.852  0.00  0.00    +0.000 C 
BRANCH  11  13
ATOM     12  O   UNL     1       2.662   8.990  18.019  0.00  0.00    +0.000 OA
ATOM     13  C   UNL     1       2.312   7.931  18.531  0.00  0.00    +0.000 C 
ATOM     14  N   UNL     1       1.655   7.875  19.752  0.00  0.00    +0.000 N 
ATOM     15  H   UNL     1       1.815   7.032  20.287  0.00  0.00    +0.000 HD
BRANCH  14  16
ATOM     16  C   UNL     1       1.316   9.062  20.528  0.00  0.00    +0.000 C 
ATOM     17  C   UNL     1       0.007   9.741  20.120  0.00  0.00    +0.000 C 
ATOM     18  C   UNL     1      -0.410  10.540  21.353  0.00  0.00    +0.000 C 
ATOM     19  C   UNL     1       0.159   9.791  22.554  0.00  0.00    +0.000 C 
ATOM     20  C   UNL     1       1.044   8.687  21.987  0.00  0.00    +0.000 C 
ENDBRANCH  14  16
ENDBRANCH  11  13
ENDBRANCH   1  11
BRANCH   2  21
ATOM     21  C   UNL     1       5.411   6.302  17.445  0.00  0.00    +0.000 C 
BRANCH  21  22
ATOM     22  N   UNL     1       5.647   5.936  16.070  0.00  0.00    +0.000 N 
ATOM     23  C   UNL     1       6.776   5.247  15.700  0.00  0.00    +0.000 C 
ATOM     24  O   UNL     1       7.702   5.044  16.487  0.00  0.00    +0.000 OA
ATOM     25  H   UNL     1       4.914   6.100  15.388  0.00  0.00    +0.000 HD
BRANCH  23  26
ATOM     26  C   UNL     1       6.825   4.796  14.323  0.00  0.00    +0.000 A 
ATOM     27  C   UNL     1       7.721   5.221  13.358  0.00  0.00    +0.000 A 
ATOM     28  C   UNL     1       7.485   4.619  12.096  0.00  0.00    +0.000 A 
ATOM     29  C   UNL     1       6.426   3.741  12.135  0.00  0.00    +0.000 A 
ATOM     30  S   UNL     1       5.741   3.627  13.696  0.00  0.00    +0.000 S 
ENDBRANCH  23  26
ENDBRANCH  21  22
ENDBRANCH   2  21
TORSDOF 7
ENDMDL
MODEL 3
REMARK VINA RESULT:      -8.0      3.049      7.823
REMARK  Name = 
REMARK  7 active torsions:
REMARK  status: ('A' for Active; 'I' for Inactive)
REMARK    1  A    between atoms: C_2  and  C_3
REMARK    2  A    between atoms: C_3  and  N_4
REMARK    3  A    between atoms: N_4  and  C_16
REMARK    4  A    between atoms: C_5  and  C_7
REMARK    5  A    between atoms: C_7  and  N_8
REMARK    6  A    between atoms: C_9  and  C_11
REMARK    7  A    between atoms: N_23  and  C_24
REMARK                            x       y       z     vdW  Elec       q    Type
REMARK                         _______ _______ _______ _____ _____    ______ ____
ROOT
ATOM      1  N   UNL     1       3.649   6.090  17.795  0.00  0.00    +0.000 N 
ATOM      2  C   UNL     1       2.719   6.958  18.365  0.00  0.00    +0.000 C 
ATOM      3  O   UNL     1       1.909   6.624  19.247  0.00  0.00    +0.000 OA
ENDROOT
BRANCH   1   4
ATOM      4  C   UNL     1       3.570   4.674  18.080  0.00  0.00    +0.000 A 
ATOM      5  C   UNL     1       2.733   3.812  17.357  0.00  0.00    +0.000 A 
ATOM      6  C   UNL     1       2.711   2.440  17.642  0.00  0.00    +0.000 A 
ATOM      7  C   UNL     1       3.541   1.915  18.632  0.00  0.00    +0.000 A 
ATOM      8  C   UNL     1       4.376   2.766  19.353  0.00  0.00    +0.000 A 
ATOM      9  C   UNL     1       4.371   4.130  19.086  0.00  0.00    +0.000 A 
ATOM     10  F   UNL     1       5.203   4.914  19.787  0.00  0.00    +0.000 F 
ENDBRANCH   1   4
BRANCH   1  11
ATOM     11  C   UNL     1       4.826   6.526  16.998  0.00  0.00    +0.000 C 
BRANCH  11  13
ATOM     12  O   UNL     1       6.649   4.885  16.788  0.00  0.00    +0.000 OA
ATOM     13  C   UNL     1       5.708   5.476  16.266  0.00  0.00    +0.000 C 
ATOM     14  N   UNL     1       5.278   5.200  14.977  0.00  0.00    +0.000 N 
ATOM     15  H   UNL     1       4.857   5.980  14.488  0.00  0.00    +0.000 HD
BRANCH  14  16
ATOM     16  C   UNL     1       5.895   4.184  14.132  0.00  0.00    +0.000 C 
ATOM     17  C   UNL     1       4.988   3.627  13.033  0.00  0.00    +0.000 C 
ATOM     18  C   UNL     1       5.951   3.066  11.990  0.00  0.00    +0.000 C 
ATOM     19  C   UNL     1       7.226   3.896  12.102  0.00  0.00    +0.000 C 
ATOM     20  C   UNL     1       7.046   4.790  13.324  0.00  0.00    +0.000 C 
ENDBRANCH  14  16
ENDBRANCH  11  13
ENDBRANCH   1  11
BRANCH   2  21
ATOM     21  C   UNL     1       2.690   8.404  17.888  0.00  0.00    +0.000 C 
BRANCH  21  22
ATOM     22  N   UNL     1       1.348   8.907  17.721  0.00  0.00    +0.000 N 
ATOM     23  C   UNL     1       0.765   9.709  18.671  0.00  0.00    +0.000 C 
ATOM     24  O   UNL     1       1.293   9.910  19.766  0.00  0.00    +0.000 OA
ATOM     25  H   UNL     1       0.874   8.750  16.838  0.00  0.00    +0.000 HD
BRANCH  23  26
ATOM     26  C   UNL     1      -0.519  10.283  18.321  0.00  0.00    +0.000 A 
ATOM     27  C   UNL     1      -1.402   9.787  17.378  0.00  0.00    +0.000 A 
ATOM     28  C   UNL     1      -2.558  10.598  17.239  0.00  0.00    +0.000 A 
ATOM     29  C   UNL     1      -2.532  11.680  18.088  0.00  0.00    +0.000 A 
ATOM     30  S   UNL     1      -1.131  11.699  19.065  0.00  0.00    +0.000 S 
ENDBRANCH  23  26
ENDBRANCH  21  22
ENDBRANCH   2  21
TORSDOF 7
ENDMDL
MODEL 4
REMARK VINA RESULT:      -7.9      2.809      7.739
REMARK  Name = 
REMARK  7 active torsions:
REMARK  status: ('A' for Active; 'I' for Inactive)
REMARK    1  A    between atoms: C_2  and  C_3
REMARK    2  A    between atoms: C_3  and  N_4
REMARK    3  A    between atoms: N_4  and  C_16
REMARK    4  A    between atoms: C_5  and  C_7
REMARK    5  A    between atoms: C_7  and  N_8
REMARK    6  A    between atoms: C_9  and  C_11
REMARK    7  A    between atoms: N_23  and  C_24
REMARK                            x       y       z     vdW  Elec       q    Type
REMARK                         _______ _______ _______ _____ _____    ______ ____
ROOT
ATOM      1  N   UNL     1       3.956   5.472  18.154  0.00  0.00    +0.000 N 
ATOM      2  C   UNL     1       2.903   6.279  18.584  0.00  0.00    +0.000 C 
ATOM      3  O   UNL     1       2.007   5.896  19.356  0.00  0.00    +0.000 OA
ENDROOT
BRANCH   1   4
ATOM      4  C   UNL     1       3.933   4.056  18.446  0.00  0.00    +0.000 A 
ATOM      5  C   UNL     1       4.566   3.516  19.575  0.00  0.00    +0.000 A 
ATOM      6  C   UNL     1       4.491   2.141  19.840  0.00  0.00    +0.000 A 
ATOM      7  C   UNL     1       3.765   1.302  18.996  0.00  0.00    +0.000 A 
ATOM      8  C   UNL     1       3.132   1.833  17.874  0.00  0.00    +0.000 A 
ATOM      9  C   UNL     1       3.236   3.192  17.600  0.00  0.00    +0.000 A 
ATOM     10  F   UNL     1       2.596   3.669  16.522  0.00  0.00    +0.000 F 
ENDBRANCH   1   4
BRANCH   1  11
ATOM     11  C   UNL     1       5.196   5.983  17.512  0.00  0.00    +0.000 C 
BRANCH  11  13
ATOM     12  O   UNL     1       6.996   4.392  16.972  0.00  0.00    +0.000 OA
ATOM     13  C   UNL     1       6.038   5.056  16.590  0.00  0.00    +0.000 C 
ATOM     14  N   UNL     1       5.548   4.981  15.293  0.00  0.00    +0.000 N 
ATOM     15  H   UNL     1       5.112   5.826  14.949  0.00  0.00    +0.000 HD
BRANCH  14  16
ATOM     16  C   UNL     1       6.121   4.106  14.277  0.00  0.00    +0.000 C 
ATOM     17  C   UNL     1       5.129   3.619  13.219  0.00  0.00    +0.000 C 
ATOM     18  C   UNL     1       6.000   3.239  12.024  0.00  0.00    +0.000 C 
ATOM     19  C   UNL     1       7.237   4.129  12.102  0.00  0.00    +0.000 C 
ATOM     20  C   UNL     1       7.146   4.868  13.432  0.00  0.00    +0.000 C 
ENDBRANCH  14  16
ENDBRANCH  11  13
ENDBRANCH   1  11
BRANCH   2  21
ATOM     21  C   UNL     1       2.842   7.718  18.086  0.00  0.00    +0.000 C 
BRANCH  21  22
ATOM     22  N   UNL     1       1.921   8.528  18.846  0.00  0.00    +0.000 N 
ATOM     23  C   UNL     1       1.552   9.780  18.415  0.00  0.00    +0.000 C 
ATOM     24  O   UNL     1       2.099  10.325  17.455  0.00  0.00    +0.000 OA
ATOM     25  H   UNL     1       1.461   8.120  19.652  0.00  0.00    +0.000 HD
BRANCH  23  26
ATOM     26  C   UNL     1       0.502  10.430  19.173  0.00  0.00    +0.000 A 
ATOM     27  C   UNL     1      -0.628  11.033  18.647  0.00  0.00    +0.000 A 
ATOM     28  C   UNL     1      -1.446  11.615  19.648  0.00  0.00    +0.000 A 
ATOM     29  C   UNL     1      -0.929  11.429  20.909  0.00  0.00    +0.000 A 
ATOM     30  S   UNL     1       0.525  10.532  20.882  0.00  0.00    +0.000 S 
ENDBRANCH  23  26
ENDBRANCH  21  22
ENDBRANCH   2  21
TORSDOF 7
ENDMDL
MODEL 5
REMARK VINA RESULT:      -7.8      2.909      7.524
REMARK  Name = 
REMARK  7 active torsions:
REMARK  status: ('A' for Active; 'I' for Inactive)
REMARK    1  A    between atoms: C_2  and  C_3
REMARK    2  A    between atoms: C_3  and  N_4
REMARK    3  A    between atoms: N_4  and  C_16
REMARK    4  A    between atoms: C_5  and  C_7
REMARK    5  A    between atoms: C_7  and  N_8
REMARK    6  A    between atoms: C_9  and  C_11
REMARK    7  A    between atoms: N_23  and  C_24
REMARK                            x       y       z     vdW  Elec       q    Type
REMARK                         _______ _______ _______ _____ _____    ______ ____
ROOT
ATOM      1  N   UNL     1       5.445   4.735  15.753  0.00  0.00    +0.000 N 
ATOM      2  C   UNL     1       5.139   6.065  16.037  0.00  0.00    +0.000 C 
ATOM      3  O   UNL     1       5.041   6.953  15.173  0.00  0.00    +0.000 OA
ENDROOT
BRANCH   1   4
ATOM      4  C   UNL     1       5.866   4.370  14.418  0.00  0.00    +0.000 A 
ATOM      5  C   UNL     1       5.039   3.649  13.545  0.00  0.00    +0.000 A 
ATOM      6  C   UNL     1       5.472   3.345  12.247  0.00  0.00    +0.000 A 
ATOM      7  C   UNL     1       6.720   3.780  11.803  0.00  0.00    +0.000 A 
ATOM      8  C   UNL     1       7.546   4.498  12.666  0.00  0.00    +0.000 A 
ATOM      9  C   UNL     1       7.123   4.769  13.961  0.00  0.00    +0.000 A 
ATOM     10  F   UNL     1       7.937   5.481  14.755  0.00  0.00    +0.000 F 
ENDBRANCH   1   4
BRANCH   1  11
ATOM     11  C   UNL     1       5.248   3.607  16.702  0.00  0.00    +0.000 C 
BRANCH  11  13
ATOM     12  O   UNL     1       2.812   3.259  16.620  0.00  0.00    +0.000 OA
ATOM     13  C   UNL     1       3.838   3.318  17.290  0.00  0.00    +0.000 C 
ATOM     14  N   UNL     1       3.856   3.044  18.651  0.00  0.00    +0.000 N 
ATOM     15  H   UNL     1       4.567   3.534  19.178  0.00  0.00    +0.000 HD
BRANCH  14  16
ATOM     16  C   UNL     1       2.667   2.658  19.400  0.00  0.00    +0.000 C 
ATOM     17  C   UNL     1       2.835   2.672  20.921  0.00  0.00    +0.000 C 
ATOM     18  C   UNL     1       1.414   2.805  21.462  0.00  0.00    +0.000 C 
ATOM     19  C   UNL     1       0.624   3.557  20.396  0.00  0.00    +0.000 C 
ATOM     20  C   UNL     1       1.548   3.681  19.190  0.00  0.00    +0.000 C 
ENDBRANCH  14  16
ENDBRANCH  11  13
ENDBRANCH   1  11
BRANCH   2  21
ATOM     21  C   UNL     1       4.905   6.461  17.489  0.00  0.00    +0.000 C 
BRANCH  21  22
ATOM     22  N   UNL     1       3.757   7.318  17.652  0.00  0.00    +0.000 N 
ATOM     23  C   UNL     1       2.984   7.267  18.787  0.00  0.00    +0.000 C 
ATOM     24  O   UNL     1       3.140   6.392  19.641  0.00  0.00    +0.000 OA
ATOM     25  H   UNL     1       3.585   8.042  16.962  0.00  0.00    +0.000 HD
BRANCH  23  26
ATOM     26  C   UNL     1       1.958   8.284  18.907  0.00  0.00    +0.000 A 
ATOM     27  C   UNL     1       1.454   9.058  17.876  0.00  0.00    +0.000 A 
ATOM     28  C   UNL     1       0.485   9.992  18.324  0.00  0.00    +0.000 A 
ATOM     29  C   UNL     1       0.266   9.896  19.679  0.00  0.00    +0.000 A 
ATOM     30  S   UNL     1       1.207   8.665  20.398  0.00  0.00    +0.000 S 
ENDBRANCH  23  26
ENDBRANCH  21  22
ENDBRANCH   2  21
TORSDOF 7
ENDMDL
MODEL 6
REMARK VINA RESULT:      -7.8      1.409      1.686
REMARK  Name = 
REMARK  7 active torsions:
REMARK  status: ('A' for Active; 'I' for Inactive)
REMARK    1  A    between atoms: C_2  and  C_3
REMARK    2  A    between atoms: C_3  and  N_4
REMARK    3  A    between atoms: N_4  and  C_16
REMARK    4  A    between atoms: C_5  and  C_7
REMARK    5  A    between atoms: C_7  and  N_8
REMARK    6  A    between atoms: C_9  and  C_11
REMARK    7  A    between atoms: N_23  and  C_24
REMARK                            x       y       z     vdW  Elec       q    Type
REMARK                         _______ _______ _______ _____ _____    ______ ____
ROOT
ATOM      1  N   UNL     1       3.966   4.369  18.464  0.00  0.00    +0.000 N 
ATOM      2  C   UNL     1       5.232   3.810  18.635  0.00  0.00    +0.000 C 
ATOM      3  O   UNL     1       5.455   2.799  19.322  0.00  0.00    +0.000 OA
ENDROOT
BRANCH   1   4
ATOM      4  C   UNL     1       2.861   3.889  19.265  0.00  0.00    +0.000 A 
ATOM      5  C   UNL     1       2.657   4.315  20.586  0.00  0.00    +0.000 A 
ATOM      6  C   UNL     1       1.553   3.852  21.317  0.00  0.00    +0.000 A 
ATOM      7  C   UNL     1       0.635   2.983  20.728  0.00  0.00    +0.000 A 
ATOM      8  C   UNL     1       0.833   2.558  19.416  0.00  0.00    +0.000 A 
ATOM      9  C   UNL     1       1.944   2.997  18.707  0.00  0.00    +0.000 A 
ATOM     10  F   UNL     1       2.089   2.583  17.439  0.00  0.00    +0.000 F 
ENDBRANCH   1   4
BRANCH   1  11
ATOM     11  C   UNL     1       3.620   5.356  17.407  0.00  0.00    +0.000 C 
BRANCH  11  13
ATOM     12  O   UNL     1       4.412   7.688  17.426  0.00  0.00    +0.000 OA
ATOM     13  C   UNL     1       3.552   6.872  17.745  0.00  0.00    +0.000 C 
ATOM     14  N   UNL     1       2.374   7.241  18.378  0.00  0.00    +0.000 N 
ATOM     15  H   UNL     1       1.974   6.538  18.985  0.00  0.00    +0.000 HD
BRANCH  14  16
ATOM     16  C   UNL     1       2.049   8.623  18.711  0.00  0.00    +0.000 C 
ATOM     17  C   UNL     1       1.011   9.275  17.796  0.00  0.00    +0.000 C 
ATOM     18  C   UNL     1       0.435  10.420  18.626  0.00  0.00    +0.000 C 
ATOM     19  C   UNL     1       0.558   9.990  20.083  0.00  0.00    +0.000 C 
ATOM     20  C   UNL     1       1.365   8.696  20.078  0.00  0.00    +0.000 C 
ENDBRANCH  14  16
ENDBRANCH  11  13
ENDBRANCH   1  11
BRANCH   2  21
ATOM     21  C   UNL     1       6.415   4.470  17.938  0.00  0.00    +0.000 C 
BRANCH  21  22
ATOM     22  N   UNL     1       6.389   4.285  16.508  0.00  0.00    +0.000 N 
ATOM     23  C   UNL     1       6.967   5.199  15.661  0.00  0.00    +0.000 C 
ATOM     24  O   UNL     1       7.394   6.282  16.066  0.00  0.00    +0.000 OA
ATOM     25  H   UNL     1       6.031   3.412  16.134  0.00  0.00    +0.000 HD
BRANCH  23  26
ATOM     26  C   UNL     1       7.020   4.827  14.261  0.00  0.00    +0.000 A 
ATOM     27  C   UNL     1       7.868   5.363  13.307  0.00  0.00    +0.000 A 
ATOM     28  C   UNL     1       7.648   4.815  12.018  0.00  0.00    +0.000 A 
ATOM     29  C   UNL     1       6.651   3.867  12.025  0.00  0.00    +0.000 A 
ATOM     30  S   UNL     1       6.004   3.623  13.587  0.00  0.00    +0.000 S 
ENDBRANCH  23  26
ENDBRANCH  21  22
ENDBRANCH   2  21
TORSDOF 7
ENDMDL
MODEL 7
REMARK VINA RESULT:      -7.7      3.122      8.062
REMARK  Name = 
REMARK  7 active torsions:
REMARK  status: ('A' for Active; 'I' for Inactive)
REMARK    1  A    between atoms: C_2  and  C_3
REMARK    2  A    between atoms: C_3  and  N_4
REMARK    3  A    between atoms: N_4  and  C_16
REMARK    4  A    between atoms: C_5  and  C_7
REMARK    5  A    between atoms: C_7  and  N_8
REMARK    6  A    between atoms: C_9  and  C_11
REMARK    7  A    between atoms: N_23  and  C_24
REMARK                            x       y       z     vdW  Elec       q    Type
REMARK                         _______ _______ _______ _____ _____    ______ ____
ROOT
ATOM      1  N   UNL     1       3.419   5.646  18.348  0.00  0.00    +0.000 N 
ATOM      2  C   UNL     1       2.542   6.365  19.159  0.00  0.00    +0.000 C 
ATOM      3  O   UNL     1       1.940   5.878  20.131  0.00  0.00    +0.000 OA
ENDROOT
BRANCH   1   4
ATOM      4  C   UNL     1       3.511   4.210  18.496  0.00  0.00    +0.000 A 
ATOM      5  C   UNL     1       4.326   3.610  19.466  0.00  0.00    +0.000 A 
ATOM      6  C   UNL     1       4.359   2.214  19.599  0.00  0.00    +0.000 A 
ATOM      7  C   UNL     1       3.564   1.412  18.783  0.00  0.00    +0.000 A 
ATOM      8  C   UNL     1       2.751   2.003  17.817  0.00  0.00    +0.000 A 
ATOM      9  C   UNL     1       2.745   3.385  17.671  0.00  0.00    +0.000 A 
ATOM     10  F   UNL     1       1.934   3.918  16.744  0.00  0.00    +0.000 F 
ENDBRANCH   1   4
BRANCH   1  11
ATOM     11  C   UNL     1       4.388   6.265  17.404  0.00  0.00    +0.000 C 
BRANCH  11  13
ATOM     12  O   UNL     1       6.402   4.862  17.214  0.00  0.00    +0.000 OA
ATOM     13  C   UNL     1       5.434   5.382  16.668  0.00  0.00    +0.000 C 
ATOM     14  N   UNL     1       5.125   5.161  15.333  0.00  0.00    +0.000 N 
ATOM     15  H   UNL     1       4.648   5.924  14.871  0.00  0.00    +0.000 HD
BRANCH  14  16
ATOM     16  C   UNL     1       5.913   4.292  14.468  0.00  0.00    +0.000 C 
ATOM     17  C   UNL     1       5.159   3.743  13.255  0.00  0.00    +0.000 C 
ATOM     18  C   UNL     1       6.255   3.377  12.257  0.00  0.00    +0.000 C 
ATOM     19  C   UNL     1       7.419   4.320  12.543  0.00  0.00    +0.000 C 
ATOM     20  C   UNL     1       7.049   5.080  13.811  0.00  0.00    +0.000 C 
ENDBRANCH  14  16
ENDBRANCH  11  13
ENDBRANCH   1  11
BRANCH   2  21
ATOM     21  C   UNL     1       2.307   7.837  18.845  0.00  0.00    +0.000 C 
BRANCH  21  22
ATOM     22  N   UNL     1       1.678   8.543  19.935  0.00  0.00    +0.000 N 
ATOM     23  C   UNL     1       0.789   9.564  19.705  0.00  0.00    +0.000 C 
ATOM     24  O   UNL     1       0.604  10.023  18.576  0.00  0.00    +0.000 OA
ATOM     25  H   UNL     1       1.817   8.204  20.882  0.00  0.00    +0.000 HD
BRANCH  23  26
ATOM     26  C   UNL     1       0.102  10.087  20.869  0.00  0.00    +0.000 A 
ATOM     27  C   UNL     1      -0.457  11.348  20.986  0.00  0.00    +0.000 A 
ATOM     28  C   UNL     1      -1.025  11.570  22.267  0.00  0.00    +0.000 A 
ATOM     29  C   UNL     1      -0.898  10.471  23.085  0.00  0.00    +0.000 A 
ATOM     30  S   UNL     1      -0.120   9.170  22.298  0.00  0.00    +0.000 S 
ENDBRANCH  23  26
ENDBRANCH  21  22
ENDBRANCH   2  21
TORSDOF 7
ENDMDL
MODEL 8
REMARK VINA RESULT:      -7.6      1.617      2.049
REMARK  Name = 
REMARK  7 active torsions:
REMARK  status: ('A' for Active; 'I' for Inactive)
REMARK    1  A    between atoms: C_2  and  C_3
REMARK    2  A    between atoms: C_3  and  N_4
REMARK    3  A    between atoms: N_4  and  C_16
REMARK    4  A    between atoms: C_5  and  C_7
REMARK    5  A    between atoms: C_7  and  N_8
REMARK    6  A    between atoms: C_9  and  C_11
REMARK    7  A    between atoms: N_23  and  C_24
REMARK                            x       y       z     vdW  Elec       q    Type
REMARK                         _______ _______ _______ _____ _____    ______ ____
ROOT
ATOM      1  N   UNL     1       3.070   5.393  18.219  0.00  0.00    +0.000 N 
ATOM      2  C   UNL     1       4.389   5.070  17.903  0.00  0.00    +0.000 C 
ATOM      3  O   UNL     1       4.908   3.966  18.141  0.00  0.00    +0.000 OA
ENDROOT
BRANCH   1   4
ATOM      4  C   UNL     1       2.293   4.491  19.040  0.00  0.00    +0.000 A 
ATOM      5  C   UNL     1       1.500   3.474  18.488  0.00  0.00    +0.000 A 
ATOM      6  C   UNL     1       0.789   2.599  19.320  0.00  0.00    +0.000 A 
ATOM      7  C   UNL     1       0.883   2.715  20.706  0.00  0.00    +0.000 A 
ATOM      8  C   UNL     1       1.670   3.723  21.261  0.00  0.00    +0.000 A 
ATOM      9  C   UNL     1       2.349   4.607  20.430  0.00  0.00    +0.000 A 
ATOM     10  F   UNL     1       3.113   5.550  21.001  0.00  0.00    +0.000 F 
ENDBRANCH   1   4
BRANCH   1  11
ATOM     11  C   UNL     1       2.335   6.560  17.663  0.00  0.00    +0.000 C 
BRANCH  11  13
ATOM     12  O   UNL     1       2.904   8.918  18.088  0.00  0.00    +0.000 OA
ATOM     13  C   UNL     1       2.304   7.907  18.439  0.00  0.00    +0.000 C 
ATOM     14  N   UNL     1       1.455   7.888  19.536  0.00  0.00    +0.000 N 
ATOM     15  H   UNL     1       1.382   6.996  20.008  0.00  0.00    +0.000 HD
BRANCH  14  16
ATOM     16  C   UNL     1       1.196   9.062  20.361  0.00  0.00    +0.000 C 
ATOM     17  C   UNL     1      -0.190   9.683  20.173  0.00  0.00    +0.000 C 
ATOM     18  C   UNL     1      -0.435  10.467  21.461  0.00  0.00    +0.000 C 
ATOM     19  C   UNL     1       0.351   9.747  22.551  0.00  0.00    +0.000 C 
ATOM     20  C   UNL     1       1.179   8.680  21.844  0.00  0.00    +0.000 C 
ENDBRANCH  14  16
ENDBRANCH  11  13
ENDBRANCH   1  11
BRANCH   2  21
ATOM     21  C   UNL     1       5.250   6.125  17.220  0.00  0.00    +0.000 C 
BRANCH  21  22
ATOM     22  N   UNL     1       5.537   5.801  15.844  0.00  0.00    +0.000 N 
ATOM     23  C   UNL     1       6.648   5.070  15.502  0.00  0.00    +0.000 C 
ATOM     24  O   UNL     1       7.522   4.790  16.324  0.00  0.00    +0.000 OA
ATOM     25  H   UNL     1       4.848   6.028  15.135  0.00  0.00    +0.000 HD
BRANCH  23  26
ATOM     26  C   UNL     1       6.745   4.669  14.112  0.00  0.00    +0.000 A 
ATOM     27  C   UNL     1       5.937   3.745  13.473  0.00  0.00    +0.000 A 
ATOM     28  C   UNL     1       6.310   3.544  12.119  0.00  0.00    +0.000 A 
ATOM     29  C   UNL     1       7.381   4.329  11.758  0.00  0.00    +0.000 A 
ATOM     30  S   UNL     1       7.912   5.322  13.043  0.00  0.00    +0.000 S 
ENDBRANCH  23  26
ENDBRANCH  21  22
ENDBRANCH   2  21
TORSDOF 7
ENDMDL
MODEL 9
REMARK VINA RESULT:      -7.6      1.495      1.912
REMARK  Name = 
REMARK  7 active torsions:
REMARK  status: ('A' for Active; 'I' for Inactive)
REMARK    1  A    between atoms: C_2  and  C_3
REMARK    2  A    between atoms: C_3  and  N_4
REMARK    3  A    between atoms: N_4  and  C_16
REMARK    4  A    between atoms: C_5  and  C_7
REMARK    5  A    between atoms: C_7  and  N_8
REMARK    6  A    between atoms: C_9  and  C_11
REMARK    7  A    between atoms: N_23  and  C_24
REMARK                            x       y       z     vdW  Elec       q    Type
REMARK                         _______ _______ _______ _____ _____    ______ ____
ROOT
ATOM      1  N   UNL     1       3.610   5.084  18.506  0.00  0.00    +0.000 N 
ATOM      2  C   UNL     1       4.993   4.908  18.484  0.00  0.00    +0.000 C 
ATOM      3  O   UNL     1       5.572   3.914  18.955  0.00  0.00    +0.000 OA
ENDROOT
BRANCH   1   4
ATOM      4  C   UNL     1       2.788   4.178  19.278  0.00  0.00    +0.000 A 
ATOM      5  C   UNL     1       2.349   2.948  18.767  0.00  0.00    +0.000 A 
ATOM      6  C   UNL     1       1.583   2.083  19.561  0.00  0.00    +0.000 A 
ATOM      7  C   UNL     1       1.272   2.427  20.876  0.00  0.00    +0.000 A 
ATOM      8  C   UNL     1       1.707   3.647  21.390  0.00  0.00    +0.000 A 
ATOM      9  C   UNL     1       2.441   4.513  20.588  0.00  0.00    +0.000 A 
ATOM     10  F   UNL     1       2.859   5.669  21.124  0.00  0.00    +0.000 F 
ENDBRANCH   1   4
BRANCH   1  11
ATOM     11  C   UNL     1       2.877   6.077  17.676  0.00  0.00    +0.000 C 
BRANCH  11  13
ATOM     12  O   UNL     1       3.378   8.488  17.683  0.00  0.00    +0.000 OA
ATOM     13  C   UNL     1       2.743   7.550  18.156  0.00  0.00    +0.000 C 
ATOM     14  N   UNL     1       1.765   7.725  19.125  0.00  0.00    +0.000 N 
ATOM     15  H   UNL     1       1.639   6.943  19.754  0.00  0.00    +0.000 HD
BRANCH  14  16
ATOM     16  C   UNL     1       1.401   9.032  19.659  0.00  0.00    +0.000 C 
ATOM     17  C   UNL     1       0.344   9.784  18.847  0.00  0.00    +0.000 C 
ATOM     18  C   UNL     1      -0.265  10.775  19.836  0.00  0.00    +0.000 C 
ATOM     19  C   UNL     1      -0.129  10.135  21.214  0.00  0.00    +0.000 C 
ATOM     20  C   UNL     1       0.715   8.881  21.019  0.00  0.00    +0.000 C 
ENDBRANCH  14  16
ENDBRANCH  11  13
ENDBRANCH   1  11
BRANCH   2  21
ATOM     21  C   UNL     1       5.851   5.991  17.842  0.00  0.00    +0.000 C 
BRANCH  21  22
ATOM     22  N   UNL     1       6.026   5.791  16.424  0.00  0.00    +0.000 N 
ATOM     23  C   UNL     1       7.028   4.989  15.936  0.00  0.00    +0.000 C 
ATOM     24  O   UNL     1       7.908   4.530  16.667  0.00  0.00    +0.000 OA
ATOM     25  H   UNL     1       5.330   6.166  15.788  0.00  0.00    +0.000 HD
BRANCH  23  26
ATOM     26  C   UNL     1       7.005   4.735  14.509  0.00  0.00    +0.000 A 
ATOM     27  C   UNL     1       7.840   5.309  13.567  0.00  0.00    +0.000 A 
ATOM     28  C   UNL     1       7.540   4.884  12.247  0.00  0.00    +0.000 A 
ATOM     29  C   UNL     1       6.496   3.988  12.220  0.00  0.00    +0.000 A 
ATOM     30  S   UNL     1       5.901   3.644  13.784  0.00  0.00    +0.000 S 
ENDBRANCH  23  26
ENDBRANCH  21  22
ENDBRANCH   2  21
TORSDOF 7
ENDMDL
