MODEL 1
REMARK VINA RESULT:      -7.8      0.000      0.000
REMARK  Name = 
REMARK  4 active torsions:
REMARK  status: ('A' for Active; 'I' for Inactive)
REMARK    1  A    between atoms: C_6  and  C_7
REMARK    2  A    between atoms: C_7  and  C_8
REMARK    3  A    between atoms: C_8  and  C_9
REMARK    4  A    between atoms: N_14  and  C_15
REMARK                            x       y       z     vdW  Elec       q    Type
REMARK                         _______ _______ _______ _____ _____    ______ ____
ROOT
ATOM      1  C   UNL     1       3.394   6.366  18.747  0.00  0.00    +0.000 C 
ATOM      2  O   UNL     1       3.543   5.518  19.627  0.00  0.00    +0.000 OA
ATOM      3  N   UNL     1       2.481   7.397  18.862  0.00  0.00    +0.000 N 
ATOM      4  C   UNL     1       1.656   7.477  20.075  0.00  0.00    +0.000 C 
ATOM      5  C   UNL     1       1.430   8.935  20.503  0.00  0.00    +0.000 C 
ATOM      6  N   UNL     1       0.905   9.720  19.372  0.00  0.00    +0.000 N 
ATOM      7  C   UNL     1       1.737   9.684  18.161  0.00  0.00    +0.000 C 
ATOM      8  C   UNL     1       2.001   8.224  17.744  0.00  0.00    +0.000 C 
ENDROOT
BRANCH   6   9
ATOM      9  C   UNL     1      -0.239  10.485  19.463  0.00  0.00    +0.000 A 
ATOM     10  C   UNL     1      -0.528  11.253  20.605  0.00  0.00    +0.000 A 
ATOM     11  C   UNL     1      -1.678  12.045  20.689  0.00  0.00    +0.000 A 
ATOM     12  C   UNL     1      -2.563  12.077  19.625  0.00  0.00    +0.000 A 
ATOM     13  F   UNL     1      -3.664  12.834  19.702  0.00  0.00    +0.000 F 
ATOM     14  C   UNL     1      -2.318  11.336  18.482  0.00  0.00    +0.000 A 
ATOM     15  C   UNL     1      -1.163  10.550  18.407  0.00  0.00    +0.000 A 
ENDBRANCH   6   9
BRANCH   1  16
ATOM     16  C   UNL     1       4.279   6.373  17.512  0.00  0.00    +0.000 C 
BRANCH  16  17
ATOM     17  C   UNL     1       4.725   4.976  17.081  0.00  0.00    +0.000 C 
BRANCH  17  23
ATOM     18  O   UNL     1       7.741   5.428  20.455  0.00  0.00    +0.000 OA
ATOM     19  C   UNL     1       7.320   5.403  19.312  0.00  0.00    +0.000 C 
ATOM     20  N   UNL     1       7.717   6.201  18.296  0.00  0.00    +0.000 N 
ATOM     21  C   UNL     1       7.144   5.814  17.128  0.00  0.00    +0.000 C 
ATOM     22  O   UNL     1       7.379   6.315  16.038  0.00  0.00    +0.000 OA
ATOM     23  C   UNL     1       6.181   4.655  17.409  0.00  0.00    +0.000 C 
ATOM     24  N   UNL     1       6.377   4.526  18.837  0.00  0.00    +0.000 N 
ATOM     25  H   UNL     1       8.425   6.910  18.380  0.00  0.00    +0.000 HD
ATOM     26  H   UNL     1       6.044   3.763  19.410  0.00  0.00    +0.000 HD
ENDBRANCH  17  23
ENDBRANCH  16  17
ENDBRANCH   1  16
TORSDOF 4
ENDMDL
MODEL 2
REMARK VINA RESULT:      -7.7      0.986      1.410
REMARK  Name = 
REMARK  4 active torsions:
REMARK  status: ('A' for Active; 'I' for Inactive)
REMARK    1  A    between atoms: C_6  and  C_7
REMARK    2  A    between atoms: C_7  and  C_8
REMARK    3  A    between atoms: C_8  and  C_9
REMARK    4  A    between atoms: N_14  and  C_15
REMARK                            x       y       z     vdW  Elec       q    Type
REMARK                         _______ _______ _______ _____ _____    ______ ____
ROOT
ATOM      1  C   UNL     1       3.529   6.273  18.856  0.00  0.00    +0.000 C 
ATOM      2  O   UNL     1       3.655   5.465  19.776  0.00  0.00    +0.000 OA
ATOM      3  N   UNL     1       2.594   7.290  18.889  0.00  0.00    +0.000 N 
ATOM      4  C   UNL     1       1.715   7.402  20.061  0.00  0.00    +0.000 C 
ATOM      5  C   UNL     1       1.443   8.871  20.418  0.00  0.00    +0.000 C 
ATOM      6  N   UNL     1       0.954   9.599  19.234  0.00  0.00    +0.000 N 
ATOM      7  C   UNL     1       1.839   9.531  18.063  0.00  0.00    +0.000 C 
ATOM      8  C   UNL     1       2.148   8.061  17.718  0.00  0.00    +0.000 C 
ENDROOT
BRANCH   6   9
ATOM      9  C   UNL     1      -0.207  10.343  19.244  0.00  0.00    +0.000 A 
ATOM     10  C   UNL     1      -1.142  10.273  18.196  0.00  0.00    +0.000 A 
ATOM     11  C   UNL     1      -2.329  11.012  18.216  0.00  0.00    +0.000 A 
ATOM     12  C   UNL     1      -2.598  11.841  19.292  0.00  0.00    +0.000 A 
ATOM     13  F   UNL     1      -3.733  12.550  19.315  0.00  0.00    +0.000 F 
ATOM     14  C   UNL     1      -1.705  11.941  20.345  0.00  0.00    +0.000 A 
ATOM     15  C   UNL     1      -0.523  11.195  20.317  0.00  0.00    +0.000 A 
ENDBRANCH   6   9
BRANCH   1  16
ATOM     16  C   UNL     1       4.467   6.249  17.662  0.00  0.00    +0.000 C 
BRANCH  16  17
ATOM     17  C   UNL     1       4.359   4.967  16.836  0.00  0.00    +0.000 C 
BRANCH  17  23
ATOM     18  O   UNL     1       8.421   4.739  18.867  0.00  0.00    +0.000 OA
ATOM     19  C   UNL     1       7.582   4.578  17.999  0.00  0.00    +0.000 C 
ATOM     20  N   UNL     1       7.792   4.629  16.665  0.00  0.00    +0.000 N 
ATOM     21  C   UNL     1       6.672   4.270  15.986  0.00  0.00    +0.000 C 
ATOM     22  O   UNL     1       6.599   4.160  14.772  0.00  0.00    +0.000 OA
ATOM     23  C   UNL     1       5.544   4.018  16.994  0.00  0.00    +0.000 C 
ATOM     24  N   UNL     1       6.260   4.281  18.222  0.00  0.00    +0.000 N 
ATOM     25  H   UNL     1       8.687   4.802  16.241  0.00  0.00    +0.000 HD
ATOM     26  H   UNL     1       5.927   4.075  19.155  0.00  0.00    +0.000 HD
ENDBRANCH  17  23
ENDBRANCH  16  17
ENDBRANCH   1  16
TORSDOF 4
ENDMDL
MODEL 3
REMARK VINA RESULT:      -7.6      3.201      4.109
REMARK  Name = 
REMARK  4 active torsions:
REMARK  status: ('A' for Active; 'I' for Inactive)
REMARK    1  A    between atoms: C_6  and  C_7
REMARK    2  A    between atoms: C_7  and  C_8
REMARK    3  A    between atoms: C_8  and  C_9
REMARK    4  A    between atoms: N_14  and  C_15
REMARK                            x       y       z     vdW  Elec       q    Type
REMARK                         _______ _______ _______ _____ _____    ______ ____
ROOT
ATOM      1  C   UNL     1       2.540   6.007  19.540  0.00  0.00    +0.000 C 
ATOM      2  O   UNL     1       3.167   5.414  18.662  0.00  0.00    +0.000 OA
ATOM      3  N   UNL     1       2.203   7.343  19.432  0.00  0.00    +0.000 N 
ATOM      4  C   UNL     1       2.616   8.079  18.229  0.00  0.00    +0.000 C 
ATOM      5  C   UNL     1       1.543   9.091  17.798  0.00  0.00    +0.000 C 
ATOM      6  N   UNL     1       1.177   9.958  18.932  0.00  0.00    +0.000 N 
ATOM      7  C   UNL     1       0.725   9.240  20.132  0.00  0.00    +0.000 C 
ATOM      8  C   UNL     1       1.778   8.196  20.552  0.00  0.00    +0.000 C 
ENDROOT
BRANCH   6   9
ATOM      9  C   UNL     1       1.190  11.334  18.852  0.00  0.00    +0.000 A 
ATOM     10  C   UNL     1       0.147  12.118  19.377  0.00  0.00    +0.000 A 
ATOM     11  C   UNL     1       0.170  13.514  19.314  0.00  0.00    +0.000 A 
ATOM     12  C   UNL     1       1.245  14.152  18.718  0.00  0.00    +0.000 A 
ATOM     13  F   UNL     1       1.271  15.489  18.657  0.00  0.00    +0.000 F 
ATOM     14  C   UNL     1       2.293  13.420  18.188  0.00  0.00    +0.000 A 
ATOM     15  C   UNL     1       2.262  12.024  18.259  0.00  0.00    +0.000 A 
ENDBRANCH   6   9
BRANCH   1  16
ATOM     16  C   UNL     1       2.022   5.270  20.763  0.00  0.00    +0.000 C 
BRANCH  16  17
ATOM     17  C   UNL     1       1.010   4.175  20.424  0.00  0.00    +0.000 C 
BRANCH  17  23
ATOM     18  O   UNL     1       5.046   2.080  20.422  0.00  0.00    +0.000 OA
ATOM     19  C   UNL     1       3.889   2.301  20.114  0.00  0.00    +0.000 C 
ATOM     20  N   UNL     1       3.344   2.144  18.888  0.00  0.00    +0.000 N 
ATOM     21  C   UNL     1       2.002   2.349  18.927  0.00  0.00    +0.000 C 
ATOM     22  O   UNL     1       1.248   2.204  17.977  0.00  0.00    +0.000 OA
ATOM     23  C   UNL     1       1.608   2.773  20.347  0.00  0.00    +0.000 C 
ATOM     24  N   UNL     1       2.909   2.726  20.977  0.00  0.00    +0.000 N 
ATOM     25  H   UNL     1       3.848   1.811  18.085  0.00  0.00    +0.000 HD
ATOM     26  H   UNL     1       3.085   2.784  21.971  0.00  0.00    +0.000 HD
ENDBRANCH  17  23
ENDBRANCH  16  17
ENDBRANCH   1  16
TORSDOF 4
ENDMDL
MODEL 4
REMARK VINA RESULT:      -7.5      3.249      4.298
REMARK  Name = 
REMARK  4 active torsions:
REMARK  status: ('A' for Active; 'I' for Inactive)
REMARK    1  A    between atoms: C_6  and  C_7
REMARK    2  A    between atoms: C_7  and  C_8
REMARK    3  A    between atoms: C_8  and  C_9
REMARK    4  A    between atoms: N_14  and  C_15
REMARK                            x       y       z     vdW  Elec       q    Type
REMARK                         _______ _______ _______ _____ _____    ______ ____
ROOT
ATOM      1  C   UNL     1       2.490   6.103  19.546  0.00  0.00    +0.000 C 
ATOM      2  O   UNL     1       3.137   5.517  18.677  0.00  0.00    +0.000 OA
ATOM      3  N   UNL     1       2.135   7.433  19.429  0.00  0.00    +0.000 N 
ATOM      4  C   UNL     1       2.551   8.172  18.230  0.00  0.00    +0.000 C 
ATOM      5  C   UNL     1       1.469   9.167  17.782  0.00  0.00    +0.000 C 
ATOM      6  N   UNL     1       1.076  10.031  18.909  0.00  0.00    +0.000 N 
ATOM      7  C   UNL     1       0.619   9.310  20.105  0.00  0.00    +0.000 C 
ATOM      8  C   UNL     1       1.683   8.283  20.542  0.00  0.00    +0.000 C 
ENDROOT
BRANCH   6   9
ATOM      9  C   UNL     1       1.070  11.407  18.825  0.00  0.00    +0.000 A 
ATOM     10  C   UNL     1       2.217  12.133  18.457  0.00  0.00    +0.000 A 
ATOM     11  C   UNL     1       2.205  13.528  18.352  0.00  0.00    +0.000 A 
ATOM     12  C   UNL     1       1.037  14.221  18.618  0.00  0.00    +0.000 A 
ATOM     13  F   UNL     1       1.021  15.556  18.519  0.00  0.00    +0.000 F 
ATOM     14  C   UNL     1      -0.116  13.547  18.984  0.00  0.00    +0.000 A 
ATOM     15  C   UNL     1      -0.094  12.152  19.082  0.00  0.00    +0.000 A 
ENDBRANCH   6   9
BRANCH   1  16
ATOM     16  C   UNL     1       1.968   5.362  20.765  0.00  0.00    +0.000 C 
BRANCH  16  17
ATOM     17  C   UNL     1       0.905   4.317  20.425  0.00  0.00    +0.000 C 
BRANCH  17  23
ATOM     18  O   UNL     1       4.708   1.929  19.711  0.00  0.00    +0.000 OA
ATOM     19  C   UNL     1       3.519   2.189  19.695  0.00  0.00    +0.000 C 
ATOM     20  N   UNL     1       2.645   1.873  18.713  0.00  0.00    +0.000 N 
ATOM     21  C   UNL     1       1.376   2.190  19.077  0.00  0.00    +0.000 C 
ATOM     22  O   UNL     1       0.380   1.950  18.412  0.00  0.00    +0.000 OA
ATOM     23  C   UNL     1       1.412   2.877  20.448  0.00  0.00    +0.000 C 
ATOM     24  N   UNL     1       2.836   2.832  20.698  0.00  0.00    +0.000 N 
ATOM     25  H   UNL     1       2.891   1.370  17.879  0.00  0.00    +0.000 HD
ATOM     26  H   UNL     1       3.287   3.041  21.579  0.00  0.00    +0.000 HD
ENDBRANCH  17  23
ENDBRANCH  16  17
ENDBRANCH   1  16
TORSDOF 4
ENDMDL
MODEL 5
REMARK VINA RESULT:      -7.5      1.341      1.699
REMARK  Name = 
REMARK  4 active torsions:
REMARK  status: ('A' for Active; 'I' for Inactive)
REMARK    1  A    between atoms: C_6  and  C_7
REMARK    2  A    between atoms: C_7  and  C_8
REMARK    3  A    between atoms: C_8  and  C_9
REMARK    4  A    between atoms: N_14  and  C_15
REMARK                            x       y       z     vdW  Elec       q    Type
REMARK                         _______ _______ _______ _____ _____    ______ ____
ROOT
ATOM      1  C   UNL     1       3.202   5.879  19.513  0.00  0.00    +0.000 C 
ATOM      2  O   UNL     1       3.160   5.022  20.395  0.00  0.00    +0.000 OA
ATOM      3  N   UNL     1       2.370   6.983  19.516  0.00  0.00    +0.000 N 
ATOM      4  C   UNL     1       1.397   7.130  20.606  0.00  0.00    +0.000 C 
ATOM      5  C   UNL     1       1.236   8.602  21.016  0.00  0.00    +0.000 C 
ATOM      6  N   UNL     1       0.935   9.429  19.835  0.00  0.00    +0.000 N 
ATOM      7  C   UNL     1       1.918   9.324  18.747  0.00  0.00    +0.000 C 
ATOM      8  C   UNL     1       2.116   7.847  18.352  0.00  0.00    +0.000 C 
ENDROOT
BRANCH   6   9
ATOM      9  C   UNL     1      -0.143  10.285  19.779  0.00  0.00    +0.000 A 
ATOM     10  C   UNL     1      -0.983  10.349  18.653  0.00  0.00    +0.000 A 
ATOM     11  C   UNL     1      -2.090  11.203  18.605  0.00  0.00    +0.000 A 
ATOM     12  C   UNL     1      -2.372  12.014  19.690  0.00  0.00    +0.000 A 
ATOM     13  F   UNL     1      -3.430  12.833  19.649  0.00  0.00    +0.000 F 
ATOM     14  C   UNL     1      -1.571  11.985  20.820  0.00  0.00    +0.000 A 
ATOM     15  C   UNL     1      -0.470  11.125  20.859  0.00  0.00    +0.000 A 
ENDBRANCH   6   9
BRANCH   1  16
ATOM     16  C   UNL     1       4.244   5.814  18.409  0.00  0.00    +0.000 C 
BRANCH  16  17
ATOM     17  C   UNL     1       3.863   4.861  17.276  0.00  0.00    +0.000 C 
BRANCH  17  23
ATOM     18  O   UNL     1       8.356   4.156  17.280  0.00  0.00    +0.000 OA
ATOM     19  C   UNL     1       7.276   4.556  16.883  0.00  0.00    +0.000 C 
ATOM     20  N   UNL     1       7.043   5.718  16.234  0.00  0.00    +0.000 N 
ATOM     21  C   UNL     1       5.753   5.786  15.816  0.00  0.00    +0.000 C 
ATOM     22  O   UNL     1       5.286   6.693  15.144  0.00  0.00    +0.000 OA
ATOM     23  C   UNL     1       5.005   4.544  16.315  0.00  0.00    +0.000 C 
ATOM     24  N   UNL     1       6.090   3.873  16.998  0.00  0.00    +0.000 N 
ATOM     25  H   UNL     1       7.757   6.385  15.999  0.00  0.00    +0.000 HD
ATOM     26  H   UNL     1       6.071   2.923  17.343  0.00  0.00    +0.000 HD
ENDBRANCH  17  23
ENDBRANCH  16  17
ENDBRANCH   1  16
TORSDOF 4
ENDMDL
MODEL 6
REMARK VINA RESULT:      -7.5      5.410      8.313
REMARK  Name = 
REMARK  4 active torsions:
REMARK  status: ('A' for Active; 'I' for Inactive)
REMARK    1  A    between atoms: C_6  and  C_7
REMARK    2  A    between atoms: C_7  and  C_8
REMARK    3  A    between atoms: C_8  and  C_9
REMARK    4  A    between atoms: N_14  and  C_15
REMARK                            x       y       z     vdW  Elec       q    Type
REMARK                         _______ _______ _______ _____ _____    ______ ____
ROOT
ATOM      1  C   UNL     1       2.811   6.426  19.215  0.00  0.00    +0.000 C 
ATOM      2  O   UNL     1       2.384   7.578  19.278  0.00  0.00    +0.000 OA
ATOM      3  N   UNL     1       3.600   5.988  18.168  0.00  0.00    +0.000 N 
ATOM      4  C   UNL     1       3.930   6.930  17.091  0.00  0.00    +0.000 C 
ATOM      5  C   UNL     1       5.362   6.714  16.578  0.00  0.00    +0.000 C 
ATOM      6  N   UNL     1       5.565   5.301  16.216  0.00  0.00    +0.000 N 
ATOM      7  C   UNL     1       5.276   4.344  17.294  0.00  0.00    +0.000 C 
ATOM      8  C   UNL     1       3.854   4.576  17.841  0.00  0.00    +0.000 C 
ENDROOT
BRANCH   6   9
ATOM      9  C   UNL     1       6.052   4.909  14.988  0.00  0.00    +0.000 A 
ATOM     10  C   UNL     1       5.355   4.005  14.167  0.00  0.00    +0.000 A 
ATOM     11  C   UNL     1       5.840   3.624  12.912  0.00  0.00    +0.000 A 
ATOM     12  C   UNL     1       7.040   4.142  12.458  0.00  0.00    +0.000 A 
ATOM     13  F   UNL     1       7.508   3.780  11.257  0.00  0.00    +0.000 F 
ATOM     14  C   UNL     1       7.761   5.035  13.234  0.00  0.00    +0.000 A 
ATOM     15  C   UNL     1       7.265   5.412  14.486  0.00  0.00    +0.000 A 
ENDBRANCH   6   9
BRANCH   1  16
ATOM     16  C   UNL     1       2.566   5.439  20.343  0.00  0.00    +0.000 C 
BRANCH  16  17
ATOM     17  C   UNL     1       1.294   4.611  20.154  0.00  0.00    +0.000 C 
BRANCH  17  23
ATOM     18  O   UNL     1       4.476   1.389  19.742  0.00  0.00    +0.000 OA
ATOM     19  C   UNL     1       3.369   1.894  19.699  0.00  0.00    +0.000 C 
ATOM     20  N   UNL     1       2.413   1.648  18.776  0.00  0.00    +0.000 N 
ATOM     21  C   UNL     1       1.254   2.276  19.103  0.00  0.00    +0.000 C 
ATOM     22  O   UNL     1       0.207   2.170  18.484  0.00  0.00    +0.000 OA
ATOM     23  C   UNL     1       1.486   3.112  20.368  0.00  0.00    +0.000 C 
ATOM     24  N   UNL     1       2.875   2.794  20.611  0.00  0.00    +0.000 N 
ATOM     25  H   UNL     1       2.517   0.999  18.016  0.00  0.00    +0.000 HD
ATOM     26  H   UNL     1       3.392   3.015  21.452  0.00  0.00    +0.000 HD
ENDBRANCH  17  23
ENDBRANCH  16  17
ENDBRANCH   1  16
TORSDOF 4
ENDMDL
MODEL 7
REMARK VINA RESULT:      -7.5      2.163      3.220
REMARK  Name = 
REMARK  4 active torsions:
REMARK  status: ('A' for Active; 'I' for Inactive)
REMARK    1  A    between atoms: C_6  and  C_7
REMARK    2  A    between atoms: C_7  and  C_8
REMARK    3  A    between atoms: C_8  and  C_9
REMARK    4  A    between atoms: N_14  and  C_15
REMARK                            x       y       z     vdW  Elec       q    Type
REMARK                         _______ _______ _______ _____ _____    ______ ____
ROOT
ATOM      1  C   UNL     1       2.238   3.283  18.365  0.00  0.00    +0.000 C 
ATOM      2  O   UNL     1       1.885   2.273  18.974  0.00  0.00    +0.000 OA
ATOM      3  N   UNL     1       2.016   4.556  18.855  0.00  0.00    +0.000 N 
ATOM      4  C   UNL     1       1.326   4.705  20.143  0.00  0.00    +0.000 C 
ATOM      5  C   UNL     1       1.902   5.877  20.953  0.00  0.00    +0.000 C 
ATOM      6  N   UNL     1       1.911   7.103  20.137  0.00  0.00    +0.000 N 
ATOM      7  C   UNL     1       2.630   6.985  18.860  0.00  0.00    +0.000 C 
ATOM      8  C   UNL     1       2.084   5.789  18.055  0.00  0.00    +0.000 C 
ENDROOT
BRANCH   6   9
ATOM      9  C   UNL     1       1.351   8.288  20.566  0.00  0.00    +0.000 A 
ATOM     10  C   UNL     1       1.026   8.509  21.916  0.00  0.00    +0.000 A 
ATOM     11  C   UNL     1       0.478   9.718  22.354  0.00  0.00    +0.000 A 
ATOM     12  C   UNL     1       0.242  10.731  21.440  0.00  0.00    +0.000 A 
ATOM     13  F   UNL     1      -0.283  11.890  21.855  0.00  0.00    +0.000 F 
ATOM     14  C   UNL     1       0.546  10.556  20.100  0.00  0.00    +0.000 A 
ATOM     15  C   UNL     1       1.097   9.344  19.673  0.00  0.00    +0.000 A 
ENDBRANCH   6   9
BRANCH   1  16
ATOM     16  C   UNL     1       3.026   3.180  17.070  0.00  0.00    +0.000 C 
BRANCH  16  17
ATOM     17  C   UNL     1       4.539   3.165  17.284  0.00  0.00    +0.000 C 
BRANCH  17  23
ATOM     18  O   UNL     1       7.583   5.247  14.623  0.00  0.00    +0.000 OA
ATOM     19  C   UNL     1       6.990   4.955  15.646  0.00  0.00    +0.000 C 
ATOM     20  N   UNL     1       7.530   4.845  16.879  0.00  0.00    +0.000 N 
ATOM     21  C   UNL     1       6.565   4.641  17.812  0.00  0.00    +0.000 C 
ATOM     22  O   UNL     1       6.763   4.575  19.016  0.00  0.00    +0.000 OA
ATOM     23  C   UNL     1       5.210   4.524  17.103  0.00  0.00    +0.000 C 
ATOM     24  N   UNL     1       5.641   4.714  15.736  0.00  0.00    +0.000 N 
ATOM     25  H   UNL     1       8.501   5.004  17.086  0.00  0.00    +0.000 HD
ATOM     26  H   UNL     1       5.033   4.870  14.942  0.00  0.00    +0.000 HD
ENDBRANCH  17  23
ENDBRANCH  16  17
ENDBRANCH   1  16
TORSDOF 4
ENDMDL
MODEL 8
REMARK VINA RESULT:      -7.5      1.246      1.297
REMARK  Name = 
REMARK  4 active torsions:
REMARK  status: ('A' for Active; 'I' for Inactive)
REMARK    1  A    between atoms: C_6  and  C_7
REMARK    2  A    between atoms: C_7  and  C_8
REMARK    3  A    between atoms: C_8  and  C_9
REMARK    4  A    between atoms: N_14  and  C_15
REMARK                            x       y       z     vdW  Elec       q    Type
REMARK                         _______ _______ _______ _____ _____    ______ ____
ROOT
ATOM      1  C   UNL     1       3.145   6.238  19.240  0.00  0.00    +0.000 C 
ATOM      2  O   UNL     1       3.250   5.427  20.161  0.00  0.00    +0.000 OA
ATOM      3  N   UNL     1       2.272   7.308  19.295  0.00  0.00    +0.000 N 
ATOM      4  C   UNL     1       1.435   7.475  20.491  0.00  0.00    +0.000 C 
ATOM      5  C   UNL     1       1.260   8.959  20.848  0.00  0.00    +0.000 C 
ATOM      6  N   UNL     1       0.780   9.710  19.675  0.00  0.00    +0.000 N 
ATOM      7  C   UNL     1       1.625   9.586  18.479  0.00  0.00    +0.000 C 
ATOM      8  C   UNL     1       1.838   8.099  18.133  0.00  0.00    +0.000 C 
ENDROOT
BRANCH   6   9
ATOM      9  C   UNL     1      -0.334  10.521  19.715  0.00  0.00    +0.000 A 
ATOM     10  C   UNL     1      -0.656  11.285  20.851  0.00  0.00    +0.000 A 
ATOM     11  C   UNL     1      -1.774  12.124  20.883  0.00  0.00    +0.000 A 
ATOM     12  C   UNL     1      -2.596  12.208  19.772  0.00  0.00    +0.000 A 
ATOM     13  F   UNL     1      -3.668  13.009  19.799  0.00  0.00    +0.000 F 
ATOM     14  C   UNL     1      -2.318  11.473  18.632  0.00  0.00    +0.000 A 
ATOM     15  C   UNL     1      -1.194  10.640  18.609  0.00  0.00    +0.000 A 
ENDBRANCH   6   9
BRANCH   1  16
ATOM     16  C   UNL     1       4.045   6.155  18.019  0.00  0.00    +0.000 C 
BRANCH  16  17
ATOM     17  C   UNL     1       3.852   4.869  17.214  0.00  0.00    +0.000 C 
BRANCH  17  23
ATOM     18  O   UNL     1       8.342   4.181  17.424  0.00  0.00    +0.000 OA
ATOM     19  C   UNL     1       7.278   4.558  16.968  0.00  0.00    +0.000 C 
ATOM     20  N   UNL     1       7.068   5.688  16.257  0.00  0.00    +0.000 N 
ATOM     21  C   UNL     1       5.795   5.733  15.787  0.00  0.00    +0.000 C 
ATOM     22  O   UNL     1       5.353   6.606  15.057  0.00  0.00    +0.000 OA
ATOM     23  C   UNL     1       5.031   4.512  16.313  0.00  0.00    +0.000 C 
ATOM     24  N   UNL     1       6.089   3.878  17.068  0.00  0.00    +0.000 N 
ATOM     25  H   UNL     1       7.789   6.346  16.019  0.00  0.00    +0.000 HD
ATOM     26  H   UNL     1       6.058   2.944  17.456  0.00  0.00    +0.000 HD
ENDBRANCH  17  23
ENDBRANCH  16  17
ENDBRANCH   1  16
TORSDOF 4
ENDMDL
MODEL 9
REMARK VINA RESULT:      -7.4      1.679      2.623
REMARK  Name = 
REMARK  4 active torsions:
REMARK  status: ('A' for Active; 'I' for Inactive)
REMARK    1  A    between atoms: C_6  and  C_7
REMARK    2  A    between atoms: C_7  and  C_8
REMARK    3  A    between atoms: C_8  and  C_9
REMARK    4  A    between atoms: N_14  and  C_15
REMARK                            x       y       z     vdW  Elec       q    Type
REMARK                         _______ _______ _______ _____ _____    ______ ____
ROOT
ATOM      1  C   UNL     1       2.602   7.039  19.272  0.00  0.00    +0.000 C 
ATOM      2  O   UNL     1       2.816   6.011  19.913  0.00  0.00    +0.000 OA
ATOM      3  N   UNL     1       1.791   8.051  19.750  0.00  0.00    +0.000 N 
ATOM      4  C   UNL     1       1.159   7.886  21.066  0.00  0.00    +0.000 C 
ATOM      5  C   UNL     1       1.100   9.218  21.829  0.00  0.00    +0.000 C 
ATOM      6  N   UNL     1       0.473  10.256  20.993  0.00  0.00    +0.000 N 
ATOM      7  C   UNL     1       1.116  10.463  19.687  0.00  0.00    +0.000 C 
ATOM      8  C   UNL     1       1.212   9.125  18.927  0.00  0.00    +0.000 C 
ENDROOT
BRANCH   6   9
ATOM      9  C   UNL     1      -0.588  11.022  21.426  0.00  0.00    +0.000 A 
ATOM     10  C   UNL     1      -1.334  11.823  20.544  0.00  0.00    +0.000 A 
ATOM     11  C   UNL     1      -2.423  12.584  20.980  0.00  0.00    +0.000 A 
ATOM     12  C   UNL     1      -2.783  12.555  22.316  0.00  0.00    +0.000 A 
ATOM     13  F   UNL     1      -3.826  13.282  22.738  0.00  0.00    +0.000 F 
ATOM     14  C   UNL     1      -2.077  11.781  23.220  0.00  0.00    +0.000 A 
ATOM     15  C   UNL     1      -0.991  11.021  22.773  0.00  0.00    +0.000 A 
ENDBRANCH   6   9
BRANCH   1  16
ATOM     16  C   UNL     1       3.296   7.292  17.944  0.00  0.00    +0.000 C 
BRANCH  16  17
ATOM     17  C   UNL     1       3.997   6.054  17.385  0.00  0.00    +0.000 C 
BRANCH  17  23
ATOM     18  O   UNL     1       7.687   5.194  14.871  0.00  0.00    +0.000 OA
ATOM     19  C   UNL     1       6.984   5.243  15.864  0.00  0.00    +0.000 C 
ATOM     20  N   UNL     1       6.947   4.334  16.863  0.00  0.00    +0.000 N 
ATOM     21  C   UNL     1       6.155   4.766  17.878  0.00  0.00    +0.000 C 
ATOM     22  O   UNL     1       5.996   4.177  18.936  0.00  0.00    +0.000 OA
ATOM     23  C   UNL     1       5.520   6.103  17.475  0.00  0.00    +0.000 C 
ATOM     24  N   UNL     1       6.114   6.262  16.166  0.00  0.00    +0.000 N 
ATOM     25  H   UNL     1       7.516   3.507  16.894  0.00  0.00    +0.000 HD
ATOM     26  H   UNL     1       6.086   7.102  15.604  0.00  0.00    +0.000 HD
ENDBRANCH  17  23
ENDBRANCH  16  17
ENDBRANCH   1  16
TORSDOF 4
ENDMDL
