MODEL 1
REMARK VINA RESULT:      -8.0      0.000      0.000
REMARK  Name = 
REMARK  6 active torsions:
REMARK  status: ('A' for Active; 'I' for Inactive)
REMARK    1  A    between atoms: C_1  and  C_2
REMARK    2  A    between atoms: C_2  and  O_3
REMARK    3  A    between atoms: O_3  and  C_4
REMARK    4  A    between atoms: C_4  and  C_6
REMARK    5  A    between atoms: C_9  and  C_11
REMARK    6  A    between atoms: C_15  and  C_16
REMARK                            x       y       z     vdW  Elec       q    Type
REMARK                         _______ _______ _______ _____ _____    ______ ____
ROOT
ATOM      1  C   UNL     1       2.604   4.404  18.226  0.00  0.00    +0.000 A 
ATOM      2  N   UNL     1       2.112   5.598  18.596  0.00  0.00    +0.000 NA
ATOM      3  N   UNL     1       2.893   6.521  17.975  0.00  0.00    +0.000 N 
ATOM      4  C   UNL     1       2.563   7.892  18.102  0.00  0.00    +0.000 C 
ATOM      5  O   UNL     1       3.041   8.681  17.288  0.00  0.00    +0.000 OA
ATOM      6  C   UNL     1       3.927   5.935  17.261  0.00  0.00    +0.000 A 
ATOM      7  C   UNL     1       4.978   6.480  16.507  0.00  0.00    +0.000 A 
ATOM      8  C   UNL     1       5.894   5.597  15.929  0.00  0.00    +0.000 A 
ATOM      9  C   UNL     1       5.763   4.221  16.092  0.00  0.00    +0.000 A 
ATOM     10  C   UNL     1       4.704   3.688  16.837  0.00  0.00    +0.000 A 
ATOM     11  C   UNL     1       3.777   4.561  17.439  0.00  0.00    +0.000 A 
ENDROOT
BRANCH   4  12
ATOM     12  C   UNL     1       1.675   8.421  19.172  0.00  0.00    +0.000 A 
ATOM     13  C   UNL     1       1.749   7.909  20.474  0.00  0.00    +0.000 A 
ATOM     14  C   UNL     1       0.926   8.421  21.474  0.00  0.00    +0.000 A 
ATOM     15  C   UNL     1       0.029   9.446  21.181  0.00  0.00    +0.000 A 
ATOM     16  C   UNL     1      -0.048   9.978  19.887  0.00  0.00    +0.000 A 
ATOM     17  C   UNL     1      -1.019  11.075  19.567  0.00  0.00    +0.000 C 
ATOM     18  C   UNL     1       0.798   9.475  18.887  0.00  0.00    +0.000 A 
ENDBRANCH   4  12
BRANCH   1  19
ATOM     19  C   UNL     1       1.936   3.140  18.570  0.00  0.00    +0.000 C 
ATOM     20  O   UNL     1       0.804   2.850  18.199  0.00  0.00    +0.000 OA
BRANCH  19  21
ATOM     21  O   UNL     1       2.674   2.383  19.439  0.00  0.00    +0.000 OA
BRANCH  21  23
ATOM     22  C   UNL     1       1.606   2.746  21.548  0.00  0.00    +0.000 C 
ATOM     23  C   UNL     1       2.878   2.948  20.739  0.00  0.00    +0.000 C 
ENDBRANCH  21  23
ENDBRANCH  19  21
ENDBRANCH   1  19
TORSDOF 4
ENDMDL
MODEL 2
REMARK VINA RESULT:      -7.8      2.704      5.087
REMARK  Name = 
REMARK  6 active torsions:
REMARK  status: ('A' for Active; 'I' for Inactive)
REMARK    1  A    between atoms: C_1  and  C_2
REMARK    2  A    between atoms: C_2  and  O_3
REMARK    3  A    between atoms: O_3  and  C_4
REMARK    4  A    between atoms: C_4  and  C_6
REMARK    5  A    between atoms: C_9  and  C_11
REMARK    6  A    between atoms: C_15  and  C_16
REMARK                            x       y       z     vdW  Elec       q    Type
REMARK                         _______ _______ _______ _____ _____    ______ ____
ROOT
ATOM      1  C   UNL     1       6.474   4.871  17.421  0.00  0.00    +0.000 A 
ATOM      2  N   UNL     1       5.278   4.598  17.968  0.00  0.00    +0.000 NA
ATOM      3  N   UNL     1       4.508   4.139  16.947  0.00  0.00    +0.000 N 
ATOM      4  C   UNL     1       3.199   3.680  17.232  0.00  0.00    +0.000 C 
ATOM      5  O   UNL     1       2.642   2.965  16.400  0.00  0.00    +0.000 OA
ATOM      6  C   UNL     1       5.174   4.176  15.732  0.00  0.00    +0.000 A 
ATOM      7  C   UNL     1       4.776   3.840  14.429  0.00  0.00    +0.000 A 
ATOM      8  C   UNL     1       5.697   4.030  13.395  0.00  0.00    +0.000 A 
ATOM      9  C   UNL     1       6.970   4.530  13.652  0.00  0.00    +0.000 A 
ATOM     10  C   UNL     1       7.360   4.851  14.958  0.00  0.00    +0.000 A 
ATOM     11  C   UNL     1       6.443   4.680  16.013  0.00  0.00    +0.000 A 
ENDROOT
BRANCH   4  12
ATOM     12  C   UNL     1       2.467   4.026  18.480  0.00  0.00    +0.000 A 
ATOM     13  C   UNL     1       1.826   3.028  19.226  0.00  0.00    +0.000 A 
ATOM     14  C   UNL     1       1.157   3.357  20.402  0.00  0.00    +0.000 A 
ATOM     15  C   UNL     1       1.126   4.680  20.840  0.00  0.00    +0.000 A 
ATOM     16  C   UNL     1       1.774   5.687  20.112  0.00  0.00    +0.000 A 
ATOM     17  C   UNL     1       1.734   7.112  20.576  0.00  0.00    +0.000 C 
ATOM     18  C   UNL     1       2.465   5.348  18.939  0.00  0.00    +0.000 A 
ENDBRANCH   4  12
BRANCH   1  19
ATOM     19  C   UNL     1       7.639   5.252  18.233  0.00  0.00    +0.000 C 
ATOM     20  O   UNL     1       8.486   4.453  18.618  0.00  0.00    +0.000 OA
BRANCH  19  21
ATOM     21  O   UNL     1       7.607   6.569  18.601  0.00  0.00    +0.000 OA
BRANCH  21  23
ATOM     22  C   UNL     1       8.207   8.811  18.021  0.00  0.00    +0.000 C 
ATOM     23  C   UNL     1       7.583   7.515  17.526  0.00  0.00    +0.000 C 
ENDBRANCH  21  23
ENDBRANCH  19  21
ENDBRANCH   1  19
TORSDOF 4
ENDMDL
MODEL 3
REMARK VINA RESULT:      -7.8      2.337      6.316
REMARK  Name = 
REMARK  6 active torsions:
REMARK  status: ('A' for Active; 'I' for Inactive)
REMARK    1  A    between atoms: C_1  and  C_2
REMARK    2  A    between atoms: C_2  and  O_3
REMARK    3  A    between atoms: O_3  and  C_4
REMARK    4  A    between atoms: C_4  and  C_6
REMARK    5  A    between atoms: C_9  and  C_11
REMARK    6  A    between atoms: C_15  and  C_16
REMARK                            x       y       z     vdW  Elec       q    Type
REMARK                         _______ _______ _______ _____ _____    ______ ____
ROOT
ATOM      1  C   UNL     1       4.060   3.939  18.245  0.00  0.00    +0.000 A 
ATOM      2  N   UNL     1       4.703   4.131  17.081  0.00  0.00    +0.000 NA
ATOM      3  N   UNL     1       4.544   5.450  16.792  0.00  0.00    +0.000 N 
ATOM      4  C   UNL     1       5.194   5.982  15.652  0.00  0.00    +0.000 C 
ATOM      5  O   UNL     1       5.333   7.203  15.582  0.00  0.00    +0.000 OA
ATOM      6  C   UNL     1       3.747   6.096  17.723  0.00  0.00    +0.000 A 
ATOM      7  C   UNL     1       3.291   7.421  17.815  0.00  0.00    +0.000 A 
ATOM      8  C   UNL     1       2.454   7.751  18.885  0.00  0.00    +0.000 A 
ATOM      9  C   UNL     1       2.090   6.797  19.831  0.00  0.00    +0.000 A 
ATOM     10  C   UNL     1       2.560   5.482  19.735  0.00  0.00    +0.000 A 
ATOM     11  C   UNL     1       3.394   5.124  18.658  0.00  0.00    +0.000 A 
ENDROOT
BRANCH   4  12
ATOM     12  C   UNL     1       5.708   5.141  14.538  0.00  0.00    +0.000 A 
ATOM     13  C   UNL     1       7.084   4.927  14.387  0.00  0.00    +0.000 A 
ATOM     14  C   UNL     1       7.557   4.124  13.351  0.00  0.00    +0.000 A 
ATOM     15  C   UNL     1       6.659   3.530  12.466  0.00  0.00    +0.000 A 
ATOM     16  C   UNL     1       5.279   3.723  12.612  0.00  0.00    +0.000 A 
ATOM     17  C   UNL     1       4.313   3.092  11.655  0.00  0.00    +0.000 C 
ATOM     18  C   UNL     1       4.806   4.515  13.670  0.00  0.00    +0.000 A 
ENDBRANCH   4  12
BRANCH   1  19
ATOM     19  C   UNL     1       4.126   2.665  18.975  0.00  0.00    +0.000 C 
ATOM     20  O   UNL     1       5.045   2.364  19.728  0.00  0.00    +0.000 OA
BRANCH  19  21
ATOM     21  O   UNL     1       3.109   1.816  18.631  0.00  0.00    +0.000 OA
BRANCH  21  23
ATOM     22  C   UNL     1       0.798   2.425  18.696  0.00  0.00    +0.000 C 
ATOM     23  C   UNL     1       1.960   1.844  19.485  0.00  0.00    +0.000 C 
ENDBRANCH  21  23
ENDBRANCH  19  21
ENDBRANCH   1  19
TORSDOF 4
ENDMDL
MODEL 4
REMARK VINA RESULT:      -7.7      0.816      1.578
REMARK  Name = 
REMARK  6 active torsions:
REMARK  status: ('A' for Active; 'I' for Inactive)
REMARK    1  A    between atoms: C_1  and  C_2
REMARK    2  A    between atoms: C_2  and  O_3
REMARK    3  A    between atoms: O_3  and  C_4
REMARK    4  A    between atoms: C_4  and  C_6
REMARK    5  A    between atoms: C_9  and  C_11
REMARK    6  A    between atoms: C_15  and  C_16
REMARK                            x       y       z     vdW  Elec       q    Type
REMARK                         _______ _______ _______ _____ _____    ______ ____
ROOT
ATOM      1  C   UNL     1       2.193   4.841  18.477  0.00  0.00    +0.000 A 
ATOM      2  N   UNL     1       1.729   6.090  18.650  0.00  0.00    +0.000 NA
ATOM      3  N   UNL     1       2.618   6.899  18.015  0.00  0.00    +0.000 N 
ATOM      4  C   UNL     1       2.350   8.288  17.947  0.00  0.00    +0.000 C 
ATOM      5  O   UNL     1       2.951   8.953  17.104  0.00  0.00    +0.000 OA
ATOM      6  C   UNL     1       3.687   6.190  17.492  0.00  0.00    +0.000 A 
ATOM      7  C   UNL     1       4.838   6.598  16.799  0.00  0.00    +0.000 A 
ATOM      8  C   UNL     1       5.761   5.614  16.430  0.00  0.00    +0.000 A 
ATOM      9  C   UNL     1       5.541   4.275  16.736  0.00  0.00    +0.000 A 
ATOM     10  C   UNL     1       4.384   3.879  17.417  0.00  0.00    +0.000 A 
ATOM     11  C   UNL     1       3.447   4.855  17.810  0.00  0.00    +0.000 A 
ENDROOT
BRANCH   4  12
ATOM     12  C   UNL     1       1.385   8.978  18.845  0.00  0.00    +0.000 A 
ATOM     13  C   UNL     1       0.375   9.788  18.313  0.00  0.00    +0.000 A 
ATOM     14  C   UNL     1      -0.535  10.418  19.159  0.00  0.00    +0.000 A 
ATOM     15  C   UNL     1      -0.442  10.239  20.538  0.00  0.00    +0.000 A 
ATOM     16  C   UNL     1       0.556   9.421  21.085  0.00  0.00    +0.000 A 
ATOM     17  C   UNL     1       0.663   9.235  22.569  0.00  0.00    +0.000 C 
ATOM     18  C   UNL     1       1.456   8.771  20.228  0.00  0.00    +0.000 A 
ENDBRANCH   4  12
BRANCH   1  19
ATOM     19  C   UNL     1       1.426   3.657  18.890  0.00  0.00    +0.000 C 
ATOM     20  O   UNL     1       1.207   2.702  18.154  0.00  0.00    +0.000 OA
BRANCH  19  21
ATOM     21  O   UNL     1       0.895   3.794  20.144  0.00  0.00    +0.000 OA
BRANCH  21  23
ATOM     22  C   UNL     1       2.679   2.811  21.398  0.00  0.00    +0.000 C 
ATOM     23  C   UNL     1       1.197   2.740  21.066  0.00  0.00    +0.000 C 
ENDBRANCH  21  23
ENDBRANCH  19  21
ENDBRANCH   1  19
TORSDOF 4
ENDMDL
MODEL 5
REMARK VINA RESULT:      -7.7      2.828      5.638
REMARK  Name = 
REMARK  6 active torsions:
REMARK  status: ('A' for Active; 'I' for Inactive)
REMARK    1  A    between atoms: C_1  and  C_2
REMARK    2  A    between atoms: C_2  and  O_3
REMARK    3  A    between atoms: O_3  and  C_4
REMARK    4  A    between atoms: C_4  and  C_6
REMARK    5  A    between atoms: C_9  and  C_11
REMARK    6  A    between atoms: C_15  and  C_16
REMARK                            x       y       z     vdW  Elec       q    Type
REMARK                         _______ _______ _______ _____ _____    ______ ____
ROOT
ATOM      1  C   UNL     1       6.657   5.821  17.213  0.00  0.00    +0.000 A 
ATOM      2  N   UNL     1       5.569   5.399  17.879  0.00  0.00    +0.000 NA
ATOM      3  N   UNL     1       4.935   4.544  17.034  0.00  0.00    +0.000 N 
ATOM      4  C   UNL     1       3.784   3.858  17.493  0.00  0.00    +0.000 C 
ATOM      5  O   UNL     1       3.421   2.858  16.875  0.00  0.00    +0.000 OA
ATOM      6  C   UNL     1       5.566   4.462  15.803  0.00  0.00    +0.000 A 
ATOM      7  C   UNL     1       5.260   3.750  14.633  0.00  0.00    +0.000 A 
ATOM      8  C   UNL     1       6.100   3.916  13.528  0.00  0.00    +0.000 A 
ATOM      9  C   UNL     1       7.207   4.756  13.590  0.00  0.00    +0.000 A 
ATOM     10  C   UNL     1       7.509   5.453  14.766  0.00  0.00    +0.000 A 
ATOM     11  C   UNL     1       6.669   5.311  15.887  0.00  0.00    +0.000 A 
ENDROOT
BRANCH   4  12
ATOM     12  C   UNL     1       2.994   4.292  18.676  0.00  0.00    +0.000 A 
ATOM     13  C   UNL     1       2.646   5.639  18.842  0.00  0.00    +0.000 A 
ATOM     14  C   UNL     1       1.892   6.035  19.944  0.00  0.00    +0.000 A 
ATOM     15  C   UNL     1       1.480   5.090  20.882  0.00  0.00    +0.000 A 
ATOM     16  C   UNL     1       1.810   3.737  20.723  0.00  0.00    +0.000 A 
ATOM     17  C   UNL     1       1.376   2.720  21.736  0.00  0.00    +0.000 C 
ATOM     18  C   UNL     1       2.550   3.339  19.600  0.00  0.00    +0.000 A 
ENDBRANCH   4  12
BRANCH   1  19
ATOM     19  C   UNL     1       7.692   6.650  17.848  0.00  0.00    +0.000 C 
ATOM     20  O   UNL     1       8.181   6.400  18.944  0.00  0.00    +0.000 OA
BRANCH  19  21
ATOM     21  O   UNL     1       7.961   7.784  17.130  0.00  0.00    +0.000 OA
BRANCH  21  23
ATOM     22  C   UNL     1       8.745   9.717  18.299  0.00  0.00    +0.000 C 
ATOM     23  C   UNL     1       7.527   9.013  17.724  0.00  0.00    +0.000 C 
ENDBRANCH  21  23
ENDBRANCH  19  21
ENDBRANCH   1  19
TORSDOF 4
ENDMDL
MODEL 6
REMARK VINA RESULT:      -7.5      1.989      3.864
REMARK  Name = 
REMARK  6 active torsions:
REMARK  status: ('A' for Active; 'I' for Inactive)
REMARK    1  A    between atoms: C_1  and  C_2
REMARK    2  A    between atoms: C_2  and  O_3
REMARK    3  A    between atoms: O_3  and  C_4
REMARK    4  A    between atoms: C_4  and  C_6
REMARK    5  A    between atoms: C_9  and  C_11
REMARK    6  A    between atoms: C_15  and  C_16
REMARK                            x       y       z     vdW  Elec       q    Type
REMARK                         _______ _______ _______ _____ _____    ______ ____
ROOT
ATOM      1  C   UNL     1       4.311   5.799  17.346  0.00  0.00    +0.000 A 
ATOM      2  N   UNL     1       3.605   6.724  18.019  0.00  0.00    +0.000 NA
ATOM      3  N   UNL     1       2.821   6.025  18.882  0.00  0.00    +0.000 N 
ATOM      4  C   UNL     1       2.015   6.738  19.802  0.00  0.00    +0.000 C 
ATOM      5  O   UNL     1       1.583   6.133  20.783  0.00  0.00    +0.000 OA
ATOM      6  C   UNL     1       2.963   4.656  18.725  0.00  0.00    +0.000 A 
ATOM      7  C   UNL     1       2.344   3.566  19.357  0.00  0.00    +0.000 A 
ATOM      8  C   UNL     1       2.694   2.280  18.934  0.00  0.00    +0.000 A 
ATOM      9  C   UNL     1       3.631   2.089  17.923  0.00  0.00    +0.000 A 
ATOM     10  C   UNL     1       4.250   3.183  17.307  0.00  0.00    +0.000 A 
ATOM     11  C   UNL     1       3.902   4.488  17.709  0.00  0.00    +0.000 A 
ENDROOT
BRANCH   4  12
ATOM     12  C   UNL     1       1.663   8.174  19.637  0.00  0.00    +0.000 A 
ATOM     13  C   UNL     1       1.882   8.822  18.415  0.00  0.00    +0.000 A 
ATOM     14  C   UNL     1       1.535  10.162  18.263  0.00  0.00    +0.000 A 
ATOM     15  C   UNL     1       0.967  10.860  19.328  0.00  0.00    +0.000 A 
ATOM     16  C   UNL     1       0.730  10.222  20.552  0.00  0.00    +0.000 A 
ATOM     17  C   UNL     1       0.126  10.973  21.702  0.00  0.00    +0.000 C 
ATOM     18  C   UNL     1       1.060   8.866  20.694  0.00  0.00    +0.000 A 
ENDBRANCH   4  12
BRANCH   1  19
ATOM     19  C   UNL     1       5.391   6.161  16.417  0.00  0.00    +0.000 C 
ATOM     20  O   UNL     1       5.197   6.681  15.324  0.00  0.00    +0.000 OA
BRANCH  19  21
ATOM     21  O   UNL     1       6.618   5.750  16.862  0.00  0.00    +0.000 OA
BRANCH  21  23
ATOM     22  C   UNL     1       7.758   5.979  18.952  0.00  0.00    +0.000 C 
ATOM     23  C   UNL     1       7.331   6.688  17.677  0.00  0.00    +0.000 C 
ENDBRANCH  21  23
ENDBRANCH  19  21
ENDBRANCH   1  19
TORSDOF 4
ENDMDL
MODEL 7
REMARK VINA RESULT:      -7.5      1.489      2.266
REMARK  Name = 
REMARK  6 active torsions:
REMARK  status: ('A' for Active; 'I' for Inactive)
REMARK    1  A    between atoms: C_1  and  C_2
REMARK    2  A    between atoms: C_2  and  O_3
REMARK    3  A    between atoms: O_3  and  C_4
REMARK    4  A    between atoms: C_4  and  C_6
REMARK    5  A    between atoms: C_9  and  C_11
REMARK    6  A    between atoms: C_15  and  C_16
REMARK                            x       y       z     vdW  Elec       q    Type
REMARK                         _______ _______ _______ _____ _____    ______ ____
ROOT
ATOM      1  C   UNL     1       2.474   5.179  20.119  0.00  0.00    +0.000 A 
ATOM      2  N   UNL     1       1.870   6.367  19.947  0.00  0.00    +0.000 NA
ATOM      3  N   UNL     1       2.590   7.004  18.986  0.00  0.00    +0.000 N 
ATOM      4  C   UNL     1       2.140   8.263  18.518  0.00  0.00    +0.000 C 
ATOM      5  O   UNL     1       2.576   8.670  17.441  0.00  0.00    +0.000 OA
ATOM      6  C   UNL     1       3.692   6.267  18.583  0.00  0.00    +0.000 A 
ATOM      7  C   UNL     1       4.716   6.532  17.661  0.00  0.00    +0.000 A 
ATOM      8  C   UNL     1       5.722   5.573  17.509  0.00  0.00    +0.000 A 
ATOM      9  C   UNL     1       5.703   4.392  18.244  0.00  0.00    +0.000 A 
ATOM     10  C   UNL     1       4.670   4.134  19.153  0.00  0.00    +0.000 A 
ATOM     11  C   UNL     1       3.654   5.092  19.332  0.00  0.00    +0.000 A 
ENDROOT
BRANCH   4  12
ATOM     12  C   UNL     1       1.177   9.115  19.266  0.00  0.00    +0.000 A 
ATOM     13  C   UNL     1       0.356  10.023  18.585  0.00  0.00    +0.000 A 
ATOM     14  C   UNL     1      -0.555  10.805  19.291  0.00  0.00    +0.000 A 
ATOM     15  C   UNL     1      -0.653  10.683  20.676  0.00  0.00    +0.000 A 
ATOM     16  C   UNL     1       0.152   9.769  21.369  0.00  0.00    +0.000 A 
ATOM     17  C   UNL     1       0.055   9.642  22.860  0.00  0.00    +0.000 C 
ATOM     18  C   UNL     1       1.053   8.967  20.652  0.00  0.00    +0.000 A 
ENDBRANCH   4  12
BRANCH   1  19
ATOM     19  C   UNL     1       1.905   4.128  20.975  0.00  0.00    +0.000 C 
ATOM     20  O   UNL     1       2.448   3.718  21.995  0.00  0.00    +0.000 OA
BRANCH  19  21
ATOM     21  O   UNL     1       0.766   3.586  20.444  0.00  0.00    +0.000 OA
BRANCH  21  23
ATOM     22  C   UNL     1       1.740   1.829  19.148  0.00  0.00    +0.000 C 
ATOM     23  C   UNL     1       0.881   3.082  19.108  0.00  0.00    +0.000 C 
ENDBRANCH  21  23
ENDBRANCH  19  21
ENDBRANCH   1  19
TORSDOF 4
ENDMDL
MODEL 8
REMARK VINA RESULT:      -7.5      1.878      4.026
REMARK  Name = 
REMARK  6 active torsions:
REMARK  status: ('A' for Active; 'I' for Inactive)
REMARK    1  A    between atoms: C_1  and  C_2
REMARK    2  A    between atoms: C_2  and  O_3
REMARK    3  A    between atoms: O_3  and  C_4
REMARK    4  A    between atoms: C_4  and  C_6
REMARK    5  A    between atoms: C_9  and  C_11
REMARK    6  A    between atoms: C_15  and  C_16
REMARK                            x       y       z     vdW  Elec       q    Type
REMARK                         _______ _______ _______ _____ _____    ______ ____
ROOT
ATOM      1  C   UNL     1       4.229   5.594  17.266  0.00  0.00    +0.000 A 
ATOM      2  N   UNL     1       3.567   6.557  17.930  0.00  0.00    +0.000 NA
ATOM      3  N   UNL     1       2.804   5.905  18.848  0.00  0.00    +0.000 N 
ATOM      4  C   UNL     1       2.048   6.667  19.771  0.00  0.00    +0.000 C 
ATOM      5  O   UNL     1       1.643   6.108  20.790  0.00  0.00    +0.000 OA
ATOM      6  C   UNL     1       2.916   4.528  18.738  0.00  0.00    +0.000 A 
ATOM      7  C   UNL     1       2.303   3.475  19.434  0.00  0.00    +0.000 A 
ATOM      8  C   UNL     1       2.614   2.168  19.047  0.00  0.00    +0.000 A 
ATOM      9  C   UNL     1       3.506   1.921  18.008  0.00  0.00    +0.000 A 
ATOM     10  C   UNL     1       4.120   2.980  17.328  0.00  0.00    +0.000 A 
ATOM     11  C   UNL     1       3.812   4.305  17.693  0.00  0.00    +0.000 A 
ENDROOT
BRANCH   4  12
ATOM     12  C   UNL     1       1.715   8.102  19.566  0.00  0.00    +0.000 A 
ATOM     13  C   UNL     1       1.971   8.720  18.335  0.00  0.00    +0.000 A 
ATOM     14  C   UNL     1       1.642  10.060  18.145  0.00  0.00    +0.000 A 
ATOM     15  C   UNL     1       1.055  10.787  19.179  0.00  0.00    +0.000 A 
ATOM     16  C   UNL     1       0.781  10.179  20.412  0.00  0.00    +0.000 A 
ATOM     17  C   UNL     1       0.158  10.962  21.529  0.00  0.00    +0.000 C 
ATOM     18  C   UNL     1       1.094   8.824  20.592  0.00  0.00    +0.000 A 
ENDBRANCH   4  12
BRANCH   1  19
ATOM     19  C   UNL     1       5.278   5.901  16.283  0.00  0.00    +0.000 C 
ATOM     20  O   UNL     1       5.185   6.795  15.450  0.00  0.00    +0.000 OA
BRANCH  19  21
ATOM     21  O   UNL     1       6.313   5.006  16.332  0.00  0.00    +0.000 OA
BRANCH  21  23
ATOM     22  C   UNL     1       6.216   3.820  14.258  0.00  0.00    +0.000 C 
ATOM     23  C   UNL     1       7.016   4.800  15.101  0.00  0.00    +0.000 C 
ENDBRANCH  21  23
ENDBRANCH  19  21
ENDBRANCH   1  19
TORSDOF 4
ENDMDL
MODEL 9
REMARK VINA RESULT:      -7.5      1.645      2.196
REMARK  Name = 
REMARK  6 active torsions:
REMARK  status: ('A' for Active; 'I' for Inactive)
REMARK    1  A    between atoms: C_1  and  C_2
REMARK    2  A    between atoms: C_2  and  O_3
REMARK    3  A    between atoms: O_3  and  C_4
REMARK    4  A    between atoms: C_4  and  C_6
REMARK    5  A    between atoms: C_9  and  C_11
REMARK    6  A    between atoms: C_15  and  C_16
REMARK                            x       y       z     vdW  Elec       q    Type
REMARK                         _______ _______ _______ _____ _____    ______ ____
ROOT
ATOM      1  C   UNL     1       2.320   5.097  20.487  0.00  0.00    +0.000 A 
ATOM      2  N   UNL     1       1.719   6.289  20.647  0.00  0.00    +0.000 NA
ATOM      3  N   UNL     1       2.204   7.076  19.650  0.00  0.00    +0.000 N 
ATOM      4  C   UNL     1       1.684   8.384  19.499  0.00  0.00    +0.000 C 
ATOM      5  O   UNL     1       1.860   8.958  18.425  0.00  0.00    +0.000 OA
ATOM      6  C   UNL     1       3.163   6.425  18.890  0.00  0.00    +0.000 A 
ATOM      7  C   UNL     1       3.945   6.843  17.802  0.00  0.00    +0.000 A 
ATOM      8  C   UNL     1       4.866   5.934  17.272  0.00  0.00    +0.000 A 
ATOM      9  C   UNL     1       4.996   4.655  17.803  0.00  0.00    +0.000 A 
ATOM     10  C   UNL     1       4.202   4.245  18.881  0.00  0.00    +0.000 A 
ATOM     11  C   UNL     1       3.277   5.149  19.439  0.00  0.00    +0.000 A 
ENDROOT
BRANCH   4  12
ATOM     12  C   UNL     1       0.944   9.097  20.575  0.00  0.00    +0.000 A 
ATOM     13  C   UNL     1       1.135   8.749  21.918  0.00  0.00    +0.000 A 
ATOM     14  C   UNL     1       0.451   9.431  22.921  0.00  0.00    +0.000 A 
ATOM     15  C   UNL     1      -0.424  10.464  22.588  0.00  0.00    +0.000 A 
ATOM     16  C   UNL     1      -0.616  10.833  21.250  0.00  0.00    +0.000 A 
ATOM     17  C   UNL     1      -1.563  11.938  20.890  0.00  0.00    +0.000 C 
ATOM     18  C   UNL     1       0.092  10.158  20.245  0.00  0.00    +0.000 A 
ENDBRANCH   4  12
BRANCH   1  19
ATOM     19  C   UNL     1       1.947   3.919  21.284  0.00  0.00    +0.000 C 
ATOM     20  O   UNL     1       2.551   3.564  22.290  0.00  0.00    +0.000 OA
BRANCH  19  21
ATOM     21  O   UNL     1       0.928   3.207  20.712  0.00  0.00    +0.000 OA
BRANCH  21  23
ATOM     22  C   UNL     1       0.924   2.362  18.475  0.00  0.00    +0.000 C 
ATOM     23  C   UNL     1       1.323   2.085  19.916  0.00  0.00    +0.000 C 
ENDBRANCH  21  23
ENDBRANCH  19  21
ENDBRANCH   1  19
TORSDOF 4
ENDMDL
