MODEL 1
REMARK VINA RESULT:      -7.3      0.000      0.000
REMARK  Name = 
REMARK  8 active torsions:
REMARK  status: ('A' for Active; 'I' for Inactive)
REMARK    1  A    between atoms: C_1  and  C_2
REMARK    2  A    between atoms: C_5  and  N_6
REMARK    3  A    between atoms: N_9  and  C_10
REMARK    4  A    between atoms: C_10  and  C_11
REMARK    5  A    between atoms: C_11  and  O_12
REMARK    6  A    between atoms: O_12  and  C_13
REMARK    7  A    between atoms: C_13  and  C_14
REMARK    8  A    between atoms: C_13  and  C_19
REMARK                            x       y       z     vdW  Elec       q    Type
REMARK                         _______ _______ _______ _____ _____    ______ ____
ROOT
ATOM      1  C   UNL     1       2.734   6.338  18.049  0.00  0.00    +0.000 C 
ENDROOT
BRANCH   1   2
ATOM      2  C   UNL     1       2.160   5.177  18.834  0.00  0.00    +0.000 A 
ATOM      3  C   UNL     1       1.922   5.241  20.217  0.00  0.00    +0.000 A 
ATOM      4  C   UNL     1       1.372   4.150  20.895  0.00  0.00    +0.000 A 
ATOM      5  C   UNL     1       1.056   2.979  20.206  0.00  0.00    +0.000 A 
ATOM      6  C   UNL     1       1.299   2.897  18.838  0.00  0.00    +0.000 A 
ATOM      7  C   UNL     1       1.849   3.987  18.168  0.00  0.00    +0.000 A 
ATOM      8  F   UNL     1       2.064   3.887  16.848  0.00  0.00    +0.000 F 
ENDBRANCH   1   2
BRANCH   1   9
ATOM      9  C   UNL     1       4.194   6.162  17.710  0.00  0.00    +0.000 A 
ATOM     10  C   UNL     1       4.875   6.494  16.552  0.00  0.00    +0.000 A 
ATOM     11  C   UNL     1       6.182   5.924  16.512  0.00  0.00    +0.000 A 
ATOM     12  C   UNL     1       6.475   5.229  17.663  0.00  0.00    +0.000 A 
ATOM     13  S   UNL     1       5.239   5.388  18.832  0.00  0.00    +0.000 S 
ENDBRANCH   1   9
BRANCH   1  14
ATOM     14  O   UNL     1       2.585   7.549  18.821  0.00  0.00    +0.000 OA
BRANCH  14  15
ATOM     15  C   UNL     1       2.316   8.757  18.096  0.00  0.00    +0.000 C 
BRANCH  15  16
ATOM     16  C   UNL     1       0.951   9.385  18.386  0.00  0.00    +0.000 C 
BRANCH  16  22
ATOM     17  C   UNL     1       0.335   8.494  21.277  0.00  0.00    +0.000 C 
ATOM     18  C   UNL     1       0.717   9.865  20.853  0.00  0.00    +0.000 A 
ATOM     19  N   UNL     1       0.850  10.878  21.688  0.00  0.00    +0.000 NA
ATOM     20  C   UNL     1       1.184  11.960  20.926  0.00  0.00    +0.000 A 
ATOM     21  C   UNL     1       1.246  11.608  19.602  0.00  0.00    +0.000 A 
ATOM     22  N   UNL     1       0.961  10.265  19.546  0.00  0.00    +0.000 N 
BRANCH  21  23
ATOM     23  N   UNL     1       1.539  12.465  18.504  0.00  0.00    +0.000 N 
ATOM     24  O   UNL     1       0.646  13.255  18.170  0.00  0.00    +0.000 OA
ATOM     25  O   UNL     1       2.640  12.355  17.961  0.00  0.00    +0.000 OA
ENDBRANCH  21  23
ENDBRANCH  16  22
ENDBRANCH  15  16
ENDBRANCH  14  15
ENDBRANCH   1  14
TORSDOF 7
ENDMDL
MODEL 2
REMARK VINA RESULT:      -7.2      3.840      6.704
REMARK  Name = 
REMARK  8 active torsions:
REMARK  status: ('A' for Active; 'I' for Inactive)
REMARK    1  A    between atoms: C_1  and  C_2
REMARK    2  A    between atoms: C_5  and  N_6
REMARK    3  A    between atoms: N_9  and  C_10
REMARK    4  A    between atoms: C_10  and  C_11
REMARK    5  A    between atoms: C_11  and  O_12
REMARK    6  A    between atoms: O_12  and  C_13
REMARK    7  A    between atoms: C_13  and  C_14
REMARK    8  A    between atoms: C_13  and  C_19
REMARK                            x       y       z     vdW  Elec       q    Type
REMARK                         _______ _______ _______ _____ _____    ______ ____
ROOT
ATOM      1  C   UNL     1       2.686   6.660  19.295  0.00  0.00    +0.000 C 
ENDROOT
BRANCH   1   2
ATOM      2  C   UNL     1       2.049   5.292  19.424  0.00  0.00    +0.000 A 
ATOM      3  C   UNL     1       1.455   4.626  18.339  0.00  0.00    +0.000 A 
ATOM      4  C   UNL     1       0.897   3.355  18.503  0.00  0.00    +0.000 A 
ATOM      5  C   UNL     1       0.917   2.733  19.751  0.00  0.00    +0.000 A 
ATOM      6  C   UNL     1       1.489   3.387  20.839  0.00  0.00    +0.000 A 
ATOM      7  C   UNL     1       2.042   4.654  20.669  0.00  0.00    +0.000 A 
ATOM      8  F   UNL     1       2.597   5.259  21.730  0.00  0.00    +0.000 F 
ENDBRANCH   1   2
BRANCH   1   9
ATOM      9  C   UNL     1       1.847   7.765  19.888  0.00  0.00    +0.000 A 
ATOM     10  C   UNL     1       1.292   7.867  21.152  0.00  0.00    +0.000 A 
ATOM     11  C   UNL     1       0.345   8.929  21.241  0.00  0.00    +0.000 A 
ATOM     12  C   UNL     1       0.254   9.637  20.065  0.00  0.00    +0.000 A 
ATOM     13  S   UNL     1       1.404   9.110  18.917  0.00  0.00    +0.000 S 
ENDBRANCH   1   9
BRANCH   1  14
ATOM     14  O   UNL     1       2.903   6.948  17.897  0.00  0.00    +0.000 OA
BRANCH  14  15
ATOM     15  C   UNL     1       4.229   6.753  17.388  0.00  0.00    +0.000 C 
BRANCH  15  16
ATOM     16  C   UNL     1       4.458   5.405  16.701  0.00  0.00    +0.000 C 
BRANCH  16  22
ATOM     17  C   UNL     1       6.283   4.950  14.254  0.00  0.00    +0.000 C 
ATOM     18  C   UNL     1       6.678   4.780  15.676  0.00  0.00    +0.000 A 
ATOM     19  N   UNL     1       7.887   4.417  16.061  0.00  0.00    +0.000 NA
ATOM     20  C   UNL     1       7.850   4.351  17.423  0.00  0.00    +0.000 A 
ATOM     21  C   UNL     1       6.596   4.667  17.881  0.00  0.00    +0.000 A 
ATOM     22  N   UNL     1       5.841   4.955  16.770  0.00  0.00    +0.000 N 
BRANCH  21  23
ATOM     23  N   UNL     1       6.160   4.683  19.236  0.00  0.00    +0.000 N 
ATOM     24  O   UNL     1       6.732   5.483  19.987  0.00  0.00    +0.000 OA
ATOM     25  O   UNL     1       5.264   3.903  19.566  0.00  0.00    +0.000 OA
ENDBRANCH  21  23
ENDBRANCH  16  22
ENDBRANCH  15  16
ENDBRANCH  14  15
ENDBRANCH   1  14
TORSDOF 7
ENDMDL
MODEL 3
REMARK VINA RESULT:      -7.1      3.889      5.857
REMARK  Name = 
REMARK  8 active torsions:
REMARK  status: ('A' for Active; 'I' for Inactive)
REMARK    1  A    between atoms: C_1  and  C_2
REMARK    2  A    between atoms: C_5  and  N_6
REMARK    3  A    between atoms: N_9  and  C_10
REMARK    4  A    between atoms: C_10  and  C_11
REMARK    5  A    between atoms: C_11  and  O_12
REMARK    6  A    between atoms: O_12  and  C_13
REMARK    7  A    between atoms: C_13  and  C_14
REMARK    8  A    between atoms: C_13  and  C_19
REMARK                            x       y       z     vdW  Elec       q    Type
REMARK                         _______ _______ _______ _____ _____    ______ ____
ROOT
ATOM      1  C   UNL     1       2.978   5.947  19.945  0.00  0.00    +0.000 C 
ENDROOT
BRANCH   1   2
ATOM      2  C   UNL     1       2.162   4.688  19.735  0.00  0.00    +0.000 A 
ATOM      3  C   UNL     1       1.664   4.307  18.477  0.00  0.00    +0.000 A 
ATOM      4  C   UNL     1       0.933   3.126  18.329  0.00  0.00    +0.000 A 
ATOM      5  C   UNL     1       0.683   2.310  19.432  0.00  0.00    +0.000 A 
ATOM      6  C   UNL     1       1.158   2.681  20.687  0.00  0.00    +0.000 A 
ATOM      7  C   UNL     1       1.885   3.861  20.829  0.00  0.00    +0.000 A 
ATOM      8  F   UNL     1       2.341   4.191  22.045  0.00  0.00    +0.000 F 
ENDBRANCH   1   2
BRANCH   1   9
ATOM      9  C   UNL     1       2.267   7.198  19.490  0.00  0.00    +0.000 A 
ATOM     10  C   UNL     1       2.256   7.800  18.244  0.00  0.00    +0.000 A 
ATOM     11  C   UNL     1       1.691   9.109  18.283  0.00  0.00    +0.000 A 
ATOM     12  C   UNL     1       1.238   9.437  19.540  0.00  0.00    +0.000 A 
ATOM     13  S   UNL     1       1.364   8.121  20.622  0.00  0.00    +0.000 S 
ENDBRANCH   1   9
BRANCH   1  14
ATOM     14  O   UNL     1       4.218   5.832  19.215  0.00  0.00    +0.000 OA
BRANCH  14  15
ATOM     15  C   UNL     1       4.900   4.572  19.281  0.00  0.00    +0.000 C 
BRANCH  15  16
ATOM     16  C   UNL     1       6.075   4.431  18.310  0.00  0.00    +0.000 C 
BRANCH  16  22
ATOM     17  C   UNL     1       8.227   5.628  20.171  0.00  0.00    +0.000 C 
ATOM     18  C   UNL     1       7.765   6.214  18.886  0.00  0.00    +0.000 A 
ATOM     19  N   UNL     1       8.244   7.334  18.380  0.00  0.00    +0.000 NA
ATOM     20  C   UNL     1       7.563   7.550  17.218  0.00  0.00    +0.000 A 
ATOM     21  C   UNL     1       6.643   6.553  17.014  0.00  0.00    +0.000 A 
ATOM     22  N   UNL     1       6.774   5.686  18.071  0.00  0.00    +0.000 N 
BRANCH  21  23
ATOM     23  N   UNL     1       5.729   6.444  15.928  0.00  0.00    +0.000 N 
ATOM     24  O   UNL     1       4.618   6.964  16.091  0.00  0.00    +0.000 OA
ATOM     25  O   UNL     1       6.097   5.838  14.920  0.00  0.00    +0.000 OA
ENDBRANCH  21  23
ENDBRANCH  16  22
ENDBRANCH  15  16
ENDBRANCH  14  15
ENDBRANCH   1  14
TORSDOF 7
ENDMDL
MODEL 4
REMARK VINA RESULT:      -7.1      4.096      6.982
REMARK  Name = 
REMARK  8 active torsions:
REMARK  status: ('A' for Active; 'I' for Inactive)
REMARK    1  A    between atoms: C_1  and  C_2
REMARK    2  A    between atoms: C_5  and  N_6
REMARK    3  A    between atoms: N_9  and  C_10
REMARK    4  A    between atoms: C_10  and  C_11
REMARK    5  A    between atoms: C_11  and  O_12
REMARK    6  A    between atoms: O_12  and  C_13
REMARK    7  A    between atoms: C_13  and  C_14
REMARK    8  A    between atoms: C_13  and  C_19
REMARK                            x       y       z     vdW  Elec       q    Type
REMARK                         _______ _______ _______ _____ _____    ______ ____
ROOT
ATOM      1  C   UNL     1       2.758   6.238  18.118  0.00  0.00    +0.000 C 
ENDROOT
BRANCH   1   2
ATOM      2  C   UNL     1       4.264   6.084  18.165  0.00  0.00    +0.000 A 
ATOM      3  C   UNL     1       4.931   5.472  19.239  0.00  0.00    +0.000 A 
ATOM      4  C   UNL     1       6.322   5.336  19.229  0.00  0.00    +0.000 A 
ATOM      5  C   UNL     1       7.068   5.812  18.151  0.00  0.00    +0.000 A 
ATOM      6  C   UNL     1       6.422   6.433  17.086  0.00  0.00    +0.000 A 
ATOM      7  C   UNL     1       5.036   6.568  17.103  0.00  0.00    +0.000 A 
ATOM      8  F   UNL     1       4.436   7.160  16.060  0.00  0.00    +0.000 F 
ENDBRANCH   1   2
BRANCH   1   9
ATOM      9  C   UNL     1       2.271   7.519  18.750  0.00  0.00    +0.000 A 
ATOM     10  C   UNL     1       1.917   7.774  20.063  0.00  0.00    +0.000 A 
ATOM     11  C   UNL     1       1.252   9.027  20.208  0.00  0.00    +0.000 A 
ATOM     12  C   UNL     1       1.176   9.711  19.017  0.00  0.00    +0.000 A 
ATOM     13  S   UNL     1       2.026   8.909  17.770  0.00  0.00    +0.000 S 
ENDBRANCH   1   9
BRANCH   1  14
ATOM     14  O   UNL     1       2.149   5.126  18.808  0.00  0.00    +0.000 OA
BRANCH  14  15
ATOM     15  C   UNL     1       1.528   4.117  18.000  0.00  0.00    +0.000 C 
BRANCH  15  16
ATOM     16  C   UNL     1       1.487   2.725  18.636  0.00  0.00    +0.000 C 
BRANCH  16  22
ATOM     17  C   UNL     1       3.988   1.380  17.427  0.00  0.00    +0.000 C 
ATOM     18  C   UNL     1       3.837   1.825  18.836  0.00  0.00    +0.000 A 
ATOM     19  N   UNL     1       4.782   1.702  19.747  0.00  0.00    +0.000 NA
ATOM     20  C   UNL     1       4.263   2.200  20.906  0.00  0.00    +0.000 A 
ATOM     21  C   UNL     1       2.974   2.624  20.706  0.00  0.00    +0.000 A 
ATOM     22  N   UNL     1       2.696   2.400  19.380  0.00  0.00    +0.000 N 
BRANCH  21  23
ATOM     23  N   UNL     1       2.096   3.179  21.680  0.00  0.00    +0.000 N 
ATOM     24  O   UNL     1       2.157   4.404  21.841  0.00  0.00    +0.000 OA
ATOM     25  O   UNL     1       1.354   2.409  22.295  0.00  0.00    +0.000 OA
ENDBRANCH  21  23
ENDBRANCH  16  22
ENDBRANCH  15  16
ENDBRANCH  14  15
ENDBRANCH   1  14
TORSDOF 7
ENDMDL
MODEL 5
REMARK VINA RESULT:      -7.1      4.167      6.432
REMARK  Name = 
REMARK  8 active torsions:
REMARK  status: ('A' for Active; 'I' for Inactive)
REMARK    1  A    between atoms: C_1  and  C_2
REMARK    2  A    between atoms: C_5  and  N_6
REMARK    3  A    between atoms: N_9  and  C_10
REMARK    4  A    between atoms: C_10  and  C_11
REMARK    5  A    between atoms: C_11  and  O_12
REMARK    6  A    between atoms: O_12  and  C_13
REMARK    7  A    between atoms: C_13  and  C_14
REMARK    8  A    between atoms: C_13  and  C_19
REMARK                            x       y       z     vdW  Elec       q    Type
REMARK                         _______ _______ _______ _____ _____    ______ ____
ROOT
ATOM      1  C   UNL     1       3.667   5.555  18.314  0.00  0.00    +0.000 C 
ENDROOT
BRANCH   1   2
ATOM      2  C   UNL     1       2.900   6.835  18.572  0.00  0.00    +0.000 A 
ATOM      3  C   UNL     1       2.848   7.888  17.644  0.00  0.00    +0.000 A 
ATOM      4  C   UNL     1       2.110   9.042  17.918  0.00  0.00    +0.000 A 
ATOM      5  C   UNL     1       1.419   9.167  19.123  0.00  0.00    +0.000 A 
ATOM      6  C   UNL     1       1.472   8.137  20.058  0.00  0.00    +0.000 A 
ATOM      7  C   UNL     1       2.211   6.990  19.780  0.00  0.00    +0.000 A 
ATOM      8  F   UNL     1       2.238   6.008  20.692  0.00  0.00    +0.000 F 
ENDBRANCH   1   2
BRANCH   1   9
ATOM      9  C   UNL     1       4.902   5.761  17.472  0.00  0.00    +0.000 A 
ATOM     10  C   UNL     1       5.029   5.815  16.095  0.00  0.00    +0.000 A 
ATOM     11  C   UNL     1       6.391   5.752  15.676  0.00  0.00    +0.000 A 
ATOM     12  C   UNL     1       7.257   5.712  16.745  0.00  0.00    +0.000 A 
ATOM     13  S   UNL     1       6.436   5.895  18.232  0.00  0.00    +0.000 S 
ENDBRANCH   1   9
BRANCH   1  14
ATOM     14  O   UNL     1       2.803   4.614  17.641  0.00  0.00    +0.000 OA
BRANCH  14  15
ATOM     15  C   UNL     1       3.391   3.379  17.210  0.00  0.00    +0.000 C 
BRANCH  15  16
ATOM     16  C   UNL     1       2.933   2.147  17.994  0.00  0.00    +0.000 C 
BRANCH  16  22
ATOM     17  C   UNL     1       0.068   2.806  18.933  0.00  0.00    +0.000 C 
ATOM     18  C   UNL     1       1.268   2.714  19.804  0.00  0.00    +0.000 A 
ATOM     19  N   UNL     1       1.239   2.898  21.110  0.00  0.00    +0.000 NA
ATOM     20  C   UNL     1       2.525   2.755  21.544  0.00  0.00    +0.000 A 
ATOM     21  C   UNL     1       3.357   2.490  20.486  0.00  0.00    +0.000 A 
ATOM     22  N   UNL     1       2.560   2.449  19.369  0.00  0.00    +0.000 N 
BRANCH  21  23
ATOM     23  N   UNL     1       4.767   2.302  20.535  0.00  0.00    +0.000 N 
ATOM     24  O   UNL     1       5.443   3.024  19.791  0.00  0.00    +0.000 OA
ATOM     25  O   UNL     1       5.211   1.440  21.296  0.00  0.00    +0.000 OA
ENDBRANCH  21  23
ENDBRANCH  16  22
ENDBRANCH  15  16
ENDBRANCH  14  15
ENDBRANCH   1  14
TORSDOF 7
ENDMDL
MODEL 6
REMARK VINA RESULT:      -7.0      3.773      6.588
REMARK  Name = 
REMARK  8 active torsions:
REMARK  status: ('A' for Active; 'I' for Inactive)
REMARK    1  A    between atoms: C_1  and  C_2
REMARK    2  A    between atoms: C_5  and  N_6
REMARK    3  A    between atoms: N_9  and  C_10
REMARK    4  A    between atoms: C_10  and  C_11
REMARK    5  A    between atoms: C_11  and  O_12
REMARK    6  A    between atoms: O_12  and  C_13
REMARK    7  A    between atoms: C_13  and  C_14
REMARK    8  A    between atoms: C_13  and  C_19
REMARK                            x       y       z     vdW  Elec       q    Type
REMARK                         _______ _______ _______ _____ _____    ______ ____
ROOT
ATOM      1  C   UNL     1       2.663   5.970  18.977  0.00  0.00    +0.000 C 
ENDROOT
BRANCH   1   2
ATOM      2  C   UNL     1       2.076   7.283  19.454  0.00  0.00    +0.000 A 
ATOM      3  C   UNL     1       1.647   7.486  20.776  0.00  0.00    +0.000 A 
ATOM      4  C   UNL     1       1.129   8.721  21.174  0.00  0.00    +0.000 A 
ATOM      5  C   UNL     1       1.027   9.769  20.260  0.00  0.00    +0.000 A 
ATOM      6  C   UNL     1       1.436   9.579  18.943  0.00  0.00    +0.000 A 
ATOM      7  C   UNL     1       1.949   8.345  18.551  0.00  0.00    +0.000 A 
ATOM      8  F   UNL     1       2.345   8.189  17.280  0.00  0.00    +0.000 F 
ENDBRANCH   1   2
BRANCH   1   9
ATOM      9  C   UNL     1       1.866   4.767  19.417  0.00  0.00    +0.000 A 
ATOM     10  C   UNL     1       1.525   4.356  20.694  0.00  0.00    +0.000 A 
ATOM     11  C   UNL     1       1.001   3.030  20.711  0.00  0.00    +0.000 A 
ATOM     12  C   UNL     1       0.903   2.498  19.446  0.00  0.00    +0.000 A 
ATOM     13  S   UNL     1       1.306   3.644  18.245  0.00  0.00    +0.000 S 
ENDBRANCH   1   9
BRANCH   1  14
ATOM     14  O   UNL     1       4.008   5.842  19.487  0.00  0.00    +0.000 OA
BRANCH  14  15
ATOM     15  C   UNL     1       4.668   4.586  19.281  0.00  0.00    +0.000 C 
BRANCH  15  16
ATOM     16  C   UNL     1       5.534   4.519  18.021  0.00  0.00    +0.000 C 
BRANCH  16  22
ATOM     17  C   UNL     1       4.989   6.742  15.949  0.00  0.00    +0.000 C 
ATOM     18  C   UNL     1       6.107   6.721  16.927  0.00  0.00    +0.000 A 
ATOM     19  N   UNL     1       7.008   7.679  17.029  0.00  0.00    +0.000 NA
ATOM     20  C   UNL     1       7.870   7.291  18.012  0.00  0.00    +0.000 A 
ATOM     21  C   UNL     1       7.499   6.069  18.513  0.00  0.00    +0.000 A 
ATOM     22  N   UNL     1       6.364   5.701  17.834  0.00  0.00    +0.000 N 
BRANCH  21  23
ATOM     23  N   UNL     1       8.164   5.326  19.530  0.00  0.00    +0.000 N 
ATOM     24  O   UNL     1       7.835   5.574  20.696  0.00  0.00    +0.000 OA
ATOM     25  O   UNL     1       9.017   4.506  19.183  0.00  0.00    +0.000 OA
ENDBRANCH  21  23
ENDBRANCH  16  22
ENDBRANCH  15  16
ENDBRANCH  14  15
ENDBRANCH   1  14
TORSDOF 7
ENDMDL
MODEL 7
REMARK VINA RESULT:      -7.0      2.244      4.317
REMARK  Name = 
REMARK  8 active torsions:
REMARK  status: ('A' for Active; 'I' for Inactive)
REMARK    1  A    between atoms: C_1  and  C_2
REMARK    2  A    between atoms: C_5  and  N_6
REMARK    3  A    between atoms: N_9  and  C_10
REMARK    4  A    between atoms: C_10  and  C_11
REMARK    5  A    between atoms: C_11  and  O_12
REMARK    6  A    between atoms: O_12  and  C_13
REMARK    7  A    between atoms: C_13  and  C_14
REMARK    8  A    between atoms: C_13  and  C_19
REMARK                            x       y       z     vdW  Elec       q    Type
REMARK                         _______ _______ _______ _____ _____    ______ ____
ROOT
ATOM      1  C   UNL     1       3.118   5.883  19.660  0.00  0.00    +0.000 C 
ENDROOT
BRANCH   1   2
ATOM      2  C   UNL     1       4.121   5.822  18.527  0.00  0.00    +0.000 A 
ATOM      3  C   UNL     1       4.079   6.695  17.428  0.00  0.00    +0.000 A 
ATOM      4  C   UNL     1       5.038   6.613  16.416  0.00  0.00    +0.000 A 
ATOM      5  C   UNL     1       6.050   5.655  16.481  0.00  0.00    +0.000 A 
ATOM      6  C   UNL     1       6.098   4.774  17.558  0.00  0.00    +0.000 A 
ATOM      7  C   UNL     1       5.137   4.860  18.563  0.00  0.00    +0.000 A 
ATOM      8  F   UNL     1       5.210   4.006  19.594  0.00  0.00    +0.000 F 
ENDBRANCH   1   2
BRANCH   1   9
ATOM      9  C   UNL     1       2.185   4.698  19.693  0.00  0.00    +0.000 A 
ATOM     10  C   UNL     1       1.735   3.961  20.774  0.00  0.00    +0.000 A 
ATOM     11  C   UNL     1       1.084   2.757  20.373  0.00  0.00    +0.000 A 
ATOM     12  C   UNL     1       1.006   2.645  19.004  0.00  0.00    +0.000 A 
ATOM     13  S   UNL     1       1.585   4.049  18.220  0.00  0.00    +0.000 S 
ENDBRANCH   1   9
BRANCH   1  14
ATOM     14  O   UNL     1       2.330   7.085  19.527  0.00  0.00    +0.000 OA
BRANCH  14  15
ATOM     15  C   UNL     1       1.841   7.683  20.736  0.00  0.00    +0.000 C 
BRANCH  15  16
ATOM     16  C   UNL     1       0.464   8.339  20.612  0.00  0.00    +0.000 C 
BRANCH  16  22
ATOM     17  C   UNL     1       1.406  10.085  18.248  0.00  0.00    +0.000 C 
ATOM     18  C   UNL     1       0.912  10.587  19.556  0.00  0.00    +0.000 A 
ATOM     19  N   UNL     1       0.807  11.868  19.855  0.00  0.00    +0.000 NA
ATOM     20  C   UNL     1       0.343  11.924  21.137  0.00  0.00    +0.000 A 
ATOM     21  C   UNL     1       0.170  10.658  21.635  0.00  0.00    +0.000 A 
ATOM     22  N   UNL     1       0.520   9.794  20.626  0.00  0.00    +0.000 N 
BRANCH  21  23
ATOM     23  N   UNL     1      -0.274  10.308  22.942  0.00  0.00    +0.000 N 
ATOM     24  O   UNL     1      -1.424  10.653  23.242  0.00  0.00    +0.000 OA
ATOM     25  O   UNL     1       0.509   9.703  23.677  0.00  0.00    +0.000 OA
ENDBRANCH  21  23
ENDBRANCH  16  22
ENDBRANCH  15  16
ENDBRANCH  14  15
ENDBRANCH   1  14
TORSDOF 7
ENDMDL
MODEL 8
REMARK VINA RESULT:      -7.0      1.160      1.603
REMARK  Name = 
REMARK  8 active torsions:
REMARK  status: ('A' for Active; 'I' for Inactive)
REMARK    1  A    between atoms: C_1  and  C_2
REMARK    2  A    between atoms: C_5  and  N_6
REMARK    3  A    between atoms: N_9  and  C_10
REMARK    4  A    between atoms: C_10  and  C_11
REMARK    5  A    between atoms: C_11  and  O_12
REMARK    6  A    between atoms: O_12  and  C_13
REMARK    7  A    between atoms: C_13  and  C_14
REMARK    8  A    between atoms: C_13  and  C_19
REMARK                            x       y       z     vdW  Elec       q    Type
REMARK                         _______ _______ _______ _____ _____    ______ ____
ROOT
ATOM      1  C   UNL     1       2.860   6.234  18.096  0.00  0.00    +0.000 C 
ENDROOT
BRANCH   1   2
ATOM      2  C   UNL     1       2.122   5.045  18.678  0.00  0.00    +0.000 A 
ATOM      3  C   UNL     1       1.685   3.966  17.893  0.00  0.00    +0.000 A 
ATOM      4  C   UNL     1       1.025   2.882  18.477  0.00  0.00    +0.000 A 
ATOM      5  C   UNL     1       0.786   2.861  19.852  0.00  0.00    +0.000 A 
ATOM      6  C   UNL     1       1.202   3.930  20.641  0.00  0.00    +0.000 A 
ATOM      7  C   UNL     1       1.857   5.008  20.051  0.00  0.00    +0.000 A 
ATOM      8  F   UNL     1       2.257   6.021  20.834  0.00  0.00    +0.000 F 
ENDBRANCH   1   2
BRANCH   1   9
ATOM      9  C   UNL     1       4.355   6.039  18.046  0.00  0.00    +0.000 A 
ATOM     10  C   UNL     1       5.204   5.491  18.992  0.00  0.00    +0.000 A 
ATOM     11  C   UNL     1       6.576   5.731  18.689  0.00  0.00    +0.000 A 
ATOM     12  C   UNL     1       6.731   6.398  17.496  0.00  0.00    +0.000 A 
ATOM     13  S   UNL     1       5.240   6.603  16.687  0.00  0.00    +0.000 S 
ENDBRANCH   1   9
BRANCH   1  14
ATOM     14  O   UNL     1       2.575   7.402  18.896  0.00  0.00    +0.000 OA
BRANCH  14  15
ATOM     15  C   UNL     1       2.380   8.639  18.197  0.00  0.00    +0.000 C 
BRANCH  15  16
ATOM     16  C   UNL     1       1.009   9.284  18.412  0.00  0.00    +0.000 C 
BRANCH  16  22
ATOM     17  C   UNL     1       0.230   8.483  21.290  0.00  0.00    +0.000 C 
ATOM     18  C   UNL     1       0.660   9.836  20.851  0.00  0.00    +0.000 A 
ATOM     19  N   UNL     1       0.770  10.868  21.665  0.00  0.00    +0.000 NA
ATOM     20  C   UNL     1       1.164  11.922  20.893  0.00  0.00    +0.000 A 
ATOM     21  C   UNL     1       1.286  11.534  19.584  0.00  0.00    +0.000 A 
ATOM     22  N   UNL     1       0.978  10.196  19.548  0.00  0.00    +0.000 N 
BRANCH  21  23
ATOM     23  N   UNL     1       1.651  12.355  18.480  0.00  0.00    +0.000 N 
ATOM     24  O   UNL     1       0.836  13.225  18.149  0.00  0.00    +0.000 OA
ATOM     25  O   UNL     1       2.733  12.138  17.929  0.00  0.00    +0.000 OA
ENDBRANCH  21  23
ENDBRANCH  16  22
ENDBRANCH  15  16
ENDBRANCH  14  15
ENDBRANCH   1  14
TORSDOF 7
ENDMDL
MODEL 9
REMARK VINA RESULT:      -7.0      1.300      3.590
REMARK  Name = 
REMARK  8 active torsions:
REMARK  status: ('A' for Active; 'I' for Inactive)
REMARK    1  A    between atoms: C_1  and  C_2
REMARK    2  A    between atoms: C_5  and  N_6
REMARK    3  A    between atoms: N_9  and  C_10
REMARK    4  A    between atoms: C_10  and  C_11
REMARK    5  A    between atoms: C_11  and  O_12
REMARK    6  A    between atoms: O_12  and  C_13
REMARK    7  A    between atoms: C_13  and  C_14
REMARK    8  A    between atoms: C_13  and  C_19
REMARK                            x       y       z     vdW  Elec       q    Type
REMARK                         _______ _______ _______ _____ _____    ______ ____
ROOT
ATOM      1  C   UNL     1       3.219   6.584  18.623  0.00  0.00    +0.000 C 
ENDROOT
BRANCH   1   2
ATOM      2  C   UNL     1       4.440   6.092  17.873  0.00  0.00    +0.000 A 
ATOM      3  C   UNL     1       4.615   6.292  16.494  0.00  0.00    +0.000 A 
ATOM      4  C   UNL     1       5.768   5.837  15.849  0.00  0.00    +0.000 A 
ATOM      5  C   UNL     1       6.761   5.171  16.569  0.00  0.00    +0.000 A 
ATOM      6  C   UNL     1       6.595   4.954  17.933  0.00  0.00    +0.000 A 
ATOM      7  C   UNL     1       5.442   5.408  18.570  0.00  0.00    +0.000 A 
ATOM      8  F   UNL     1       5.311   5.196  19.887  0.00  0.00    +0.000 F 
ENDBRANCH   1   2
BRANCH   1   9
ATOM      9  C   UNL     1       2.312   5.468  19.078  0.00  0.00    +0.000 A 
ATOM     10  C   UNL     1       1.865   5.160  20.351  0.00  0.00    +0.000 A 
ATOM     11  C   UNL     1       1.246   3.877  20.410  0.00  0.00    +0.000 A 
ATOM     12  C   UNL     1       1.187   3.277  19.173  0.00  0.00    +0.000 A 
ATOM     13  S   UNL     1       1.744   4.317  17.937  0.00  0.00    +0.000 S 
ENDBRANCH   1   9
BRANCH   1  14
ATOM     14  O   UNL     1       2.465   7.469  17.766  0.00  0.00    +0.000 OA
BRANCH  14  15
ATOM     15  C   UNL     1       2.448   8.860  18.117  0.00  0.00    +0.000 C 
BRANCH  15  16
ATOM     16  C   UNL     1       1.054   9.439  18.364  0.00  0.00    +0.000 C 
BRANCH  16  22
ATOM     17  C   UNL     1       0.482   8.474  21.239  0.00  0.00    +0.000 C 
ATOM     18  C   UNL     1       0.769   9.874  20.834  0.00  0.00    +0.000 A 
ATOM     19  N   UNL     1       0.823  10.884  21.680  0.00  0.00    +0.000 NA
ATOM     20  C   UNL     1       1.086  11.995  20.933  0.00  0.00    +0.000 A 
ATOM     21  C   UNL     1       1.182  11.663  19.606  0.00  0.00    +0.000 A 
ATOM     22  N   UNL     1       0.993  10.305  19.533  0.00  0.00    +0.000 N 
BRANCH  21  23
ATOM     23  N   UNL     1       1.421  12.551  18.519  0.00  0.00    +0.000 N 
ATOM     24  O   UNL     1       0.474  13.271  18.179  0.00  0.00    +0.000 OA
ATOM     25  O   UNL     1       2.536  12.535  17.992  0.00  0.00    +0.000 OA
ENDBRANCH  21  23
ENDBRANCH  16  22
ENDBRANCH  15  16
ENDBRANCH  14  15
ENDBRANCH   1  14
TORSDOF 7
ENDMDL
