MODEL 1
REMARK VINA RESULT:      -7.7      0.000      0.000
REMARK  Name = 
REMARK  7 active torsions:
REMARK  status: ('A' for Active; 'I' for Inactive)
REMARK    1  A    between atoms: C_1  and  C_2
REMARK    2  A    between atoms: C_2  and  C_3
REMARK    3  A    between atoms: C_3  and  N_4
REMARK    4  A    between atoms: C_5  and  O_7
REMARK    5  A    between atoms: O_7  and  C_8
REMARK    6  A    between atoms: C_12  and  C_13
REMARK    7  A    between atoms: C_13  and  C_15
REMARK                            x       y       z     vdW  Elec       q    Type
REMARK                         _______ _______ _______ _____ _____    ______ ____
ROOT
ATOM      1  C   UNL     1       6.576   4.352  16.818  0.00  0.00    +0.000 A 
ATOM      2  C   UNL     1       7.544   4.842  17.684  0.00  0.00    +0.000 A 
ATOM      3  C   UNL     1       7.140   5.397  18.897  0.00  0.00    +0.000 A 
ATOM      4  C   UNL     1       5.779   5.449  19.233  0.00  0.00    +0.000 A 
ATOM      5  C   UNL     1       4.793   4.950  18.361  0.00  0.00    +0.000 A 
ATOM      6  C   UNL     1       5.222   4.390  17.154  0.00  0.00    +0.000 A 
ENDROOT
BRANCH   5   7
ATOM      7  C   UNL     1       3.343   5.035  18.778  0.00  0.00    +0.000 C 
ATOM      8  O   UNL     1       2.755   3.957  18.922  0.00  0.00    +0.000 OA
BRANCH   7   9
ATOM      9  C   UNL     1       2.690   6.326  19.005  0.00  0.00    +0.000 A 
ATOM     10  N   UNL     1       2.597   7.288  18.112  0.00  0.00    +0.000 NA
ATOM     11  C   UNL     1       1.990   8.403  18.639  0.00  0.00    +0.000 A 
ATOM     12  C   UNL     1       1.787   9.621  17.962  0.00  0.00    +0.000 A 
ATOM     13  C   UNL     1       1.161  10.681  18.620  0.00  0.00    +0.000 A 
ATOM     14  C   UNL     1       0.731  10.533  19.935  0.00  0.00    +0.000 A 
ATOM     15  C   UNL     1       0.922   9.330  20.627  0.00  0.00    +0.000 A 
ATOM     16  C   UNL     1       1.563   8.274  19.959  0.00  0.00    +0.000 A 
ATOM     17  S   UNL     1       1.965   6.692  20.522  0.00  0.00    +0.000 S 
ENDBRANCH   7   9
ENDBRANCH   5   7
BRANCH   1  18
ATOM     18  O   UNL     1       6.987   3.664  15.665  0.00  0.00    +0.000 OA
BRANCH  18  20
ATOM     19  N   UNL     1       6.315   3.316  13.555  0.00  0.00    +0.000 N 
ATOM     20  C   UNL     1       6.713   4.272  14.446  0.00  0.00    +0.000 C 
ATOM     21  O   UNL     1       6.800   5.466  14.206  0.00  0.00    +0.000 OA
ATOM     22  H   UNL     1       6.300   2.365  13.895  0.00  0.00    +0.000 HD
BRANCH  19  23
ATOM     23  C   UNL     1       6.087   3.585  12.156  0.00  0.00    +0.000 C 
BRANCH  23  25
ATOM     24  C   UNL     1       3.874   3.602  10.924  0.00  0.00    +0.000 C 
ATOM     25  C   UNL     1       4.934   2.748  11.609  0.00  0.00    +0.000 C 
ENDBRANCH  23  25
ENDBRANCH  19  23
ENDBRANCH  18  20
ENDBRANCH   1  18
TORSDOF 6
ENDMDL
MODEL 2
REMARK VINA RESULT:      -7.7      1.148      1.646
REMARK  Name = 
REMARK  7 active torsions:
REMARK  status: ('A' for Active; 'I' for Inactive)
REMARK    1  A    between atoms: C_1  and  C_2
REMARK    2  A    between atoms: C_2  and  C_3
REMARK    3  A    between atoms: C_3  and  N_4
REMARK    4  A    between atoms: C_5  and  O_7
REMARK    5  A    between atoms: O_7  and  C_8
REMARK    6  A    between atoms: C_12  and  C_13
REMARK    7  A    between atoms: C_13  and  C_15
REMARK                            x       y       z     vdW  Elec       q    Type
REMARK                         _______ _______ _______ _____ _____    ______ ____
ROOT
ATOM      1  C   UNL     1       6.828   4.659  16.925  0.00  0.00    +0.000 A 
ATOM      2  C   UNL     1       7.576   5.002  18.043  0.00  0.00    +0.000 A 
ATOM      3  C   UNL     1       6.917   5.502  19.165  0.00  0.00    +0.000 A 
ATOM      4  C   UNL     1       5.521   5.645  19.158  0.00  0.00    +0.000 A 
ATOM      5  C   UNL     1       4.756   5.295  18.029  0.00  0.00    +0.000 A 
ATOM      6  C   UNL     1       5.439   4.788  16.920  0.00  0.00    +0.000 A 
ENDROOT
BRANCH   5   7
ATOM      7  C   UNL     1       3.256   5.473  18.083  0.00  0.00    +0.000 C 
ATOM      8  O   UNL     1       2.583   4.558  17.595  0.00  0.00    +0.000 OA
BRANCH   7   9
ATOM      9  C   UNL     1       2.652   6.661  18.689  0.00  0.00    +0.000 A 
ATOM     10  N   UNL     1       2.242   6.741  19.937  0.00  0.00    +0.000 NA
ATOM     11  C   UNL     1       1.656   7.958  20.195  0.00  0.00    +0.000 A 
ATOM     12  C   UNL     1       1.069   8.341  21.415  0.00  0.00    +0.000 A 
ATOM     13  C   UNL     1       0.502   9.611  21.540  0.00  0.00    +0.000 A 
ATOM     14  C   UNL     1       0.524  10.497  20.467  0.00  0.00    +0.000 A 
ATOM     15  C   UNL     1       1.104  10.137  19.244  0.00  0.00    +0.000 A 
ATOM     16  C   UNL     1       1.663   8.854  19.126  0.00  0.00    +0.000 A 
ATOM     17  S   UNL     1       2.425   8.100  17.773  0.00  0.00    +0.000 S 
ENDBRANCH   7   9
ENDBRANCH   5   7
BRANCH   1  18
ATOM     18  O   UNL     1       7.472   4.021  15.852  0.00  0.00    +0.000 OA
BRANCH  18  20
ATOM     19  N   UNL     1       6.418   3.626  13.914  0.00  0.00    +0.000 N 
ATOM     20  C   UNL     1       7.206   4.520  14.583  0.00  0.00    +0.000 C 
ATOM     21  O   UNL     1       7.597   5.586  14.135  0.00  0.00    +0.000 OA
ATOM     22  H   UNL     1       6.179   2.780  14.410  0.00  0.00    +0.000 HD
BRANCH  19  23
ATOM     23  C   UNL     1       6.069   3.767  12.520  0.00  0.00    +0.000 C 
BRANCH  23  25
ATOM     24  C   UNL     1       7.164   1.937  11.152  0.00  0.00    +0.000 C 
ATOM     25  C   UNL     1       5.894   2.406  11.851  0.00  0.00    +0.000 C 
ENDBRANCH  23  25
ENDBRANCH  19  23
ENDBRANCH  18  20
ENDBRANCH   1  18
TORSDOF 6
ENDMDL
MODEL 3
REMARK VINA RESULT:      -7.6      3.182      4.459
REMARK  Name = 
REMARK  7 active torsions:
REMARK  status: ('A' for Active; 'I' for Inactive)
REMARK    1  A    between atoms: C_1  and  C_2
REMARK    2  A    between atoms: C_2  and  C_3
REMARK    3  A    between atoms: C_3  and  N_4
REMARK    4  A    between atoms: C_5  and  O_7
REMARK    5  A    between atoms: O_7  and  C_8
REMARK    6  A    between atoms: C_12  and  C_13
REMARK    7  A    between atoms: C_13  and  C_15
REMARK                            x       y       z     vdW  Elec       q    Type
REMARK                         _______ _______ _______ _____ _____    ______ ____
ROOT
ATOM      1  C   UNL     1       4.406   4.453  18.666  0.00  0.00    +0.000 A 
ATOM      2  C   UNL     1       3.452   3.508  18.314  0.00  0.00    +0.000 A 
ATOM      3  C   UNL     1       2.182   3.944  17.939  0.00  0.00    +0.000 A 
ATOM      4  C   UNL     1       1.884   5.315  17.914  0.00  0.00    +0.000 A 
ATOM      5  C   UNL     1       2.849   6.278  18.266  0.00  0.00    +0.000 A 
ATOM      6  C   UNL     1       4.118   5.818  18.629  0.00  0.00    +0.000 A 
ENDROOT
BRANCH   5   7
ATOM      7  C   UNL     1       2.467   7.740  18.220  0.00  0.00    +0.000 C 
ATOM      8  O   UNL     1       2.831   8.364  17.217  0.00  0.00    +0.000 OA
BRANCH   7   9
ATOM      9  C   UNL     1       1.702   8.362  19.303  0.00  0.00    +0.000 A 
ATOM     10  N   UNL     1       1.017   9.480  19.193  0.00  0.00    +0.000 NA
ATOM     11  C   UNL     1       0.462   9.847  20.396  0.00  0.00    +0.000 A 
ATOM     12  C   UNL     1      -0.283  11.019  20.628  0.00  0.00    +0.000 A 
ATOM     13  C   UNL     1      -0.787  11.274  21.905  0.00  0.00    +0.000 A 
ATOM     14  C   UNL     1      -0.561  10.372  22.941  0.00  0.00    +0.000 A 
ATOM     15  C   UNL     1       0.176   9.200  22.731  0.00  0.00    +0.000 A 
ATOM     16  C   UNL     1       0.687   8.958  21.445  0.00  0.00    +0.000 A 
ATOM     17  S   UNL     1       1.640   7.641  20.864  0.00  0.00    +0.000 S 
ENDBRANCH   7   9
ENDBRANCH   5   7
BRANCH   1  18
ATOM     18  O   UNL     1       5.724   4.027  18.901  0.00  0.00    +0.000 OA
BRANCH  18  20
ATOM     19  N   UNL     1       7.183   5.720  19.066  0.00  0.00    +0.000 N 
ATOM     20  C   UNL     1       6.730   4.726  18.246  0.00  0.00    +0.000 C 
ATOM     21  O   UNL     1       7.153   4.490  17.125  0.00  0.00    +0.000 OA
ATOM     22  H   UNL     1       6.730   5.801  19.965  0.00  0.00    +0.000 HD
BRANCH  19  23
ATOM     23  C   UNL     1       8.131   6.723  18.645  0.00  0.00    +0.000 C 
BRANCH  23  25
ATOM     24  C   UNL     1       8.101   9.124  17.836  0.00  0.00    +0.000 C 
ATOM     25  C   UNL     1       7.488   7.735  17.700  0.00  0.00    +0.000 C 
ENDBRANCH  23  25
ENDBRANCH  19  23
ENDBRANCH  18  20
ENDBRANCH   1  18
TORSDOF 6
ENDMDL
MODEL 4
REMARK VINA RESULT:      -7.5      2.840      4.418
REMARK  Name = 
REMARK  7 active torsions:
REMARK  status: ('A' for Active; 'I' for Inactive)
REMARK    1  A    between atoms: C_1  and  C_2
REMARK    2  A    between atoms: C_2  and  C_3
REMARK    3  A    between atoms: C_3  and  N_4
REMARK    4  A    between atoms: C_5  and  O_7
REMARK    5  A    between atoms: O_7  and  C_8
REMARK    6  A    between atoms: C_12  and  C_13
REMARK    7  A    between atoms: C_13  and  C_15
REMARK                            x       y       z     vdW  Elec       q    Type
REMARK                         _______ _______ _______ _____ _____    ______ ____
ROOT
ATOM      1  C   UNL     1       5.619   4.763  18.128  0.00  0.00    +0.000 A 
ATOM      2  C   UNL     1       5.089   3.973  17.117  0.00  0.00    +0.000 A 
ATOM      3  C   UNL     1       3.710   3.770  17.077  0.00  0.00    +0.000 A 
ATOM      4  C   UNL     1       2.880   4.363  18.040  0.00  0.00    +0.000 A 
ATOM      5  C   UNL     1       3.412   5.169  19.065  0.00  0.00    +0.000 A 
ATOM      6  C   UNL     1       4.796   5.366  19.079  0.00  0.00    +0.000 A 
ENDROOT
BRANCH   5   7
ATOM      7  C   UNL     1       2.467   5.780  20.074  0.00  0.00    +0.000 C 
ATOM      8  O   UNL     1       2.133   5.052  21.016  0.00  0.00    +0.000 OA
BRANCH   7   9
ATOM      9  C   UNL     1       1.991   7.158  19.935  0.00  0.00    +0.000 A 
ATOM     10  N   UNL     1       1.373   7.838  20.876  0.00  0.00    +0.000 NA
ATOM     11  C   UNL     1       0.988   9.079  20.427  0.00  0.00    +0.000 A 
ATOM     12  C   UNL     1       0.261  10.028  21.170  0.00  0.00    +0.000 A 
ATOM     13  C   UNL     1      -0.071  11.254  20.588  0.00  0.00    +0.000 A 
ATOM     14  C   UNL     1       0.323  11.539  19.284  0.00  0.00    +0.000 A 
ATOM     15  C   UNL     1       1.048  10.610  18.528  0.00  0.00    +0.000 A 
ATOM     16  C   UNL     1       1.367   9.376  19.119  0.00  0.00    +0.000 A 
ATOM     17  S   UNL     1       2.219   8.025  18.466  0.00  0.00    +0.000 S 
ENDBRANCH   7   9
ENDBRANCH   5   7
BRANCH   1  18
ATOM     18  O   UNL     1       6.985   5.087  18.084  0.00  0.00    +0.000 OA
BRANCH  18  20
ATOM     19  N   UNL     1       7.728   7.201  18.146  0.00  0.00    +0.000 N 
ATOM     20  C   UNL     1       7.338   6.189  17.315  0.00  0.00    +0.000 C 
ATOM     21  O   UNL     1       7.318   6.247  16.095  0.00  0.00    +0.000 OA
ATOM     22  H   UNL     1       7.684   7.010  19.136  0.00  0.00    +0.000 HD
BRANCH  19  23
ATOM     23  C   UNL     1       8.027   8.534  17.682  0.00  0.00    +0.000 C 
BRANCH  23  25
ATOM     24  C   UNL     1       9.117  10.745  18.269  0.00  0.00    +0.000 C 
ATOM     25  C   UNL     1       8.765   9.342  18.747  0.00  0.00    +0.000 C 
ENDBRANCH  23  25
ENDBRANCH  19  23
ENDBRANCH  18  20
ENDBRANCH   1  18
TORSDOF 6
ENDMDL
MODEL 5
REMARK VINA RESULT:      -7.5      3.294      4.642
REMARK  Name = 
REMARK  7 active torsions:
REMARK  status: ('A' for Active; 'I' for Inactive)
REMARK    1  A    between atoms: C_1  and  C_2
REMARK    2  A    between atoms: C_2  and  C_3
REMARK    3  A    between atoms: C_3  and  N_4
REMARK    4  A    between atoms: C_5  and  O_7
REMARK    5  A    between atoms: O_7  and  C_8
REMARK    6  A    between atoms: C_12  and  C_13
REMARK    7  A    between atoms: C_13  and  C_15
REMARK                            x       y       z     vdW  Elec       q    Type
REMARK                         _______ _______ _______ _____ _____    ______ ____
ROOT
ATOM      1  C   UNL     1       4.154   4.374  18.705  0.00  0.00    +0.000 A 
ATOM      2  C   UNL     1       3.121   3.494  18.411  0.00  0.00    +0.000 A 
ATOM      3  C   UNL     1       1.887   4.014  18.025  0.00  0.00    +0.000 A 
ATOM      4  C   UNL     1       1.702   5.401  17.929  0.00  0.00    +0.000 A 
ATOM      5  C   UNL     1       2.747   6.298  18.222  0.00  0.00    +0.000 A 
ATOM      6  C   UNL     1       3.979   5.754  18.599  0.00  0.00    +0.000 A 
ENDROOT
BRANCH   5   7
ATOM      7  C   UNL     1       2.487   7.782  18.102  0.00  0.00    +0.000 C 
ATOM      8  O   UNL     1       2.934   8.332  17.089  0.00  0.00    +0.000 OA
BRANCH   7   9
ATOM      9  C   UNL     1       1.738   8.510  19.130  0.00  0.00    +0.000 A 
ATOM     10  N   UNL     1       1.716   8.195  20.407  0.00  0.00    +0.000 NA
ATOM     11  C   UNL     1       0.871   9.020  21.111  0.00  0.00    +0.000 A 
ATOM     12  C   UNL     1       0.583   8.915  22.485  0.00  0.00    +0.000 A 
ATOM     13  C   UNL     1      -0.301   9.819  23.076  0.00  0.00    +0.000 A 
ATOM     14  C   UNL     1      -0.889  10.824  22.313  0.00  0.00    +0.000 A 
ATOM     15  C   UNL     1      -0.615  10.948  20.946  0.00  0.00    +0.000 A 
ATOM     16  C   UNL     1       0.268  10.027  20.359  0.00  0.00    +0.000 A 
ATOM     17  S   UNL     1       0.795   9.889  18.721  0.00  0.00    +0.000 S 
ENDBRANCH   7   9
ENDBRANCH   5   7
BRANCH   1  18
ATOM     18  O   UNL     1       5.435   3.852  18.952  0.00  0.00    +0.000 OA
BRANCH  18  20
ATOM     19  N   UNL     1       7.061   5.367  19.244  0.00  0.00    +0.000 N 
ATOM     20  C   UNL     1       6.499   4.506  18.343  0.00  0.00    +0.000 C 
ATOM     21  O   UNL     1       6.885   4.336  17.198  0.00  0.00    +0.000 OA
ATOM     22  H   UNL     1       6.628   5.407  20.155  0.00  0.00    +0.000 HD
BRANCH  19  23
ATOM     23  C   UNL     1       8.102   6.305  18.898  0.00  0.00    +0.000 C 
BRANCH  23  25
ATOM     24  C   UNL     1       8.262   8.686  18.048  0.00  0.00    +0.000 C 
ATOM     25  C   UNL     1       7.619   7.317  17.863  0.00  0.00    +0.000 C 
ENDBRANCH  23  25
ENDBRANCH  19  23
ENDBRANCH  18  20
ENDBRANCH   1  18
TORSDOF 6
ENDMDL
MODEL 6
REMARK VINA RESULT:      -7.3      2.350      3.717
REMARK  Name = 
REMARK  7 active torsions:
REMARK  status: ('A' for Active; 'I' for Inactive)
REMARK    1  A    between atoms: C_1  and  C_2
REMARK    2  A    between atoms: C_2  and  C_3
REMARK    3  A    between atoms: C_3  and  N_4
REMARK    4  A    between atoms: C_5  and  O_7
REMARK    5  A    between atoms: O_7  and  C_8
REMARK    6  A    between atoms: C_12  and  C_13
REMARK    7  A    between atoms: C_13  and  C_15
REMARK                            x       y       z     vdW  Elec       q    Type
REMARK                         _______ _______ _______ _____ _____    ______ ____
ROOT
ATOM      1  C   UNL     1       4.316   4.502  18.732  0.00  0.00    +0.000 A 
ATOM      2  C   UNL     1       3.323   3.568  18.467  0.00  0.00    +0.000 A 
ATOM      3  C   UNL     1       2.061   4.020  18.083  0.00  0.00    +0.000 A 
ATOM      4  C   UNL     1       1.810   5.395  17.961  0.00  0.00    +0.000 A 
ATOM      5  C   UNL     1       2.814   6.346  18.224  0.00  0.00    +0.000 A 
ATOM      6  C   UNL     1       4.074   5.869  18.599  0.00  0.00    +0.000 A 
ENDROOT
BRANCH   5   7
ATOM      7  C   UNL     1       2.483   7.814  18.076  0.00  0.00    +0.000 C 
ATOM      8  O   UNL     1       2.852   8.351  17.026  0.00  0.00    +0.000 OA
BRANCH   7   9
ATOM      9  C   UNL     1       1.756   8.539  19.121  0.00  0.00    +0.000 A 
ATOM     10  N   UNL     1       1.714   8.188  20.388  0.00  0.00    +0.000 NA
ATOM     11  C   UNL     1       0.897   9.025  21.112  0.00  0.00    +0.000 A 
ATOM     12  C   UNL     1       0.596   8.891  22.481  0.00  0.00    +0.000 A 
ATOM     13  C   UNL     1      -0.256   9.811  23.094  0.00  0.00    +0.000 A 
ATOM     14  C   UNL     1      -0.799  10.861  22.358  0.00  0.00    +0.000 A 
ATOM     15  C   UNL     1      -0.512  11.013  20.996  0.00  0.00    +0.000 A 
ATOM     16  C   UNL     1       0.338  10.076  20.387  0.00  0.00    +0.000 A 
ATOM     17  S   UNL     1       0.870   9.966  18.749  0.00  0.00    +0.000 S 
ENDBRANCH   7   9
ENDBRANCH   5   7
BRANCH   1  18
ATOM     18  O   UNL     1       5.622   4.046  18.976  0.00  0.00    +0.000 OA
BRANCH  18  20
ATOM     19  N   UNL     1       6.347   4.752  16.976  0.00  0.00    +0.000 N 
ATOM     20  C   UNL     1       6.645   4.709  18.308  0.00  0.00    +0.000 C 
ATOM     21  O   UNL     1       7.644   5.187  18.822  0.00  0.00    +0.000 OA
ATOM     22  H   UNL     1       5.486   4.305  16.694  0.00  0.00    +0.000 HD
BRANCH  19  23
ATOM     23  C   UNL     1       7.262   5.246  15.976  0.00  0.00    +0.000 C 
BRANCH  23  25
ATOM     24  C   UNL     1       5.458   4.277  14.484  0.00  0.00    +0.000 C 
ATOM     25  C   UNL     1       6.916   4.708  14.589  0.00  0.00    +0.000 C 
ENDBRANCH  23  25
ENDBRANCH  19  23
ENDBRANCH  18  20
ENDBRANCH   1  18
TORSDOF 6
ENDMDL
MODEL 7
REMARK VINA RESULT:      -7.3      2.758      4.290
REMARK  Name = 
REMARK  7 active torsions:
REMARK  status: ('A' for Active; 'I' for Inactive)
REMARK    1  A    between atoms: C_1  and  C_2
REMARK    2  A    between atoms: C_2  and  C_3
REMARK    3  A    between atoms: C_3  and  N_4
REMARK    4  A    between atoms: C_5  and  O_7
REMARK    5  A    between atoms: O_7  and  C_8
REMARK    6  A    between atoms: C_12  and  C_13
REMARK    7  A    between atoms: C_13  and  C_15
REMARK                            x       y       z     vdW  Elec       q    Type
REMARK                         _______ _______ _______ _____ _____    ______ ____
ROOT
ATOM      1  C   UNL     1       5.627   4.877  18.151  0.00  0.00    +0.000 A 
ATOM      2  C   UNL     1       5.135   4.090  17.118  0.00  0.00    +0.000 A 
ATOM      3  C   UNL     1       3.762   3.863  17.042  0.00  0.00    +0.000 A 
ATOM      4  C   UNL     1       2.899   4.430  17.993  0.00  0.00    +0.000 A 
ATOM      5  C   UNL     1       3.391   5.232  19.040  0.00  0.00    +0.000 A 
ATOM      6  C   UNL     1       4.770   5.453  19.090  0.00  0.00    +0.000 A 
ENDROOT
BRANCH   5   7
ATOM      7  C   UNL     1       2.411   5.813  20.033  0.00  0.00    +0.000 C 
ATOM      8  O   UNL     1       2.036   5.053  20.933  0.00  0.00    +0.000 OA
BRANCH   7   9
ATOM      9  C   UNL     1       1.951   7.199  19.927  0.00  0.00    +0.000 A 
ATOM     10  N   UNL     1       2.110   7.964  18.868  0.00  0.00    +0.000 NA
ATOM     11  C   UNL     1       1.635   9.235  19.093  0.00  0.00    +0.000 A 
ATOM     12  C   UNL     1       1.703  10.306  18.183  0.00  0.00    +0.000 A 
ATOM     13  C   UNL     1       1.186  11.552  18.543  0.00  0.00    +0.000 A 
ATOM     14  C   UNL     1       0.598  11.732  19.792  0.00  0.00    +0.000 A 
ATOM     15  C   UNL     1       0.518  10.679  20.711  0.00  0.00    +0.000 A 
ATOM     16  C   UNL     1       1.051   9.434  20.343  0.00  0.00    +0.000 A 
ATOM     17  S   UNL     1       1.133   7.959  21.236  0.00  0.00    +0.000 S 
ENDBRANCH   7   9
ENDBRANCH   5   7
BRANCH   1  18
ATOM     18  O   UNL     1       6.987   5.226  18.144  0.00  0.00    +0.000 OA
BRANCH  18  20
ATOM     19  N   UNL     1       7.771   7.325  18.190  0.00  0.00    +0.000 N 
ATOM     20  C   UNL     1       7.344   6.322  17.367  0.00  0.00    +0.000 C 
ATOM     21  O   UNL     1       7.299   6.382  16.149  0.00  0.00    +0.000 OA
ATOM     22  H   UNL     1       7.745   7.135  19.182  0.00  0.00    +0.000 HD
BRANCH  19  23
ATOM     23  C   UNL     1       8.084   8.654  17.721  0.00  0.00    +0.000 C 
BRANCH  23  25
ATOM     24  C   UNL     1       9.309  10.805  18.262  0.00  0.00    +0.000 C 
ATOM     25  C   UNL     1       8.812   9.465  18.790  0.00  0.00    +0.000 C 
ENDBRANCH  23  25
ENDBRANCH  19  23
ENDBRANCH  18  20
ENDBRANCH   1  18
TORSDOF 6
ENDMDL
MODEL 8
REMARK VINA RESULT:      -7.3      2.815      4.687
REMARK  Name = 
REMARK  7 active torsions:
REMARK  status: ('A' for Active; 'I' for Inactive)
REMARK    1  A    between atoms: C_1  and  C_2
REMARK    2  A    between atoms: C_2  and  C_3
REMARK    3  A    between atoms: C_3  and  N_4
REMARK    4  A    between atoms: C_5  and  O_7
REMARK    5  A    between atoms: O_7  and  C_8
REMARK    6  A    between atoms: C_12  and  C_13
REMARK    7  A    between atoms: C_13  and  C_15
REMARK                            x       y       z     vdW  Elec       q    Type
REMARK                         _______ _______ _______ _____ _____    ______ ____
ROOT
ATOM      1  C   UNL     1       6.240   6.177  16.742  0.00  0.00    +0.000 A 
ATOM      2  C   UNL     1       6.300   5.102  15.866  0.00  0.00    +0.000 A 
ATOM      3  C   UNL     1       5.289   4.143  15.911  0.00  0.00    +0.000 A 
ATOM      4  C   UNL     1       4.231   4.274  16.823  0.00  0.00    +0.000 A 
ATOM      5  C   UNL     1       4.163   5.365  17.710  0.00  0.00    +0.000 A 
ATOM      6  C   UNL     1       5.182   6.318  17.640  0.00  0.00    +0.000 A 
ENDROOT
BRANCH   5   7
ATOM      7  C   UNL     1       2.998   5.450  18.670  0.00  0.00    +0.000 C 
ATOM      8  O   UNL     1       2.606   4.378  19.145  0.00  0.00    +0.000 OA
BRANCH   7   9
ATOM      9  C   UNL     1       2.387   6.736  19.014  0.00  0.00    +0.000 A 
ATOM     10  N   UNL     1       2.255   7.750  18.186  0.00  0.00    +0.000 NA
ATOM     11  C   UNL     1       1.707   8.843  18.816  0.00  0.00    +0.000 A 
ATOM     12  C   UNL     1       1.485  10.101  18.225  0.00  0.00    +0.000 A 
ATOM     13  C   UNL     1       0.924  11.130  18.984  0.00  0.00    +0.000 A 
ATOM     14  C   UNL     1       0.580  10.912  20.315  0.00  0.00    +0.000 A 
ATOM     15  C   UNL     1       0.791   9.668  20.921  0.00  0.00    +0.000 A 
ATOM     16  C   UNL     1       1.365   8.642  20.152  0.00  0.00    +0.000 A 
ATOM     17  S   UNL     1       1.771   7.024  20.594  0.00  0.00    +0.000 S 
ENDBRANCH   7   9
ENDBRANCH   5   7
BRANCH   1  18
ATOM     18  O   UNL     1       7.175   7.216  16.599  0.00  0.00    +0.000 OA
BRANCH  18  20
ATOM     19  N   UNL     1       8.006   8.979  17.705  0.00  0.00    +0.000 N 
ATOM     20  C   UNL     1       7.830   7.626  17.754  0.00  0.00    +0.000 C 
ATOM     21  O   UNL     1       8.182   6.903  18.673  0.00  0.00    +0.000 OA
ATOM     22  H   UNL     1       7.670   9.446  16.874  0.00  0.00    +0.000 HD
BRANCH  19  23
ATOM     23  C   UNL     1       8.776   9.713  18.680  0.00  0.00    +0.000 C 
BRANCH  23  25
ATOM     24  C   UNL     1      10.545  11.408  18.035  0.00  0.00    +0.000 C 
ATOM     25  C   UNL     1       9.056  11.139  18.211  0.00  0.00    +0.000 C 
ENDBRANCH  23  25
ENDBRANCH  19  23
ENDBRANCH  18  20
ENDBRANCH   1  18
TORSDOF 6
ENDMDL
MODEL 9
REMARK VINA RESULT:      -7.3      2.766      4.862
REMARK  Name = 
REMARK  7 active torsions:
REMARK  status: ('A' for Active; 'I' for Inactive)
REMARK    1  A    between atoms: C_1  and  C_2
REMARK    2  A    between atoms: C_2  and  C_3
REMARK    3  A    between atoms: C_3  and  N_4
REMARK    4  A    between atoms: C_5  and  O_7
REMARK    5  A    between atoms: O_7  and  C_8
REMARK    6  A    between atoms: C_12  and  C_13
REMARK    7  A    between atoms: C_13  and  C_15
REMARK                            x       y       z     vdW  Elec       q    Type
REMARK                         _______ _______ _______ _____ _____    ______ ____
ROOT
ATOM      1  C   UNL     1       6.980   5.570  17.966  0.00  0.00    +0.000 A 
ATOM      2  C   UNL     1       7.323   4.783  16.875  0.00  0.00    +0.000 A 
ATOM      3  C   UNL     1       6.334   4.013  16.265  0.00  0.00    +0.000 A 
ATOM      4  C   UNL     1       5.017   4.044  16.748  0.00  0.00    +0.000 A 
ATOM      5  C   UNL     1       4.662   4.842  17.852  0.00  0.00    +0.000 A 
ATOM      6  C   UNL     1       5.669   5.613  18.441  0.00  0.00    +0.000 A 
ENDROOT
BRANCH   5   7
ATOM      7  C   UNL     1       3.227   4.833  18.325  0.00  0.00    +0.000 C 
ATOM      8  O   UNL     1       2.632   3.753  18.232  0.00  0.00    +0.000 OA
BRANCH   7   9
ATOM      9  C   UNL     1       2.596   6.037  18.870  0.00  0.00    +0.000 A 
ATOM     10  N   UNL     1       2.373   7.141  18.189  0.00  0.00    +0.000 NA
ATOM     11  C   UNL     1       1.831   8.120  18.988  0.00  0.00    +0.000 A 
ATOM     12  C   UNL     1       1.525   9.432  18.580  0.00  0.00    +0.000 A 
ATOM     13  C   UNL     1       0.981  10.332  19.498  0.00  0.00    +0.000 A 
ATOM     14  C   UNL     1       0.735   9.933  20.809  0.00  0.00    +0.000 A 
ATOM     15  C   UNL     1       1.031   8.632  21.235  0.00  0.00    +0.000 A 
ATOM     16  C   UNL     1       1.587   7.738  20.306  0.00  0.00    +0.000 A 
ATOM     17  S   UNL     1       2.079   6.096  20.510  0.00  0.00    +0.000 S 
ENDBRANCH   7   9
ENDBRANCH   5   7
BRANCH   1  18
ATOM     18  O   UNL     1       7.939   6.454  18.489  0.00  0.00    +0.000 OA
BRANCH  18  20
ATOM     19  N   UNL     1       8.653   8.558  18.781  0.00  0.00    +0.000 N 
ATOM     20  C   UNL     1       7.977   7.727  17.933  0.00  0.00    +0.000 C 
ATOM     21  O   UNL     1       7.500   8.055  16.858  0.00  0.00    +0.000 OA
ATOM     22  H   UNL     1       8.985   8.147  19.642  0.00  0.00    +0.000 HD
BRANCH  19  23
ATOM     23  C   UNL     1       8.757   9.983  18.577  0.00  0.00    +0.000 C 
BRANCH  23  25
ATOM     24  C   UNL     1       9.352  11.119  20.761  0.00  0.00    +0.000 C 
ATOM     25  C   UNL     1       9.869  10.588  19.430  0.00  0.00    +0.000 C 
ENDBRANCH  23  25
ENDBRANCH  19  23
ENDBRANCH  18  20
ENDBRANCH   1  18
TORSDOF 6
ENDMDL
