MODEL 1
REMARK VINA RESULT:      -6.9      0.000      0.000
REMARK  Name = 
REMARK  5 active torsions:
REMARK  status: ('A' for Active; 'I' for Inactive)
REMARK    1  A    between atoms: C_1  and  O_2
REMARK    2  A    between atoms: O_2  and  C_3
REMARK    3  A    between atoms: C_9  and  O_10
REMARK    4  A    between atoms: O_10  and  C_11
REMARK    5  A    between atoms: C_15  and  C_16
REMARK                            x       y       z     vdW  Elec       q    Type
REMARK                         _______ _______ _______ _____ _____    ______ ____
ROOT
ATOM      1  C   UNL     1       5.928   4.123  13.672  0.00  0.00    +0.000 A 
ATOM      2  C   UNL     1       6.940   4.655  12.974  0.00  0.00    +0.000 A 
ATOM      3  C   UNL     1       7.985   5.468  13.604  0.00  0.00    +0.000 A 
ATOM      4  O   UNL     1       8.910   5.917  12.934  0.00  0.00    +0.000 OA
ATOM      5  O   UNL     1       7.879   5.695  14.962  0.00  0.00    +0.000 OA
ATOM      6  C   UNL     1       6.807   5.193  15.741  0.00  0.00    +0.000 A 
ATOM      7  C   UNL     1       6.741   5.568  17.099  0.00  0.00    +0.000 A 
ATOM      8  C   UNL     1       5.585   5.132  17.764  0.00  0.00    +0.000 A 
ATOM      9  O   UNL     1       5.241   5.422  19.055  0.00  0.00    +0.000 OA
ATOM     10  C   UNL     1       4.033   4.846  19.291  0.00  0.00    +0.000 A 
ATOM     11  C   UNL     1       3.586   4.162  18.180  0.00  0.00    +0.000 A 
ATOM     12  C   UNL     1       2.312   3.426  18.006  0.00  0.00    +0.000 C 
ATOM     13  C   UNL     1       4.597   4.343  17.192  0.00  0.00    +0.000 A 
ATOM     14  C   UNL     1       4.740   3.939  15.857  0.00  0.00    +0.000 A 
ATOM     15  C   UNL     1       5.836   4.400  15.113  0.00  0.00    +0.000 A 
ENDROOT
BRANCH   1  17
ATOM     16  C   UNL     1       4.703   3.324  11.764  0.00  0.00    +0.000 C 
ATOM     17  O   UNL     1       4.904   3.354  13.171  0.00  0.00    +0.000 OA
ENDBRANCH   1  17
BRANCH   7  18
ATOM     18  O   UNL     1       7.607   6.375  17.780  0.00  0.00    +0.000 OA
ATOM     19  C   UNL     1       7.486   7.776  17.570  0.00  0.00    +0.000 C 
ENDBRANCH   7  18
TORSDOF 2
ENDMDL
MODEL 2
REMARK VINA RESULT:      -6.6      3.880      7.162
REMARK  Name = 
REMARK  5 active torsions:
REMARK  status: ('A' for Active; 'I' for Inactive)
REMARK    1  A    between atoms: C_1  and  O_2
REMARK    2  A    between atoms: O_2  and  C_3
REMARK    3  A    between atoms: C_9  and  O_10
REMARK    4  A    between atoms: O_10  and  C_11
REMARK    5  A    between atoms: C_15  and  C_16
REMARK                            x       y       z     vdW  Elec       q    Type
REMARK                         _______ _______ _______ _____ _____    ______ ____
ROOT
ATOM      1  C   UNL     1       1.798   9.131  18.757  0.00  0.00    +0.000 A 
ATOM      2  C   UNL     1       0.910   9.412  19.720  0.00  0.00    +0.000 A 
ATOM      3  C   UNL     1       0.639   8.494  20.831  0.00  0.00    +0.000 A 
ATOM      4  O   UNL     1      -0.163   8.799  21.708  0.00  0.00    +0.000 OA
ATOM      5  O   UNL     1       1.323   7.293  20.841  0.00  0.00    +0.000 OA
ATOM      6  C   UNL     1       2.239   6.926  19.826  0.00  0.00    +0.000 A 
ATOM      7  C   UNL     1       2.807   5.635  19.878  0.00  0.00    +0.000 A 
ATOM      8  C   UNL     1       3.604   5.307  18.772  0.00  0.00    +0.000 A 
ATOM      9  O   UNL     1       4.204   4.101  18.541  0.00  0.00    +0.000 OA
ATOM     10  C   UNL     1       4.841   4.188  17.344  0.00  0.00    +0.000 A 
ATOM     11  C   UNL     1       4.687   5.443  16.793  0.00  0.00    +0.000 A 
ATOM     12  C   UNL     1       5.193   5.943  15.493  0.00  0.00    +0.000 C 
ATOM     13  C   UNL     1       3.890   6.171  17.723  0.00  0.00    +0.000 A 
ATOM     14  C   UNL     1       3.357   7.467  17.748  0.00  0.00    +0.000 A 
ATOM     15  C   UNL     1       2.494   7.836  18.789  0.00  0.00    +0.000 A 
ENDROOT
BRANCH   1  17
ATOM     16  C   UNL     1       2.266  11.322  17.886  0.00  0.00    +0.000 C 
ATOM     17  O   UNL     1       2.114   9.924  17.679  0.00  0.00    +0.000 OA
ENDBRANCH   1  17
BRANCH   7  18
ATOM     18  O   UNL     1       2.579   4.668  20.815  0.00  0.00    +0.000 OA
ATOM     19  C   UNL     1       1.370   3.929  20.701  0.00  0.00    +0.000 C 
ENDBRANCH   7  18
TORSDOF 2
ENDMDL
MODEL 3
REMARK VINA RESULT:      -6.4      2.320      4.510
REMARK  Name = 
REMARK  5 active torsions:
REMARK  status: ('A' for Active; 'I' for Inactive)
REMARK    1  A    between atoms: C_1  and  O_2
REMARK    2  A    between atoms: O_2  and  C_3
REMARK    3  A    between atoms: C_9  and  O_10
REMARK    4  A    between atoms: O_10  and  C_11
REMARK    5  A    between atoms: C_15  and  C_16
REMARK                            x       y       z     vdW  Elec       q    Type
REMARK                         _______ _______ _______ _____ _____    ______ ____
ROOT
ATOM      1  C   UNL     1       5.617   6.304  16.756  0.00  0.00    +0.000 A 
ATOM      2  C   UNL     1       6.340   5.584  15.888  0.00  0.00    +0.000 A 
ATOM      3  C   UNL     1       5.993   4.205  15.531  0.00  0.00    +0.000 A 
ATOM      4  O   UNL     1       6.667   3.587  14.712  0.00  0.00    +0.000 OA
ATOM      5  O   UNL     1       4.889   3.649  16.148  0.00  0.00    +0.000 OA
ATOM      6  C   UNL     1       4.115   4.349  17.105  0.00  0.00    +0.000 A 
ATOM      7  C   UNL     1       3.069   3.655  17.750  0.00  0.00    +0.000 A 
ATOM      8  C   UNL     1       2.435   4.380  18.769  0.00  0.00    +0.000 A 
ATOM      9  O   UNL     1       1.449   3.914  19.594  0.00  0.00    +0.000 OA
ATOM     10  C   UNL     1       1.144   4.913  20.464  0.00  0.00    +0.000 A 
ATOM     11  C   UNL     1       1.901   6.037  20.210  0.00  0.00    +0.000 A 
ATOM     12  C   UNL     1       1.903   7.327  20.940  0.00  0.00    +0.000 C 
ATOM     13  C   UNL     1       2.733   5.693  19.106  0.00  0.00    +0.000 A 
ATOM     14  C   UNL     1       3.735   6.364  18.392  0.00  0.00    +0.000 A 
ATOM     15  C   UNL     1       4.459   5.675  17.408  0.00  0.00    +0.000 A 
ENDROOT
BRANCH   1  17
ATOM     16  C   UNL     1       7.199   7.960  17.485  0.00  0.00    +0.000 C 
ATOM     17  O   UNL     1       5.866   7.596  17.154  0.00  0.00    +0.000 OA
ENDBRANCH   1  17
BRANCH   7  18
ATOM     18  O   UNL     1       2.697   2.355  17.559  0.00  0.00    +0.000 OA
ATOM     19  C   UNL     1       3.399   1.366  18.301  0.00  0.00    +0.000 C 
ENDBRANCH   7  18
TORSDOF 2
ENDMDL
MODEL 4
REMARK VINA RESULT:      -6.3      3.666      6.525
REMARK  Name = 
REMARK  5 active torsions:
REMARK  status: ('A' for Active; 'I' for Inactive)
REMARK    1  A    between atoms: C_1  and  O_2
REMARK    2  A    between atoms: O_2  and  C_3
REMARK    3  A    between atoms: C_9  and  O_10
REMARK    4  A    between atoms: O_10  and  C_11
REMARK    5  A    between atoms: C_15  and  C_16
REMARK                            x       y       z     vdW  Elec       q    Type
REMARK                         _______ _______ _______ _____ _____    ______ ____
ROOT
ATOM      1  C   UNL     1       1.354   8.197  20.110  0.00  0.00    +0.000 A 
ATOM      2  C   UNL     1       1.517   9.329  19.413  0.00  0.00    +0.000 A 
ATOM      3  C   UNL     1       2.266   9.375  18.153  0.00  0.00    +0.000 A 
ATOM      4  O   UNL     1       2.370  10.427  17.531  0.00  0.00    +0.000 OA
ATOM      5  O   UNL     1       2.833   8.195  17.711  0.00  0.00    +0.000 OA
ATOM      6  C   UNL     1       2.730   6.979  18.430  0.00  0.00    +0.000 A 
ATOM      7  C   UNL     1       3.431   5.857  17.941  0.00  0.00    +0.000 A 
ATOM      8  C   UNL     1       3.378   4.732  18.777  0.00  0.00    +0.000 A 
ATOM      9  O   UNL     1       4.030   3.547  18.575  0.00  0.00    +0.000 OA
ATOM     10  C   UNL     1       3.747   2.744  19.634  0.00  0.00    +0.000 A 
ATOM     11  C   UNL     1       2.900   3.375  20.520  0.00  0.00    +0.000 A 
ATOM     12  C   UNL     1       2.375   2.866  21.810  0.00  0.00    +0.000 C 
ATOM     13  C   UNL     1       2.655   4.662  19.960  0.00  0.00    +0.000 A 
ATOM     14  C   UNL     1       1.919   5.782  20.371  0.00  0.00    +0.000 A 
ATOM     15  C   UNL     1       1.987   6.964  19.620  0.00  0.00    +0.000 A 
ENDROOT
BRANCH   1  17
ATOM     16  C   UNL     1       0.783   9.092  22.268  0.00  0.00    +0.000 C 
ATOM     17  O   UNL     1       0.675   8.058  21.298  0.00  0.00    +0.000 OA
ENDBRANCH   1  17
BRANCH   7  18
ATOM     18  O   UNL     1       4.218   5.792  16.827  0.00  0.00    +0.000 OA
ATOM     19  C   UNL     1       5.557   6.255  16.953  0.00  0.00    +0.000 C 
ENDBRANCH   7  18
TORSDOF 2
ENDMDL
MODEL 5
REMARK VINA RESULT:      -6.0      3.178      5.988
REMARK  Name = 
REMARK  5 active torsions:
REMARK  status: ('A' for Active; 'I' for Inactive)
REMARK    1  A    between atoms: C_1  and  O_2
REMARK    2  A    between atoms: O_2  and  C_3
REMARK    3  A    between atoms: C_9  and  O_10
REMARK    4  A    between atoms: O_10  and  C_11
REMARK    5  A    between atoms: C_15  and  C_16
REMARK                            x       y       z     vdW  Elec       q    Type
REMARK                         _______ _______ _______ _____ _____    ______ ____
ROOT
ATOM      1  C   UNL     1       2.174   3.318  19.939  0.00  0.00    +0.000 A 
ATOM      2  C   UNL     1       2.609   2.160  19.424  0.00  0.00    +0.000 A 
ATOM      3  C   UNL     1       3.525   2.103  18.280  0.00  0.00    +0.000 A 
ATOM      4  O   UNL     1       3.921   1.023  17.855  0.00  0.00    +0.000 OA
ATOM      5  O   UNL     1       3.913   3.305  17.721  0.00  0.00    +0.000 OA
ATOM      6  C   UNL     1       3.450   4.556  18.196  0.00  0.00    +0.000 A 
ATOM      7  C   UNL     1       3.829   5.717  17.489  0.00  0.00    +0.000 A 
ATOM      8  C   UNL     1       3.228   6.897  17.950  0.00  0.00    +0.000 A 
ATOM      9  O   UNL     1       3.364   8.140  17.396  0.00  0.00    +0.000 OA
ATOM     10  C   UNL     1       2.587   8.991  18.114  0.00  0.00    +0.000 A 
ATOM     11  C   UNL     1       1.956   8.331  19.148  0.00  0.00    +0.000 A 
ATOM     12  C   UNL     1       1.003   8.880  20.141  0.00  0.00    +0.000 C 
ATOM     13  C   UNL     1       2.378   6.974  19.044  0.00  0.00    +0.000 A 
ATOM     14  C   UNL     1       2.083   5.803  19.757  0.00  0.00    +0.000 A 
ATOM     15  C   UNL     1       2.593   4.577  19.306  0.00  0.00    +0.000 A 
ENDROOT
BRANCH   1  17
ATOM     16  C   UNL     1       1.387   2.535  22.071  0.00  0.00    +0.000 C 
ATOM     17  O   UNL     1       1.316   3.469  21.002  0.00  0.00    +0.000 OA
ENDBRANCH   1  17
BRANCH   7  18
ATOM     18  O   UNL     1       4.612   5.788  16.372  0.00  0.00    +0.000 OA
ATOM     19  C   UNL     1       6.015   5.904  16.573  0.00  0.00    +0.000 C 
ENDBRANCH   7  18
TORSDOF 2
ENDMDL
MODEL 6
REMARK VINA RESULT:      -6.0      1.536      5.042
REMARK  Name = 
REMARK  5 active torsions:
REMARK  status: ('A' for Active; 'I' for Inactive)
REMARK    1  A    between atoms: C_1  and  O_2
REMARK    2  A    between atoms: O_2  and  C_3
REMARK    3  A    between atoms: C_9  and  O_10
REMARK    4  A    between atoms: O_10  and  C_11
REMARK    5  A    between atoms: C_15  and  C_16
REMARK                            x       y       z     vdW  Elec       q    Type
REMARK                         _______ _______ _______ _____ _____    ______ ____
ROOT
ATOM      1  C   UNL     1       2.822   4.048  17.755  0.00  0.00    +0.000 A 
ATOM      2  C   UNL     1       2.505   4.475  18.985  0.00  0.00    +0.000 A 
ATOM      3  C   UNL     1       3.265   5.525  19.671  0.00  0.00    +0.000 A 
ATOM      4  O   UNL     1       2.927   5.906  20.787  0.00  0.00    +0.000 OA
ATOM      5  O   UNL     1       4.355   6.053  19.008  0.00  0.00    +0.000 OA
ATOM      6  C   UNL     1       4.761   5.609  17.726  0.00  0.00    +0.000 A 
ATOM      7  C   UNL     1       5.948   6.145  17.183  0.00  0.00    +0.000 A 
ATOM      8  C   UNL     1       6.344   5.561  15.970  0.00  0.00    +0.000 A 
ATOM      9  O   UNL     1       7.488   5.842  15.277  0.00  0.00    +0.000 OA
ATOM     10  C   UNL     1       7.511   5.032  14.187  0.00  0.00    +0.000 A 
ATOM     11  C   UNL     1       6.387   4.235  14.140  0.00  0.00    +0.000 A 
ATOM     12  C   UNL     1       6.038   3.197  13.142  0.00  0.00    +0.000 C 
ATOM     13  C   UNL     1       5.627   4.584  15.294  0.00  0.00    +0.000 A 
ATOM     14  C   UNL     1       4.418   4.131  15.840  0.00  0.00    +0.000 A 
ATOM     15  C   UNL     1       4.000   4.620  17.086  0.00  0.00    +0.000 A 
ENDROOT
BRANCH   1  17
ATOM     16  C   UNL     1       1.969   1.803  17.645  0.00  0.00    +0.000 C 
ATOM     17  O   UNL     1       2.174   3.071  17.036  0.00  0.00    +0.000 OA
ENDBRANCH   1  17
BRANCH   7  18
ATOM     18  O   UNL     1       6.778   7.067  17.752  0.00  0.00    +0.000 OA
ATOM     19  C   UNL     1       7.834   6.572  18.566  0.00  0.00    +0.000 C 
ENDBRANCH   7  18
TORSDOF 2
ENDMDL
MODEL 7
REMARK VINA RESULT:      -6.0      3.219      6.613
REMARK  Name = 
REMARK  5 active torsions:
REMARK  status: ('A' for Active; 'I' for Inactive)
REMARK    1  A    between atoms: C_1  and  O_2
REMARK    2  A    between atoms: O_2  and  C_3
REMARK    3  A    between atoms: C_9  and  O_10
REMARK    4  A    between atoms: O_10  and  C_11
REMARK    5  A    between atoms: C_15  and  C_16
REMARK                            x       y       z     vdW  Elec       q    Type
REMARK                         _______ _______ _______ _____ _____    ______ ____
ROOT
ATOM      1  C   UNL     1       4.113   2.309  20.419  0.00  0.00    +0.000 A 
ATOM      2  C   UNL     1       3.148   2.170  21.337  0.00  0.00    +0.000 A 
ATOM      3  C   UNL     1       2.008   3.089  21.425  0.00  0.00    +0.000 A 
ATOM      4  O   UNL     1       1.131   2.912  22.264  0.00  0.00    +0.000 OA
ATOM      5  O   UNL     1       1.973   4.140  20.529  0.00  0.00    +0.000 OA
ATOM      6  C   UNL     1       2.988   4.360  19.567  0.00  0.00    +0.000 A 
ATOM      7  C   UNL     1       2.906   5.520  18.768  0.00  0.00    +0.000 A 
ATOM      8  C   UNL     1       4.013   5.727  17.931  0.00  0.00    +0.000 A 
ATOM      9  O   UNL     1       4.217   6.807  17.118  0.00  0.00    +0.000 OA
ATOM     10  C   UNL     1       5.424   6.638  16.516  0.00  0.00    +0.000 A 
ATOM     11  C   UNL     1       6.008   5.451  16.905  0.00  0.00    +0.000 A 
ATOM     12  C   UNL     1       7.328   4.904  16.510  0.00  0.00    +0.000 C 
ATOM     13  C   UNL     1       5.089   4.857  17.818  0.00  0.00    +0.000 A 
ATOM     14  C   UNL     1       5.094   3.683  18.583  0.00  0.00    +0.000 A 
ATOM     15  C   UNL     1       4.053   3.450  19.494  0.00  0.00    +0.000 A 
ENDROOT
BRANCH   1  17
ATOM     16  C   UNL     1       5.604   0.666  21.345  0.00  0.00    +0.000 C 
ATOM     17  O   UNL     1       5.217   1.504  20.264  0.00  0.00    +0.000 OA
ENDBRANCH   1  17
BRANCH   7  18
ATOM     18  O   UNL     1       1.940   6.485  18.804  0.00  0.00    +0.000 OA
ATOM     19  C   UNL     1       2.109   7.533  19.750  0.00  0.00    +0.000 C 
ENDBRANCH   7  18
TORSDOF 2
ENDMDL
MODEL 8
REMARK VINA RESULT:      -5.9      1.302      4.859
REMARK  Name = 
REMARK  5 active torsions:
REMARK  status: ('A' for Active; 'I' for Inactive)
REMARK    1  A    between atoms: C_1  and  O_2
REMARK    2  A    between atoms: O_2  and  C_3
REMARK    3  A    between atoms: C_9  and  O_10
REMARK    4  A    between atoms: O_10  and  C_11
REMARK    5  A    between atoms: C_15  and  C_16
REMARK                            x       y       z     vdW  Elec       q    Type
REMARK                         _______ _______ _______ _____ _____    ______ ____
ROOT
ATOM      1  C   UNL     1       3.757   3.830  17.359  0.00  0.00    +0.000 A 
ATOM      2  C   UNL     1       3.743   4.208  18.644  0.00  0.00    +0.000 A 
ATOM      3  C   UNL     1       4.698   5.179  19.188  0.00  0.00    +0.000 A 
ATOM      4  O   UNL     1       4.635   5.518  20.365  0.00  0.00    +0.000 OA
ATOM      5  O   UNL     1       5.650   5.683  18.323  0.00  0.00    +0.000 OA
ATOM      6  C   UNL     1       5.738   5.286  16.967  0.00  0.00    +0.000 A 
ATOM      7  C   UNL     1       6.810   5.786  16.197  0.00  0.00    +0.000 A 
ATOM      8  C   UNL     1       6.896   5.247  14.905  0.00  0.00    +0.000 A 
ATOM      9  O   UNL     1       7.878   5.504  13.989  0.00  0.00    +0.000 OA
ATOM     10  C   UNL     1       7.613   4.752  12.889  0.00  0.00    +0.000 A 
ATOM     11  C   UNL     1       6.457   4.018  13.059  0.00  0.00    +0.000 A 
ATOM     12  C   UNL     1       5.835   3.054  12.121  0.00  0.00    +0.000 C 
ATOM     13  C   UNL     1       5.989   4.346  14.365  0.00  0.00    +0.000 A 
ATOM     14  C   UNL     1       4.902   3.929  15.145  0.00  0.00    +0.000 A 
ATOM     15  C   UNL     1       4.796   4.373  16.471  0.00  0.00    +0.000 A 
ENDROOT
BRANCH   1  17
ATOM     16  C   UNL     1       2.153   2.054  17.591  0.00  0.00    +0.000 C 
ATOM     17  O   UNL     1       2.909   2.927  16.762  0.00  0.00    +0.000 OA
ENDBRANCH   1  17
BRANCH   7  18
ATOM     18  O   UNL     1       7.800   6.633  16.607  0.00  0.00    +0.000 OA
ATOM     19  C   UNL     1       7.401   7.803  17.309  0.00  0.00    +0.000 C 
ENDBRANCH   7  18
TORSDOF 2
ENDMDL
MODEL 9
REMARK VINA RESULT:      -5.8      2.826      6.818
REMARK  Name = 
REMARK  5 active torsions:
REMARK  status: ('A' for Active; 'I' for Inactive)
REMARK    1  A    between atoms: C_1  and  O_2
REMARK    2  A    between atoms: O_2  and  C_3
REMARK    3  A    between atoms: C_9  and  O_10
REMARK    4  A    between atoms: O_10  and  C_11
REMARK    5  A    between atoms: C_15  and  C_16
REMARK                            x       y       z     vdW  Elec       q    Type
REMARK                         _______ _______ _______ _____ _____    ______ ____
ROOT
ATOM      1  C   UNL     1       2.245   5.793  19.998  0.00  0.00    +0.000 A 
ATOM      2  C   UNL     1       1.525   5.052  20.852  0.00  0.00    +0.000 A 
ATOM      3  C   UNL     1       1.574   3.587  20.854  0.00  0.00    +0.000 A 
ATOM      4  O   UNL     1       0.919   2.945  21.669  0.00  0.00    +0.000 OA
ATOM      5  O   UNL     1       2.383   2.979  19.913  0.00  0.00    +0.000 OA
ATOM      6  C   UNL     1       3.131   3.711  18.959  0.00  0.00    +0.000 A 
ATOM      7  C   UNL     1       3.845   2.990  17.979  0.00  0.00    +0.000 A 
ATOM      8  C   UNL     1       4.455   3.789  17.001  0.00  0.00    +0.000 A 
ATOM      9  O   UNL     1       5.138   3.340  15.905  0.00  0.00    +0.000 OA
ATOM     10  C   UNL     1       5.527   4.432  15.196  0.00  0.00    +0.000 A 
ATOM     11  C   UNL     1       5.129   5.595  15.821  0.00  0.00    +0.000 A 
ATOM     12  C   UNL     1       5.323   6.993  15.369  0.00  0.00    +0.000 C 
ATOM     13  C   UNL     1       4.439   5.177  16.995  0.00  0.00    +0.000 A 
ATOM     14  C   UNL     1       3.773   5.851  18.029  0.00  0.00    +0.000 A 
ATOM     15  C   UNL     1       3.081   5.112  18.998  0.00  0.00    +0.000 A 
ENDROOT
BRANCH   1  17
ATOM     16  C   UNL     1       1.448   7.908  20.818  0.00  0.00    +0.000 C 
ATOM     17  O   UNL     1       2.261   7.166  19.919  0.00  0.00    +0.000 OA
ENDBRANCH   1  17
BRANCH   7  18
ATOM     18  O   UNL     1       3.909   1.634  17.831  0.00  0.00    +0.000 OA
ATOM     19  C   UNL     1       4.339   0.880  18.958  0.00  0.00    +0.000 C 
ENDBRANCH   7  18
TORSDOF 2
ENDMDL
