MODEL 1
REMARK VINA RESULT:      -8.4      0.000      0.000
REMARK  Name = 
REMARK  4 active torsions:
REMARK  status: ('A' for Active; 'I' for Inactive)
REMARK    1  A    between atoms: C_2  and  C_3
REMARK    2  A    between atoms: C_3  and  C_4
REMARK    3  A    between atoms: C_7  and  C_8
REMARK    4  A    between atoms: N_14  and  C_15
REMARK                            x       y       z     vdW  Elec       q    Type
REMARK                         _______ _______ _______ _____ _____    ______ ____
ROOT
ATOM      1  O   UNL     1       2.123   5.534  17.826  0.00  0.00    +0.000 OA
ATOM      2  C   UNL     1       2.883   6.492  17.915  0.00  0.00    +0.000 C 
ATOM      3  N   UNL     1       4.246   6.363  18.038  0.00  0.00    +0.000 N 
ATOM      4  H   UNL     1       4.793   7.194  18.235  0.00  0.00    +0.000 HD
ENDROOT
BRANCH   3   5
ATOM      5  C   UNL     1       4.923   5.074  18.087  0.00  0.00    +0.000 C 
ATOM      6  C   UNL     1       5.945   4.989  19.218  0.00  0.00    +0.000 C 
ATOM      7  C   UNL     1       7.135   5.863  18.865  0.00  0.00    +0.000 C 
ATOM      8  O   UNL     1       7.794   5.434  17.673  0.00  0.00    +0.000 OA
ATOM      9  C   UNL     1       6.981   5.069  16.636  0.00  0.00    +0.000 A 
ATOM     10  N   UNL     1       7.636   4.917  15.467  0.00  0.00    +0.000 NA
ATOM     11  C   UNL     1       6.912   4.535  14.394  0.00  0.00    +0.000 A 
ATOM     12  C   UNL     1       5.551   4.288  14.431  0.00  0.00    +0.000 A 
ATOM     13  C   UNL     1       4.893   4.450  15.643  0.00  0.00    +0.000 A 
ATOM     14  C   UNL     1       5.614   4.846  16.775  0.00  0.00    +0.000 A 
ENDBRANCH   3   5
BRANCH   2  15
ATOM     15  C   UNL     1       2.402   7.933  17.835  0.00  0.00    +0.000 C 
BRANCH  15  16
ATOM     16  C   UNL     1       1.771   8.440  19.108  0.00  0.00    +0.000 A 
ATOM     17  C   UNL     1       1.089   9.667  19.133  0.00  0.00    +0.000 A 
ATOM     18  C   UNL     1       0.490  10.125  20.310  0.00  0.00    +0.000 A 
ATOM     19  C   UNL     1       0.556   9.366  21.487  0.00  0.00    +0.000 A 
ATOM     20  C   UNL     1       1.226   8.134  21.458  0.00  0.00    +0.000 A 
ATOM     21  C   UNL     1       1.824   7.676  20.281  0.00  0.00    +0.000 A 
BRANCH  19  22
ATOM     22  C   UNL     1      -0.079   9.848  22.768  0.00  0.00    +0.000 C 
ATOM     23  F   UNL     1      -0.271  11.197  22.809  0.00  0.00    +0.000 F 
ATOM     24  F   UNL     1      -1.303   9.292  22.986  0.00  0.00    +0.000 F 
ATOM     25  F   UNL     1       0.670   9.546  23.866  0.00  0.00    +0.000 F 
ENDBRANCH  19  22
ENDBRANCH  15  16
ENDBRANCH   2  15
TORSDOF 4
ENDMDL
MODEL 2
REMARK VINA RESULT:      -7.7      1.783      2.582
REMARK  Name = 
REMARK  4 active torsions:
REMARK  status: ('A' for Active; 'I' for Inactive)
REMARK    1  A    between atoms: C_2  and  C_3
REMARK    2  A    between atoms: C_3  and  C_4
REMARK    3  A    between atoms: C_7  and  C_8
REMARK    4  A    between atoms: N_14  and  C_15
REMARK                            x       y       z     vdW  Elec       q    Type
REMARK                         _______ _______ _______ _____ _____    ______ ____
ROOT
ATOM      1  O   UNL     1       4.575   3.654  18.692  0.00  0.00    +0.000 OA
ATOM      2  C   UNL     1       4.047   4.096  17.677  0.00  0.00    +0.000 C 
ATOM      3  N   UNL     1       4.691   4.174  16.465  0.00  0.00    +0.000 N 
ATOM      4  H   UNL     1       4.233   4.669  15.708  0.00  0.00    +0.000 HD
ENDROOT
BRANCH   3   5
ATOM      5  C   UNL     1       6.070   3.748  16.267  0.00  0.00    +0.000 C 
ATOM      6  C   UNL     1       7.038   4.424  17.235  0.00  0.00    +0.000 C 
ATOM      7  C   UNL     1       7.186   5.882  16.836  0.00  0.00    +0.000 C 
ATOM      8  O   UNL     1       7.729   6.038  15.525  0.00  0.00    +0.000 OA
ATOM      9  C   UNL     1       7.237   5.194  14.568  0.00  0.00    +0.000 A 
ATOM     10  N   UNL     1       7.586   5.541  13.312  0.00  0.00    +0.000 NA
ATOM     11  C   UNL     1       7.162   4.748  12.307  0.00  0.00    +0.000 A 
ATOM     12  C   UNL     1       6.401   3.609  12.493  0.00  0.00    +0.000 A 
ATOM     13  C   UNL     1       6.049   3.265  13.792  0.00  0.00    +0.000 A 
ATOM     14  C   UNL     1       6.473   4.067  14.858  0.00  0.00    +0.000 A 
ENDBRANCH   3   5
BRANCH   2  15
ATOM     15  C   UNL     1       2.595   4.550  17.637  0.00  0.00    +0.000 C 
BRANCH  15  16
ATOM     16  C   UNL     1       2.271   5.652  18.617  0.00  0.00    +0.000 A 
ATOM     17  C   UNL     1       2.402   7.001  18.249  0.00  0.00    +0.000 A 
ATOM     18  C   UNL     1       2.084   8.018  19.154  0.00  0.00    +0.000 A 
ATOM     19  C   UNL     1       1.625   7.711  20.442  0.00  0.00    +0.000 A 
ATOM     20  C   UNL     1       1.482   6.364  20.803  0.00  0.00    +0.000 A 
ATOM     21  C   UNL     1       1.798   5.347  19.899  0.00  0.00    +0.000 A 
BRANCH  19  22
ATOM     22  C   UNL     1       1.284   8.797  21.433  0.00  0.00    +0.000 C 
ATOM     23  F   UNL     1       2.172   8.898  22.461  0.00  0.00    +0.000 F 
ATOM     24  F   UNL     1       1.238  10.032  20.859  0.00  0.00    +0.000 F 
ATOM     25  F   UNL     1       0.065   8.609  22.012  0.00  0.00    +0.000 F 
ENDBRANCH  19  22
ENDBRANCH  15  16
ENDBRANCH   2  15
TORSDOF 4
ENDMDL
MODEL 3
REMARK VINA RESULT:      -7.7      0.601      1.070
REMARK  Name = 
REMARK  4 active torsions:
REMARK  status: ('A' for Active; 'I' for Inactive)
REMARK    1  A    between atoms: C_2  and  C_3
REMARK    2  A    between atoms: C_3  and  C_4
REMARK    3  A    between atoms: C_7  and  C_8
REMARK    4  A    between atoms: N_14  and  C_15
REMARK                            x       y       z     vdW  Elec       q    Type
REMARK                         _______ _______ _______ _____ _____    ______ ____
ROOT
ATOM      1  O   UNL     1       2.144   5.877  18.256  0.00  0.00    +0.000 OA
ATOM      2  C   UNL     1       2.964   6.759  18.024  0.00  0.00    +0.000 C 
ATOM      3  N   UNL     1       4.311   6.521  17.896  0.00  0.00    +0.000 N 
ATOM      4  H   UNL     1       4.937   7.316  17.832  0.00  0.00    +0.000 HD
ENDROOT
BRANCH   3   5
ATOM      5  C   UNL     1       4.903   5.196  18.032  0.00  0.00    +0.000 C 
ATOM      6  C   UNL     1       5.880   5.107  19.201  0.00  0.00    +0.000 C 
ATOM      7  C   UNL     1       7.135   5.886  18.846  0.00  0.00    +0.000 C 
ATOM      8  O   UNL     1       7.803   5.355  17.701  0.00  0.00    +0.000 OA
ATOM      9  C   UNL     1       7.001   4.987  16.656  0.00  0.00    +0.000 A 
ATOM     10  N   UNL     1       7.681   4.734  15.520  0.00  0.00    +0.000 NA
ATOM     11  C   UNL     1       6.969   4.342  14.443  0.00  0.00    +0.000 A 
ATOM     12  C   UNL     1       5.595   4.183  14.445  0.00  0.00    +0.000 A 
ATOM     13  C   UNL     1       4.910   4.448  15.624  0.00  0.00    +0.000 A 
ATOM     14  C   UNL     1       5.619   4.858  16.759  0.00  0.00    +0.000 A 
ENDBRANCH   3   5
BRANCH   2  15
ATOM     15  C   UNL     1       2.566   8.209  17.792  0.00  0.00    +0.000 C 
BRANCH  15  16
ATOM     16  C   UNL     1       1.737   8.803  18.904  0.00  0.00    +0.000 A 
ATOM     17  C   UNL     1       0.899   9.904  18.666  0.00  0.00    +0.000 A 
ATOM     18  C   UNL     1       0.120  10.441  19.695  0.00  0.00    +0.000 A 
ATOM     19  C   UNL     1       0.157   9.887  20.982  0.00  0.00    +0.000 A 
ATOM     20  C   UNL     1       0.984   8.779  21.215  0.00  0.00    +0.000 A 
ATOM     21  C   UNL     1       1.763   8.242  20.187  0.00  0.00    +0.000 A 
BRANCH  19  22
ATOM     22  C   UNL     1      -0.673  10.458  22.106  0.00  0.00    +0.000 C 
ATOM     23  F   UNL     1      -0.970   9.553  23.080  0.00  0.00    +0.000 F 
ATOM     24  F   UNL     1      -0.054  11.494  22.738  0.00  0.00    +0.000 F 
ATOM     25  F   UNL     1      -1.869  10.946  21.674  0.00  0.00    +0.000 F 
ENDBRANCH  19  22
ENDBRANCH  15  16
ENDBRANCH   2  15
TORSDOF 4
ENDMDL
MODEL 4
REMARK VINA RESULT:      -7.7      2.373      3.177
REMARK  Name = 
REMARK  4 active torsions:
REMARK  status: ('A' for Active; 'I' for Inactive)
REMARK    1  A    between atoms: C_2  and  C_3
REMARK    2  A    between atoms: C_3  and  C_4
REMARK    3  A    between atoms: C_7  and  C_8
REMARK    4  A    between atoms: N_14  and  C_15
REMARK                            x       y       z     vdW  Elec       q    Type
REMARK                         _______ _______ _______ _____ _____    ______ ____
ROOT
ATOM      1  O   UNL     1       4.878   2.635  19.662  0.00  0.00    +0.000 OA
ATOM      2  C   UNL     1       4.447   3.771  19.494  0.00  0.00    +0.000 C 
ATOM      3  N   UNL     1       5.154   4.758  18.850  0.00  0.00    +0.000 N 
ATOM      4  H   UNL     1       4.785   5.702  18.865  0.00  0.00    +0.000 HD
ENDROOT
BRANCH   3   5
ATOM      5  C   UNL     1       6.492   4.556  18.310  0.00  0.00    +0.000 C 
ATOM      6  C   UNL     1       7.480   5.622  18.776  0.00  0.00    +0.000 C 
ATOM      7  C   UNL     1       7.146   6.931  18.084  0.00  0.00    +0.000 C 
ATOM      8  O   UNL     1       7.263   6.845  16.663  0.00  0.00    +0.000 OA
ATOM      9  C   UNL     1       6.763   5.709  16.088  0.00  0.00    +0.000 A 
ATOM     10  N   UNL     1       6.667   5.784  14.745  0.00  0.00    +0.000 NA
ATOM     11  C   UNL     1       6.204   4.697  14.094  0.00  0.00    +0.000 A 
ATOM     12  C   UNL     1       5.831   3.522  14.723  0.00  0.00    +0.000 A 
ATOM     13  C   UNL     1       5.935   3.463  16.106  0.00  0.00    +0.000 A 
ATOM     14  C   UNL     1       6.412   4.574  16.812  0.00  0.00    +0.000 A 
ENDBRANCH   3   5
BRANCH   2  15
ATOM     15  C   UNL     1       3.051   4.192  19.930  0.00  0.00    +0.000 C 
BRANCH  15  16
ATOM     16  C   UNL     1       2.679   5.597  19.520  0.00  0.00    +0.000 A 
ATOM     17  C   UNL     1       2.744   5.992  18.175  0.00  0.00    +0.000 A 
ATOM     18  C   UNL     1       2.383   7.289  17.796  0.00  0.00    +0.000 A 
ATOM     19  C   UNL     1       1.945   8.216  18.752  0.00  0.00    +0.000 A 
ATOM     20  C   UNL     1       1.867   7.815  20.094  0.00  0.00    +0.000 A 
ATOM     21  C   UNL     1       2.228   6.519  20.472  0.00  0.00    +0.000 A 
BRANCH  19  22
ATOM     22  C   UNL     1       1.557   9.621  18.362  0.00  0.00    +0.000 C 
ATOM     23  F   UNL     1       2.568  10.326  17.782  0.00  0.00    +0.000 F 
ATOM     24  F   UNL     1       0.526   9.650  17.472  0.00  0.00    +0.000 F 
ATOM     25  F   UNL     1       1.150  10.364  19.430  0.00  0.00    +0.000 F 
ENDBRANCH  19  22
ENDBRANCH  15  16
ENDBRANCH   2  15
TORSDOF 4
ENDMDL
MODEL 5
REMARK VINA RESULT:      -7.6      4.443      6.984
REMARK  Name = 
REMARK  4 active torsions:
REMARK  status: ('A' for Active; 'I' for Inactive)
REMARK    1  A    between atoms: C_2  and  C_3
REMARK    2  A    between atoms: C_3  and  C_4
REMARK    3  A    between atoms: C_7  and  C_8
REMARK    4  A    between atoms: N_14  and  C_15
REMARK                            x       y       z     vdW  Elec       q    Type
REMARK                         _______ _______ _______ _____ _____    ______ ____
ROOT
ATOM      1  O   UNL     1       4.690   4.470  15.976  0.00  0.00    +0.000 OA
ATOM      2  C   UNL     1       5.119   4.884  17.047  0.00  0.00    +0.000 C 
ATOM      3  N   UNL     1       4.312   5.381  18.042  0.00  0.00    +0.000 N 
ATOM      4  H   UNL     1       4.750   5.821  18.843  0.00  0.00    +0.000 HD
ENDROOT
BRANCH   3   5
ATOM      5  C   UNL     1       2.863   5.476  17.918  0.00  0.00    +0.000 C 
ATOM      6  C   UNL     1       2.331   6.857  18.292  0.00  0.00    +0.000 C 
ATOM      7  C   UNL     1       2.448   7.033  19.795  0.00  0.00    +0.000 C 
ATOM      8  O   UNL     1       1.673   6.077  20.520  0.00  0.00    +0.000 OA
ATOM      9  C   UNL     1       1.719   4.792  20.054  0.00  0.00    +0.000 A 
ATOM     10  N   UNL     1       1.185   3.893  20.906  0.00  0.00    +0.000 NA
ATOM     11  C   UNL     1       1.168   2.601  20.515  0.00  0.00    +0.000 A 
ATOM     12  C   UNL     1       1.657   2.157  19.300  0.00  0.00    +0.000 A 
ATOM     13  C   UNL     1       2.204   3.097  18.435  0.00  0.00    +0.000 A 
ATOM     14  C   UNL     1       2.238   4.445  18.811  0.00  0.00    +0.000 A 
ENDBRANCH   3   5
BRANCH   2  15
ATOM     15  C   UNL     1       6.595   4.833  17.416  0.00  0.00    +0.000 C 
BRANCH  15  16
ATOM     16  C   UNL     1       7.193   6.181  17.738  0.00  0.00    +0.000 A 
ATOM     17  C   UNL     1       8.047   6.341  18.841  0.00  0.00    +0.000 A 
ATOM     18  C   UNL     1       8.612   7.588  19.127  0.00  0.00    +0.000 A 
ATOM     19  C   UNL     1       8.341   8.698  18.315  0.00  0.00    +0.000 A 
ATOM     20  C   UNL     1       7.498   8.533  17.207  0.00  0.00    +0.000 A 
ATOM     21  C   UNL     1       6.934   7.287  16.921  0.00  0.00    +0.000 A 
BRANCH  19  22
ATOM     22  C   UNL     1       8.938  10.052  18.613  0.00  0.00    +0.000 C 
ATOM     23  F   UNL     1      10.051  10.332  17.879  0.00  0.00    +0.000 F 
ATOM     24  F   UNL     1       8.067  11.071  18.371  0.00  0.00    +0.000 F 
ATOM     25  F   UNL     1       9.310  10.181  19.917  0.00  0.00    +0.000 F 
ENDBRANCH  19  22
ENDBRANCH  15  16
ENDBRANCH   2  15
TORSDOF 4
ENDMDL
MODEL 6
REMARK VINA RESULT:      -7.6      3.122      4.319
REMARK  Name = 
REMARK  4 active torsions:
REMARK  status: ('A' for Active; 'I' for Inactive)
REMARK    1  A    between atoms: C_2  and  C_3
REMARK    2  A    between atoms: C_3  and  C_4
REMARK    3  A    between atoms: C_7  and  C_8
REMARK    4  A    between atoms: N_14  and  C_15
REMARK                            x       y       z     vdW  Elec       q    Type
REMARK                         _______ _______ _______ _____ _____    ______ ____
ROOT
ATOM      1  O   UNL     1       2.004   7.861  20.025  0.00  0.00    +0.000 OA
ATOM      2  C   UNL     1       2.352   7.657  18.868  0.00  0.00    +0.000 C 
ATOM      3  N   UNL     1       3.137   6.593  18.493  0.00  0.00    +0.000 N 
ATOM      4  H   UNL     1       3.488   6.565  17.542  0.00  0.00    +0.000 HD
ENDROOT
BRANCH   3   5
ATOM      5  C   UNL     1       3.644   5.605  19.437  0.00  0.00    +0.000 C 
ATOM      6  C   UNL     1       5.107   5.251  19.187  0.00  0.00    +0.000 C 
ATOM      7  C   UNL     1       5.198   4.425  17.916  0.00  0.00    +0.000 C 
ATOM      8  O   UNL     1       4.480   3.194  18.011  0.00  0.00    +0.000 OA
ATOM      9  C   UNL     1       3.250   3.262  18.604  0.00  0.00    +0.000 A 
ATOM     10  N   UNL     1       2.514   2.143  18.445  0.00  0.00    +0.000 NA
ATOM     11  C   UNL     1       1.293   2.115  19.019  0.00  0.00    +0.000 A 
ATOM     12  C   UNL     1       0.765   3.159  19.758  0.00  0.00    +0.000 A 
ATOM     13  C   UNL     1       1.536   4.304  19.911  0.00  0.00    +0.000 A 
ATOM     14  C   UNL     1       2.807   4.365  19.327  0.00  0.00    +0.000 A 
ENDBRANCH   3   5
BRANCH   2  15
ATOM     15  C   UNL     1       1.898   8.531  17.707  0.00  0.00    +0.000 C 
BRANCH  15  16
ATOM     16  C   UNL     1       1.315   9.857  18.131  0.00  0.00    +0.000 A 
ATOM     17  C   UNL     1       2.134  10.987  18.277  0.00  0.00    +0.000 A 
ATOM     18  C   UNL     1       1.587  12.218  18.652  0.00  0.00    +0.000 A 
ATOM     19  C   UNL     1       0.211  12.347  18.886  0.00  0.00    +0.000 A 
ATOM     20  C   UNL     1      -0.608  11.220  18.727  0.00  0.00    +0.000 A 
ATOM     21  C   UNL     1      -0.062   9.990  18.351  0.00  0.00    +0.000 A 
BRANCH  19  22
ATOM     22  C   UNL     1      -0.394  13.666  19.298  0.00  0.00    +0.000 C 
ATOM     23  F   UNL     1      -0.395  14.601  18.307  0.00  0.00    +0.000 F 
ATOM     24  F   UNL     1      -1.692  13.544  19.695  0.00  0.00    +0.000 F 
ATOM     25  F   UNL     1       0.264  14.236  20.346  0.00  0.00    +0.000 F 
ENDBRANCH  19  22
ENDBRANCH  15  16
ENDBRANCH   2  15
TORSDOF 4
ENDMDL
MODEL 7
REMARK VINA RESULT:      -7.6      5.820      8.529
REMARK  Name = 
REMARK  4 active torsions:
REMARK  status: ('A' for Active; 'I' for Inactive)
REMARK    1  A    between atoms: C_2  and  C_3
REMARK    2  A    between atoms: C_3  and  C_4
REMARK    3  A    between atoms: C_7  and  C_8
REMARK    4  A    between atoms: N_14  and  C_15
REMARK                            x       y       z     vdW  Elec       q    Type
REMARK                         _______ _______ _______ _____ _____    ______ ____
ROOT
ATOM      1  O   UNL     1       6.693   5.181  19.807  0.00  0.00    +0.000 OA
ATOM      2  C   UNL     1       6.118   5.085  18.729  0.00  0.00    +0.000 C 
ATOM      3  N   UNL     1       5.086   4.208  18.500  0.00  0.00    +0.000 N 
ATOM      4  H   UNL     1       4.749   4.097  17.550  0.00  0.00    +0.000 HD
ENDROOT
BRANCH   3   5
ATOM      5  C   UNL     1       4.577   3.295  19.516  0.00  0.00    +0.000 C 
ATOM      6  C   UNL     1       4.647   1.834  19.080  0.00  0.00    +0.000 C 
ATOM      7  C   UNL     1       3.600   1.595  18.007  0.00  0.00    +0.000 C 
ATOM      8  O   UNL     1       2.272   1.827  18.478  0.00  0.00    +0.000 OA
ATOM      9  C   UNL     1       2.098   2.935  19.260  0.00  0.00    +0.000 A 
ATOM     10  N   UNL     1       0.803   3.250  19.467  0.00  0.00    +0.000 NA
ATOM     11  C   UNL     1       0.540   4.318  20.247  0.00  0.00    +0.000 A 
ATOM     12  C   UNL     1       1.516   5.096  20.844  0.00  0.00    +0.000 A 
ATOM     13  C   UNL     1       2.845   4.758  20.619  0.00  0.00    +0.000 A 
ATOM     14  C   UNL     1       3.152   3.656  19.814  0.00  0.00    +0.000 A 
ENDBRANCH   3   5
BRANCH   2  15
ATOM     15  C   UNL     1       6.448   5.976  17.540  0.00  0.00    +0.000 C 
BRANCH  15  16
ATOM     16  C   UNL     1       6.322   5.287  16.203  0.00  0.00    +0.000 A 
ATOM     17  C   UNL     1       5.111   4.697  15.811  0.00  0.00    +0.000 A 
ATOM     18  C   UNL     1       4.993   4.074  14.565  0.00  0.00    +0.000 A 
ATOM     19  C   UNL     1       6.081   4.030  13.683  0.00  0.00    +0.000 A 
ATOM     20  C   UNL     1       7.288   4.631  14.071  0.00  0.00    +0.000 A 
ATOM     21  C   UNL     1       7.405   5.255  15.316  0.00  0.00    +0.000 A 
BRANCH  19  22
ATOM     22  C   UNL     1       5.974   3.356  12.337  0.00  0.00    +0.000 C 
ATOM     23  F   UNL     1       5.804   2.006  12.414  0.00  0.00    +0.000 F 
ATOM     24  F   UNL     1       4.926   3.821  11.603  0.00  0.00    +0.000 F 
ATOM     25  F   UNL     1       7.083   3.548  11.569  0.00  0.00    +0.000 F 
ENDBRANCH  19  22
ENDBRANCH  15  16
ENDBRANCH   2  15
TORSDOF 4
ENDMDL
MODEL 8
REMARK VINA RESULT:      -7.6      3.147      4.386
REMARK  Name = 
REMARK  4 active torsions:
REMARK  status: ('A' for Active; 'I' for Inactive)
REMARK    1  A    between atoms: C_2  and  C_3
REMARK    2  A    between atoms: C_3  and  C_4
REMARK    3  A    between atoms: C_7  and  C_8
REMARK    4  A    between atoms: N_14  and  C_15
REMARK                            x       y       z     vdW  Elec       q    Type
REMARK                         _______ _______ _______ _____ _____    ______ ____
ROOT
ATOM      1  O   UNL     1       1.988   7.892  20.027  0.00  0.00    +0.000 OA
ATOM      2  C   UNL     1       2.341   7.674  18.873  0.00  0.00    +0.000 C 
ATOM      3  N   UNL     1       3.131   6.608  18.514  0.00  0.00    +0.000 N 
ATOM      4  H   UNL     1       3.485   6.569  17.565  0.00  0.00    +0.000 HD
ENDROOT
BRANCH   3   5
ATOM      5  C   UNL     1       3.637   5.634  19.473  0.00  0.00    +0.000 C 
ATOM      6  C   UNL     1       5.101   5.277  19.230  0.00  0.00    +0.000 C 
ATOM      7  C   UNL     1       5.194   4.434  17.970  0.00  0.00    +0.000 C 
ATOM      8  O   UNL     1       4.478   3.204  18.081  0.00  0.00    +0.000 OA
ATOM      9  C   UNL     1       3.246   3.279  18.671  0.00  0.00    +0.000 A 
ATOM     10  N   UNL     1       2.511   2.157  18.526  0.00  0.00    +0.000 NA
ATOM     11  C   UNL     1       1.290   2.136  19.099  0.00  0.00    +0.000 A 
ATOM     12  C   UNL     1       0.760   3.190  19.822  0.00  0.00    +0.000 A 
ATOM     13  C   UNL     1       1.530   4.337  19.961  0.00  0.00    +0.000 A 
ATOM     14  C   UNL     1       2.801   4.392  19.379  0.00  0.00    +0.000 A 
ENDBRANCH   3   5
BRANCH   2  15
ATOM     15  C   UNL     1       1.889   8.532  17.700  0.00  0.00    +0.000 C 
BRANCH  15  16
ATOM     16  C   UNL     1       1.302   9.863  18.104  0.00  0.00    +0.000 A 
ATOM     17  C   UNL     1      -0.078  10.004  18.315  0.00  0.00    +0.000 A 
ATOM     18  C   UNL     1      -0.616  11.234  18.706  0.00  0.00    +0.000 A 
ATOM     19  C   UNL     1       0.214  12.347  18.899  0.00  0.00    +0.000 A 
ATOM     20  C   UNL     1       1.595  12.201  18.702  0.00  0.00    +0.000 A 
ATOM     21  C   UNL     1       2.132  10.972  18.312  0.00  0.00    +0.000 A 
BRANCH  19  22
ATOM     22  C   UNL     1      -0.350  13.684  19.315  0.00  0.00    +0.000 C 
ATOM     23  F   UNL     1       0.390  14.317  20.268  0.00  0.00    +0.000 F 
ATOM     24  F   UNL     1      -0.442  14.558  18.274  0.00  0.00    +0.000 F 
ATOM     25  F   UNL     1      -1.608  13.581  19.829  0.00  0.00    +0.000 F 
ENDBRANCH  19  22
ENDBRANCH  15  16
ENDBRANCH   2  15
TORSDOF 4
ENDMDL
MODEL 9
REMARK VINA RESULT:      -7.6      1.623      2.381
REMARK  Name = 
REMARK  4 active torsions:
REMARK  status: ('A' for Active; 'I' for Inactive)
REMARK    1  A    between atoms: C_2  and  C_3
REMARK    2  A    between atoms: C_3  and  C_4
REMARK    3  A    between atoms: C_7  and  C_8
REMARK    4  A    between atoms: N_14  and  C_15
REMARK                            x       y       z     vdW  Elec       q    Type
REMARK                         _______ _______ _______ _____ _____    ______ ____
ROOT
ATOM      1  O   UNL     1       3.745   2.904  18.458  0.00  0.00    +0.000 OA
ATOM      2  C   UNL     1       3.546   3.986  17.917  0.00  0.00    +0.000 C 
ATOM      3  N   UNL     1       4.533   4.707  17.288  0.00  0.00    +0.000 N 
ATOM      4  H   UNL     1       4.319   5.648  16.978  0.00  0.00    +0.000 HD
ENDROOT
BRANCH   3   5
ATOM      5  C   UNL     1       5.918   4.261  17.210  0.00  0.00    +0.000 C 
ATOM      6  C   UNL     1       6.841   5.049  18.136  0.00  0.00    +0.000 C 
ATOM      7  C   UNL     1       7.016   6.448  17.573  0.00  0.00    +0.000 C 
ATOM      8  O   UNL     1       7.622   6.446  16.281  0.00  0.00    +0.000 OA
ATOM      9  C   UNL     1       7.173   5.493  15.408  0.00  0.00    +0.000 A 
ATOM     10  N   UNL     1       7.585   5.688  14.139  0.00  0.00    +0.000 NA
ATOM     11  C   UNL     1       7.206   4.780  13.216  0.00  0.00    +0.000 A 
ATOM     12  C   UNL     1       6.431   3.671  13.500  0.00  0.00    +0.000 A 
ATOM     13  C   UNL     1       6.014   3.485  14.813  0.00  0.00    +0.000 A 
ATOM     14  C   UNL     1       6.390   4.409  15.794  0.00  0.00    +0.000 A 
ENDBRANCH   3   5
BRANCH   2  15
ATOM     15  C   UNL     1       2.165   4.620  17.830  0.00  0.00    +0.000 C 
BRANCH  15  16
ATOM     16  C   UNL     1       1.940   5.736  18.821  0.00  0.00    +0.000 A 
ATOM     17  C   UNL     1       1.563   5.456  20.143  0.00  0.00    +0.000 A 
ATOM     18  C   UNL     1       1.372   6.491  21.063  0.00  0.00    +0.000 A 
ATOM     19  C   UNL     1       1.557   7.827  20.683  0.00  0.00    +0.000 A 
ATOM     20  C   UNL     1       1.947   8.105  19.365  0.00  0.00    +0.000 A 
ATOM     21  C   UNL     1       2.139   7.070  18.446  0.00  0.00    +0.000 A 
BRANCH  19  22
ATOM     22  C   UNL     1       1.349   8.958  21.661  0.00  0.00    +0.000 C 
ATOM     23  F   UNL     1       2.349   9.078  22.579  0.00  0.00    +0.000 F 
ATOM     24  F   UNL     1       1.262  10.170  21.046  0.00  0.00    +0.000 F 
ATOM     25  F   UNL     1       0.200   8.819  22.379  0.00  0.00    +0.000 F 
ENDBRANCH  19  22
ENDBRANCH  15  16
ENDBRANCH   2  15
TORSDOF 4
ENDMDL
