MODEL 1
REMARK VINA RESULT:      -7.4      0.000      0.000
REMARK  Name = 
REMARK  6 active torsions:
REMARK  status: ('A' for Active; 'I' for Inactive)
REMARK    1  A    between atoms: C_1  and  O_2
REMARK    2  A    between atoms: O_2  and  C_3
REMARK    3  A    between atoms: C_5  and  N_6
REMARK    4  A    between atoms: C_7  and  C_9
REMARK    5  A    between atoms: C_9  and  C_10
REMARK    6  A    between atoms: C_9  and  N_11
REMARK                            x       y       z     vdW  Elec       q    Type
REMARK                         _______ _______ _______ _____ _____    ______ ____
ROOT
ATOM      1  C   UNL     1       0.718  10.618  19.277  0.00  0.00    +0.000 C 
ATOM      2  C   UNL     1       1.661  11.698  18.741  0.00  0.00    +0.000 C 
ENDROOT
BRANCH   1   3
ATOM      3  N   UNL     1      -0.589  10.580  18.636  0.00  0.00    +0.000 N 
ATOM      4  N   UNL     1      -0.726   9.757  17.561  0.00  0.00    +0.000 NA
ATOM      5  C   UNL     1      -1.966   9.981  17.125  0.00  0.00    +0.000 A 
ATOM      6  C   UNL     1      -2.647  10.887  17.943  0.00  0.00    +0.000 A 
ATOM      7  C   UNL     1      -4.003  11.369  17.876  0.00  0.00    +0.000 A 
ATOM      8  O   UNL     1      -4.765  11.104  16.952  0.00  0.00    +0.000 OA
ATOM      9  O   UNL     1      -4.408  12.163  18.962  0.00  0.00    +0.000 OA
ATOM     10  C   UNL     1      -3.521  12.535  20.015  0.00  0.00    +0.000 A 
ATOM     11  C   UNL     1      -4.091  13.302  21.032  0.00  0.00    +0.000 A 
ATOM     12  C   UNL     1      -3.286  13.742  22.075  0.00  0.00    +0.000 A 
ATOM     13  C   UNL     1      -1.928  13.425  22.078  0.00  0.00    +0.000 A 
ATOM     14  C   UNL     1      -1.371  12.633  21.061  0.00  0.00    +0.000 A 
ATOM     15  C   UNL     1      -2.162  12.154  20.018  0.00  0.00    +0.000 A 
ATOM     16  C   UNL     1      -1.752  11.261  18.932  0.00  0.00    +0.000 A 
ENDBRANCH   1   3
BRANCH   1  18
ATOM     17  N   UNL     1       1.961   8.776  18.163  0.00  0.00    +0.000 N 
ATOM     18  C   UNL     1       1.346   9.234  19.324  0.00  0.00    +0.000 C 
ATOM     19  O   UNL     1       1.306   8.615  20.389  0.00  0.00    +0.000 OA
ATOM     20  H   UNL     1       2.020   9.426  17.384  0.00  0.00    +0.000 HD
BRANCH  17  23
ATOM     21  C   UNL     1       2.362   5.046  17.974  0.00  0.00    +0.000 A 
ATOM     22  C   UNL     1       1.799   6.312  18.183  0.00  0.00    +0.000 A 
ATOM     23  C   UNL     1       2.525   7.490  17.973  0.00  0.00    +0.000 A 
ATOM     24  C   UNL     1       3.849   7.387  17.539  0.00  0.00    +0.000 A 
ATOM     25  C   UNL     1       4.442   6.126  17.368  0.00  0.00    +0.000 A 
ATOM     26  C   UNL     1       3.705   4.962  17.593  0.00  0.00    +0.000 A 
ATOM     27 CL   UNL     1       4.482   3.436  17.358  0.00  0.00    +0.000 Cl
BRANCH  21  29
ATOM     28  C   UNL     1       1.243   3.621  19.498  0.00  0.00    +0.000 C 
ATOM     29  O   UNL     1       1.663   3.880  18.160  0.00  0.00    +0.000 OA
ENDBRANCH  21  29
ENDBRANCH  17  23
ENDBRANCH   1  18
TORSDOF 4
ENDMDL
MODEL 2
REMARK VINA RESULT:      -7.3      1.215      1.790
REMARK  Name = 
REMARK  6 active torsions:
REMARK  status: ('A' for Active; 'I' for Inactive)
REMARK    1  A    between atoms: C_1  and  O_2
REMARK    2  A    between atoms: O_2  and  C_3
REMARK    3  A    between atoms: C_5  and  N_6
REMARK    4  A    between atoms: C_7  and  C_9
REMARK    5  A    between atoms: C_9  and  C_10
REMARK    6  A    between atoms: C_9  and  N_11
REMARK                            x       y       z     vdW  Elec       q    Type
REMARK                         _______ _______ _______ _____ _____    ______ ____
ROOT
ATOM      1  C   UNL     1       1.250  10.215  18.974  0.00  0.00    +0.000 C 
ATOM      2  C   UNL     1       2.249  10.987  18.111  0.00  0.00    +0.000 C 
ENDROOT
BRANCH   1   3
ATOM      3  N   UNL     1      -0.139  10.334  18.553  0.00  0.00    +0.000 N 
ATOM      4  N   UNL     1      -0.525   9.590  17.480  0.00  0.00    +0.000 NA
ATOM      5  C   UNL     1      -1.789   9.954  17.261  0.00  0.00    +0.000 A 
ATOM      6  C   UNL     1      -2.238  10.870  18.215  0.00  0.00    +0.000 A 
ATOM      7  C   UNL     1      -3.533  11.480  18.388  0.00  0.00    +0.000 A 
ATOM      8  O   UNL     1      -4.452  11.340  17.589  0.00  0.00    +0.000 OA
ATOM      9  O   UNL     1      -3.679  12.245  19.557  0.00  0.00    +0.000 OA
ATOM     10  C   UNL     1      -2.605  12.472  20.467  0.00  0.00    +0.000 A 
ATOM     11  C   UNL     1      -2.928  13.230  21.593  0.00  0.00    +0.000 A 
ATOM     12  C   UNL     1      -1.930  13.533  22.510  0.00  0.00    +0.000 A 
ATOM     13  C   UNL     1      -0.627  13.091  22.280  0.00  0.00    +0.000 A 
ATOM     14  C   UNL     1      -0.319  12.310  21.155  0.00  0.00    +0.000 A 
ATOM     15  C   UNL     1      -1.308  11.967  20.234  0.00  0.00    +0.000 A 
ATOM     16  C   UNL     1      -1.166  11.103  19.061  0.00  0.00    +0.000 A 
ENDBRANCH   1   3
BRANCH   1  18
ATOM     17  N   UNL     1       2.258   8.103  18.134  0.00  0.00    +0.000 N 
ATOM     18  C   UNL     1       1.633   8.759  19.191  0.00  0.00    +0.000 C 
ATOM     19  O   UNL     1       1.402   8.256  20.293  0.00  0.00    +0.000 OA
ATOM     20  H   UNL     1       2.489   8.660  17.317  0.00  0.00    +0.000 HD
BRANCH  17  23
ATOM     21  C   UNL     1       4.266   4.932  18.274  0.00  0.00    +0.000 A 
ATOM     22  C   UNL     1       3.929   6.292  18.289  0.00  0.00    +0.000 A 
ATOM     23  C   UNL     1       2.614   6.732  18.102  0.00  0.00    +0.000 A 
ATOM     24  C   UNL     1       1.615   5.775  17.898  0.00  0.00    +0.000 A 
ATOM     25  C   UNL     1       1.943   4.413  17.835  0.00  0.00    +0.000 A 
ATOM     26  C   UNL     1       3.263   3.994  18.013  0.00  0.00    +0.000 A 
ATOM     27 CL   UNL     1       3.609   2.302  17.934  0.00  0.00    +0.000 Cl
BRANCH  21  29
ATOM     28  C   UNL     1       6.423   5.381  19.142  0.00  0.00    +0.000 C 
ATOM     29  O   UNL     1       5.547   4.480  18.469  0.00  0.00    +0.000 OA
ENDBRANCH  21  29
ENDBRANCH  17  23
ENDBRANCH   1  18
TORSDOF 4
ENDMDL
MODEL 3
REMARK VINA RESULT:      -7.2      1.102      1.134
REMARK  Name = 
REMARK  6 active torsions:
REMARK  status: ('A' for Active; 'I' for Inactive)
REMARK    1  A    between atoms: C_1  and  O_2
REMARK    2  A    between atoms: O_2  and  C_3
REMARK    3  A    between atoms: C_5  and  N_6
REMARK    4  A    between atoms: C_7  and  C_9
REMARK    5  A    between atoms: C_9  and  C_10
REMARK    6  A    between atoms: C_9  and  N_11
REMARK                            x       y       z     vdW  Elec       q    Type
REMARK                         _______ _______ _______ _____ _____    ______ ____
ROOT
ATOM      1  C   UNL     1       0.142  10.847  19.819  0.00  0.00    +0.000 C 
ATOM      2  C   UNL     1       1.179  11.916  19.470  0.00  0.00    +0.000 C 
ENDROOT
BRANCH   1   3
ATOM      3  N   UNL     1      -1.016  10.810  18.936  0.00  0.00    +0.000 N 
ATOM      4  N   UNL     1      -0.910  10.051  17.811  0.00  0.00    +0.000 NA
ATOM      5  C   UNL     1      -2.052  10.267  17.156  0.00  0.00    +0.000 A 
ATOM      6  C   UNL     1      -2.913  11.101  17.874  0.00  0.00    +0.000 A 
ATOM      7  C   UNL     1      -4.249  11.549  17.570  0.00  0.00    +0.000 A 
ATOM      8  O   UNL     1      -4.807  11.318  16.504  0.00  0.00    +0.000 OA
ATOM      9  O   UNL     1      -4.885  12.263  18.599  0.00  0.00    +0.000 OA
ATOM     10  C   UNL     1      -4.232  12.595  19.822  0.00  0.00    +0.000 A 
ATOM     11  C   UNL     1      -5.017  13.283  20.749  0.00  0.00    +0.000 A 
ATOM     12  C   UNL     1      -4.446  13.681  21.952  0.00  0.00    +0.000 A 
ATOM     13  C   UNL     1      -3.103  13.402  22.201  0.00  0.00    +0.000 A 
ATOM     14  C   UNL     1      -2.329  12.690  21.270  0.00  0.00    +0.000 A 
ATOM     15  C   UNL     1      -2.885  12.253  20.069  0.00  0.00    +0.000 A 
ATOM     16  C   UNL     1      -2.240  11.440  19.037  0.00  0.00    +0.000 A 
ENDBRANCH   1   3
BRANCH   1  18
ATOM     17  N   UNL     1       1.670   9.043  19.054  0.00  0.00    +0.000 N 
ATOM     18  C   UNL     1       0.738   9.460  19.999  0.00  0.00    +0.000 C 
ATOM     19  O   UNL     1       0.390   8.801  20.981  0.00  0.00    +0.000 OA
ATOM     20  H   UNL     1       1.952   9.721  18.352  0.00  0.00    +0.000 HD
BRANCH  17  23
ATOM     21  C   UNL     1       2.684   5.528  19.908  0.00  0.00    +0.000 A 
ATOM     22  C   UNL     1       2.097   6.798  19.990  0.00  0.00    +0.000 A 
ATOM     23  C   UNL     1       2.275   7.762  18.992  0.00  0.00    +0.000 A 
ATOM     24  C   UNL     1       3.062   7.435  17.884  0.00  0.00    +0.000 A 
ATOM     25  C   UNL     1       3.693   6.185  17.808  0.00  0.00    +0.000 A 
ATOM     26  C   UNL     1       3.513   5.239  18.820  0.00  0.00    +0.000 A 
ATOM     27 CL   UNL     1       4.307   3.711  18.671  0.00  0.00    +0.000 Cl
BRANCH  21  29
ATOM     28  C   UNL     1       1.321   3.786  20.754  0.00  0.00    +0.000 C 
ATOM     29  O   UNL     1       2.510   4.564  20.869  0.00  0.00    +0.000 OA
ENDBRANCH  21  29
ENDBRANCH  17  23
ENDBRANCH   1  18
TORSDOF 4
ENDMDL
MODEL 4
REMARK VINA RESULT:      -7.1      1.639      3.371
REMARK  Name = 
REMARK  6 active torsions:
REMARK  status: ('A' for Active; 'I' for Inactive)
REMARK    1  A    between atoms: C_1  and  O_2
REMARK    2  A    between atoms: O_2  and  C_3
REMARK    3  A    between atoms: C_5  and  N_6
REMARK    4  A    between atoms: C_7  and  C_9
REMARK    5  A    between atoms: C_9  and  C_10
REMARK    6  A    between atoms: C_9  and  N_11
REMARK                            x       y       z     vdW  Elec       q    Type
REMARK                         _______ _______ _______ _____ _____    ______ ____
ROOT
ATOM      1  C   UNL     1       1.390  10.537  19.728  0.00  0.00    +0.000 C 
ATOM      2  C   UNL     1       1.703  10.877  18.270  0.00  0.00    +0.000 C 
ENDROOT
BRANCH   1   3
ATOM      3  N   UNL     1       0.312  11.317  20.318  0.00  0.00    +0.000 N 
ATOM      4  N   UNL     1       0.603  12.015  21.450  0.00  0.00    +0.000 NA
ATOM      5  C   UNL     1      -0.561  12.553  21.818  0.00  0.00    +0.000 A 
ATOM      6  C   UNL     1      -1.578  12.263  20.904  0.00  0.00    +0.000 A 
ATOM      7  C   UNL     1      -2.958  12.677  20.881  0.00  0.00    +0.000 A 
ATOM      8  O   UNL     1      -3.486  13.305  21.792  0.00  0.00    +0.000 OA
ATOM      9  O   UNL     1      -3.666  12.324  19.720  0.00  0.00    +0.000 OA
ATOM     10  C   UNL     1      -3.089  11.542  18.676  0.00  0.00    +0.000 A 
ATOM     11  C   UNL     1      -3.920  11.305  17.580  0.00  0.00    +0.000 A 
ATOM     12  C   UNL     1      -3.451  10.517  16.537  0.00  0.00    +0.000 A 
ATOM     13  C   UNL     1      -2.172   9.967  16.612  0.00  0.00    +0.000 A 
ATOM     14  C   UNL     1      -1.337  10.230  17.709  0.00  0.00    +0.000 A 
ATOM     15  C   UNL     1      -1.772  11.042  18.756  0.00  0.00    +0.000 A 
ATOM     16  C   UNL     1      -1.002  11.472  19.924  0.00  0.00    +0.000 A 
ENDBRANCH   1   3
BRANCH   1  18
ATOM     17  N   UNL     1       2.104   8.179  19.390  0.00  0.00    +0.000 N 
ATOM     18  C   UNL     1       1.188   9.050  19.973  0.00  0.00    +0.000 C 
ATOM     19  O   UNL     1       0.251   8.703  20.696  0.00  0.00    +0.000 OA
ATOM     20  H   UNL     1       2.894   8.597  18.906  0.00  0.00    +0.000 HD
BRANCH  17  23
ATOM     21  C   UNL     1       2.319   4.571  18.370  0.00  0.00    +0.000 A 
ATOM     22  C   UNL     1       2.364   5.971  18.317  0.00  0.00    +0.000 A 
ATOM     23  C   UNL     1       2.044   6.764  19.425  0.00  0.00    +0.000 A 
ATOM     24  C   UNL     1       1.672   6.129  20.613  0.00  0.00    +0.000 A 
ATOM     25  C   UNL     1       1.578   4.730  20.668  0.00  0.00    +0.000 A 
ATOM     26  C   UNL     1       1.891   3.956  19.550  0.00  0.00    +0.000 A 
ATOM     27 CL   UNL     1       1.767   2.236  19.677  0.00  0.00    +0.000 Cl
BRANCH  21  29
ATOM     28  C   UNL     1       4.038   3.563  17.089  0.00  0.00    +0.000 C 
ATOM     29  O   UNL     1       2.643   3.775  17.300  0.00  0.00    +0.000 OA
ENDBRANCH  21  29
ENDBRANCH  17  23
ENDBRANCH   1  18
TORSDOF 4
ENDMDL
MODEL 5
REMARK VINA RESULT:      -7.0      1.333      1.384
REMARK  Name = 
REMARK  6 active torsions:
REMARK  status: ('A' for Active; 'I' for Inactive)
REMARK    1  A    between atoms: C_1  and  O_2
REMARK    2  A    between atoms: O_2  and  C_3
REMARK    3  A    between atoms: C_5  and  N_6
REMARK    4  A    between atoms: C_7  and  C_9
REMARK    5  A    between atoms: C_9  and  C_10
REMARK    6  A    between atoms: C_9  and  N_11
REMARK                            x       y       z     vdW  Elec       q    Type
REMARK                         _______ _______ _______ _____ _____    ______ ____
ROOT
ATOM      1  C   UNL     1       1.007  10.667  18.949  0.00  0.00    +0.000 C 
ATOM      2  C   UNL     1       1.790  11.898  18.488  0.00  0.00    +0.000 C 
ENDROOT
BRANCH   1   3
ATOM      3  N   UNL     1      -0.390  10.645  18.538  0.00  0.00    +0.000 N 
ATOM      4  N   UNL     1      -0.719   9.812  17.513  0.00  0.00    +0.000 NA
ATOM      5  C   UNL     1      -2.012  10.054  17.290  0.00  0.00    +0.000 A 
ATOM      6  C   UNL     1      -2.530  10.982  18.197  0.00  0.00    +0.000 A 
ATOM      7  C   UNL     1      -3.870  11.489  18.351  0.00  0.00    +0.000 A 
ATOM      8  O   UNL     1      -4.781  11.226  17.573  0.00  0.00    +0.000 OA
ATOM      9  O   UNL     1      -4.073  12.303  19.478  0.00  0.00    +0.000 OA
ATOM     10  C   UNL     1      -3.015  12.671  20.361  0.00  0.00    +0.000 A 
ATOM     11  C   UNL     1      -3.393  13.461  21.448  0.00  0.00    +0.000 A 
ATOM     12  C   UNL     1      -2.417  13.898  22.334  0.00  0.00    +0.000 A 
ATOM     13  C   UNL     1      -1.083  13.556  22.113  0.00  0.00    +0.000 A 
ATOM     14  C   UNL     1      -0.718  12.742  21.029  0.00  0.00    +0.000 A 
ATOM     15  C   UNL     1      -1.682  12.265  20.141  0.00  0.00    +0.000 A 
ATOM     16  C   UNL     1      -1.476  11.352  19.015  0.00  0.00    +0.000 A 
ENDBRANCH   1   3
BRANCH   1  18
ATOM     17  N   UNL     1       1.587   8.327  19.554  0.00  0.00    +0.000 N 
ATOM     18  C   UNL     1       1.696   9.352  18.619  0.00  0.00    +0.000 C 
ATOM     19  O   UNL     1       2.278   9.258  17.536  0.00  0.00    +0.000 OA
ATOM     20  H   UNL     1       0.989   8.496  20.357  0.00  0.00    +0.000 HD
BRANCH  17  23
ATOM     21  C   UNL     1       2.644   4.810  20.340  0.00  0.00    +0.000 A 
ATOM     22  C   UNL     1       2.025   6.063  20.436  0.00  0.00    +0.000 A 
ATOM     23  C   UNL     1       2.223   7.063  19.478  0.00  0.00    +0.000 A 
ATOM     24  C   UNL     1       3.065   6.790  18.396  0.00  0.00    +0.000 A 
ATOM     25  C   UNL     1       3.728   5.557  18.309  0.00  0.00    +0.000 A 
ATOM     26  C   UNL     1       3.526   4.575  19.281  0.00  0.00    +0.000 A 
ATOM     27 CL   UNL     1       4.362   3.070  19.119  0.00  0.00    +0.000 Cl
BRANCH  21  29
ATOM     28  C   UNL     1       1.292   3.004  21.063  0.00  0.00    +0.000 C 
ATOM     29  O   UNL     1       2.452   3.811  21.261  0.00  0.00    +0.000 OA
ENDBRANCH  21  29
ENDBRANCH  17  23
ENDBRANCH   1  18
TORSDOF 4
ENDMDL
MODEL 6
REMARK VINA RESULT:      -7.0      1.386      1.864
REMARK  Name = 
REMARK  6 active torsions:
REMARK  status: ('A' for Active; 'I' for Inactive)
REMARK    1  A    between atoms: C_1  and  O_2
REMARK    2  A    between atoms: O_2  and  C_3
REMARK    3  A    between atoms: C_5  and  N_6
REMARK    4  A    between atoms: C_7  and  C_9
REMARK    5  A    between atoms: C_9  and  C_10
REMARK    6  A    between atoms: C_9  and  N_11
REMARK                            x       y       z     vdW  Elec       q    Type
REMARK                         _______ _______ _______ _____ _____    ______ ____
ROOT
ATOM      1  C   UNL     1       0.977  10.507  19.254  0.00  0.00    +0.000 C 
ATOM      2  C   UNL     1       2.027  10.960  18.238  0.00  0.00    +0.000 C 
ENDROOT
BRANCH   1   3
ATOM      3  N   UNL     1      -0.401  10.614  18.795  0.00  0.00    +0.000 N 
ATOM      4  N   UNL     1      -0.730   9.929  17.666  0.00  0.00    +0.000 NA
ATOM      5  C   UNL     1      -1.998  10.270  17.428  0.00  0.00    +0.000 A 
ATOM      6  C   UNL     1      -2.504  11.111  18.422  0.00  0.00    +0.000 A 
ATOM      7  C   UNL     1      -3.821  11.671  18.590  0.00  0.00    +0.000 A 
ATOM      8  O   UNL     1      -4.711  11.556  17.754  0.00  0.00    +0.000 OA
ATOM      9  O   UNL     1      -4.028  12.355  19.800  0.00  0.00    +0.000 OA
ATOM     10  C   UNL     1      -2.990  12.554  20.757  0.00  0.00    +0.000 A 
ATOM     11  C   UNL     1      -3.371  13.229  21.918  0.00  0.00    +0.000 A 
ATOM     12  C   UNL     1      -2.411  13.501  22.885  0.00  0.00    +0.000 A 
ATOM     13  C   UNL     1      -1.090  13.112  22.671  0.00  0.00    +0.000 A 
ATOM     14  C   UNL     1      -0.722  12.414  21.509  0.00  0.00    +0.000 A 
ATOM     15  C   UNL     1      -1.672  12.102  20.536  0.00  0.00    +0.000 A 
ATOM     16  C   UNL     1      -1.467  11.319  19.316  0.00  0.00    +0.000 A 
ENDBRANCH   1   3
BRANCH   1  18
ATOM     17  N   UNL     1       2.040   8.267  19.085  0.00  0.00    +0.000 N 
ATOM     18  C   UNL     1       1.254   9.132  19.841  0.00  0.00    +0.000 C 
ATOM     19  O   UNL     1       0.800   8.875  20.958  0.00  0.00    +0.000 OA
ATOM     20  H   UNL     1       2.442   8.636  18.229  0.00  0.00    +0.000 HD
BRANCH  17  23
ATOM     21  C   UNL     1       3.630   4.864  19.085  0.00  0.00    +0.000 A 
ATOM     22  C   UNL     1       3.328   6.188  18.741  0.00  0.00    +0.000 A 
ATOM     23  C   UNL     1       2.341   6.920  19.409  0.00  0.00    +0.000 A 
ATOM     24  C   UNL     1       1.643   6.300  20.450  0.00  0.00    +0.000 A 
ATOM     25  C   UNL     1       1.901   4.960  20.776  0.00  0.00    +0.000 A 
ATOM     26  C   UNL     1       2.884   4.243  20.090  0.00  0.00    +0.000 A 
ATOM     27 CL   UNL     1       3.168   2.598  20.540  0.00  0.00    +0.000 Cl
BRANCH  21  29
ATOM     28  C   UNL     1       4.249   3.606  17.175  0.00  0.00    +0.000 C 
ATOM     29  O   UNL     1       4.605   4.134  18.451  0.00  0.00    +0.000 OA
ENDBRANCH  21  29
ENDBRANCH  17  23
ENDBRANCH   1  18
TORSDOF 4
ENDMDL
MODEL 7
REMARK VINA RESULT:      -7.0      1.301      1.861
REMARK  Name = 
REMARK  6 active torsions:
REMARK  status: ('A' for Active; 'I' for Inactive)
REMARK    1  A    between atoms: C_1  and  O_2
REMARK    2  A    between atoms: O_2  and  C_3
REMARK    3  A    between atoms: C_5  and  N_6
REMARK    4  A    between atoms: C_7  and  C_9
REMARK    5  A    between atoms: C_9  and  C_10
REMARK    6  A    between atoms: C_9  and  N_11
REMARK                            x       y       z     vdW  Elec       q    Type
REMARK                         _______ _______ _______ _____ _____    ______ ____
ROOT
ATOM      1  C   UNL     1       0.823  10.816  18.935  0.00  0.00    +0.000 C 
ATOM      2  C   UNL     1       1.538  12.111  18.548  0.00  0.00    +0.000 C 
ENDROOT
BRANCH   1   3
ATOM      3  N   UNL     1      -0.570  10.741  18.515  0.00  0.00    +0.000 N 
ATOM      4  N   UNL     1      -0.864   9.881  17.501  0.00  0.00    +0.000 NA
ATOM      5  C   UNL     1      -2.162  10.077  17.265  0.00  0.00    +0.000 A 
ATOM      6  C   UNL     1      -2.717  11.001  18.154  0.00  0.00    +0.000 A 
ATOM      7  C   UNL     1      -4.075  11.465  18.291  0.00  0.00    +0.000 A 
ATOM      8  O   UNL     1      -4.970  11.161  17.511  0.00  0.00    +0.000 OA
ATOM      9  O   UNL     1      -4.312  12.289  19.404  0.00  0.00    +0.000 OA
ATOM     10  C   UNL     1      -3.274  12.705  20.288  0.00  0.00    +0.000 A 
ATOM     11  C   UNL     1      -3.686  13.499  21.360  0.00  0.00    +0.000 A 
ATOM     12  C   UNL     1      -2.731  13.982  22.246  0.00  0.00    +0.000 A 
ATOM     13  C   UNL     1      -1.385  13.681  22.039  0.00  0.00    +0.000 A 
ATOM     14  C   UNL     1      -0.985  12.863  20.970  0.00  0.00    +0.000 A 
ATOM     15  C   UNL     1      -1.926  12.341  20.084  0.00  0.00    +0.000 A 
ATOM     16  C   UNL     1      -1.682  11.418  18.974  0.00  0.00    +0.000 A 
ENDBRANCH   1   3
BRANCH   1  18
ATOM     17  N   UNL     1       1.524   8.478  19.408  0.00  0.00    +0.000 N 
ATOM     18  C   UNL     1       1.583   9.561  18.536  0.00  0.00    +0.000 C 
ATOM     19  O   UNL     1       2.177   9.561  17.455  0.00  0.00    +0.000 OA
ATOM     20  H   UNL     1       0.913   8.568  20.215  0.00  0.00    +0.000 HD
BRANCH  17  23
ATOM     21  C   UNL     1       3.769   5.789  18.054  0.00  0.00    +0.000 A 
ATOM     22  C   UNL     1       3.064   6.993  18.175  0.00  0.00    +0.000 A 
ATOM     23  C   UNL     1       2.228   7.256  19.265  0.00  0.00    +0.000 A 
ATOM     24  C   UNL     1       2.103   6.281  20.259  0.00  0.00    +0.000 A 
ATOM     25  C   UNL     1       2.767   5.052  20.130  0.00  0.00    +0.000 A 
ATOM     26  C   UNL     1       3.589   4.803  19.029  0.00  0.00    +0.000 A 
ATOM     27 CL   UNL     1       4.390   3.275  18.927  0.00  0.00    +0.000 Cl
BRANCH  21  29
ATOM     28  C   UNL     1       5.064   6.652  16.269  0.00  0.00    +0.000 C 
ATOM     29  O   UNL     1       4.605   5.517  17.000  0.00  0.00    +0.000 OA
ENDBRANCH  21  29
ENDBRANCH  17  23
ENDBRANCH   1  18
TORSDOF 4
ENDMDL
MODEL 8
REMARK VINA RESULT:      -7.0      1.230      1.784
REMARK  Name = 
REMARK  6 active torsions:
REMARK  status: ('A' for Active; 'I' for Inactive)
REMARK    1  A    between atoms: C_1  and  O_2
REMARK    2  A    between atoms: O_2  and  C_3
REMARK    3  A    between atoms: C_5  and  N_6
REMARK    4  A    between atoms: C_7  and  C_9
REMARK    5  A    between atoms: C_9  and  C_10
REMARK    6  A    between atoms: C_9  and  N_11
REMARK                            x       y       z     vdW  Elec       q    Type
REMARK                         _______ _______ _______ _____ _____    ______ ____
ROOT
ATOM      1  C   UNL     1       0.404  10.773  19.502  0.00  0.00    +0.000 C 
ATOM      2  C   UNL     1       1.535  11.575  18.855  0.00  0.00    +0.000 C 
ENDROOT
BRANCH   1   3
ATOM      3  N   UNL     1      -0.826  10.719  18.724  0.00  0.00    +0.000 N 
ATOM      4  N   UNL     1      -0.819   9.935  17.611  0.00  0.00    +0.000 NA
ATOM      5  C   UNL     1      -2.013  10.138  17.054  0.00  0.00    +0.000 A 
ATOM      6  C   UNL     1      -2.808  10.989  17.826  0.00  0.00    +0.000 A 
ATOM      7  C   UNL     1      -4.166  11.432  17.630  0.00  0.00    +0.000 A 
ATOM      8  O   UNL     1      -4.815  11.179  16.622  0.00  0.00    +0.000 OA
ATOM      9  O   UNL     1      -4.711  12.169  18.695  0.00  0.00    +0.000 OA
ATOM     10  C   UNL     1      -3.954  12.527  19.849  0.00  0.00    +0.000 A 
ATOM     11  C   UNL     1      -4.655  13.236  20.826  0.00  0.00    +0.000 A 
ATOM     12  C   UNL     1      -3.981  13.659  21.965  0.00  0.00    +0.000 A 
ATOM     13  C   UNL     1      -2.621  13.384  22.102  0.00  0.00    +0.000 A 
ATOM     14  C   UNL     1      -1.932  12.651  21.123  0.00  0.00    +0.000 A 
ATOM     15  C   UNL     1      -2.591  12.188  19.984  0.00  0.00    +0.000 A 
ATOM     16  C   UNL     1      -2.037  11.352  18.918  0.00  0.00    +0.000 A 
ENDBRANCH   1   3
BRANCH   1  18
ATOM     17  N   UNL     1       1.706   8.688  19.132  0.00  0.00    +0.000 N 
ATOM     18  C   UNL     1       0.827   9.385  19.956  0.00  0.00    +0.000 C 
ATOM     19  O   UNL     1       0.398   8.971  21.035  0.00  0.00    +0.000 OA
ATOM     20  H   UNL     1       2.070   9.182  18.322  0.00  0.00    +0.000 HD
BRANCH  17  23
ATOM     21  C   UNL     1       3.527   5.432  18.698  0.00  0.00    +0.000 A 
ATOM     22  C   UNL     1       3.081   6.743  18.482  0.00  0.00    +0.000 A 
ATOM     23  C   UNL     1       2.151   7.357  19.328  0.00  0.00    +0.000 A 
ATOM     24  C   UNL     1       1.662   6.632  20.418  0.00  0.00    +0.000 A 
ATOM     25  C   UNL     1       2.064   5.303  20.622  0.00  0.00    +0.000 A 
ATOM     26  C   UNL     1       2.986   4.704  19.761  0.00  0.00    +0.000 A 
ATOM     27 CL   UNL     1       3.454   3.067  20.065  0.00  0.00    +0.000 Cl
BRANCH  21  29
ATOM     28  C   UNL     1       4.787   5.518  16.694  0.00  0.00    +0.000 C 
ATOM     29  O   UNL     1       4.450   4.817  17.889  0.00  0.00    +0.000 OA
ENDBRANCH  21  29
ENDBRANCH  17  23
ENDBRANCH   1  18
TORSDOF 4
ENDMDL
MODEL 9
REMARK VINA RESULT:      -6.9      2.375      3.494
REMARK  Name = 
REMARK  6 active torsions:
REMARK  status: ('A' for Active; 'I' for Inactive)
REMARK    1  A    between atoms: C_1  and  O_2
REMARK    2  A    between atoms: O_2  and  C_3
REMARK    3  A    between atoms: C_5  and  N_6
REMARK    4  A    between atoms: C_7  and  C_9
REMARK    5  A    between atoms: C_9  and  C_10
REMARK    6  A    between atoms: C_9  and  N_11
REMARK                            x       y       z     vdW  Elec       q    Type
REMARK                         _______ _______ _______ _____ _____    ______ ____
ROOT
ATOM      1  C   UNL     1       0.110   9.304  21.312  0.00  0.00    +0.000 C 
ATOM      2  C   UNL     1      -0.058   9.300  22.832  0.00  0.00    +0.000 C 
ENDROOT
BRANCH   1   3
ATOM      3  N   UNL     1       0.400  10.609  20.734  0.00  0.00    +0.000 N 
ATOM      4  N   UNL     1       1.431  11.311  21.281  0.00  0.00    +0.000 NA
ATOM      5  C   UNL     1       1.417  12.478  20.636  0.00  0.00    +0.000 A 
ATOM      6  C   UNL     1       0.435  12.510  19.642  0.00  0.00    +0.000 A 
ATOM      7  C   UNL     1       0.107  13.538  18.686  0.00  0.00    +0.000 A 
ATOM      8  O   UNL     1       0.623  14.650  18.693  0.00  0.00    +0.000 OA
ATOM      9  O   UNL     1      -0.846  13.171  17.721  0.00  0.00    +0.000 OA
ATOM     10  C   UNL     1      -1.503  11.905  17.732  0.00  0.00    +0.000 A 
ATOM     11  C   UNL     1      -2.400  11.691  16.685  0.00  0.00    +0.000 A 
ATOM     12  C   UNL     1      -3.114  10.499  16.643  0.00  0.00    +0.000 A 
ATOM     13  C   UNL     1      -2.934   9.554  17.652  0.00  0.00    +0.000 A 
ATOM     14  C   UNL     1      -2.013   9.772  18.688  0.00  0.00    +0.000 A 
ATOM     15  C   UNL     1      -1.261  10.945  18.738  0.00  0.00    +0.000 A 
ATOM     16  C   UNL     1      -0.213  11.287  19.700  0.00  0.00    +0.000 A 
ENDBRANCH   1   3
BRANCH   1  18
ATOM     17  N   UNL     1       1.533   8.379  19.496  0.00  0.00    +0.000 N 
ATOM     18  C   UNL     1       1.086   8.252  20.807  0.00  0.00    +0.000 C 
ATOM     19  O   UNL     1       1.449   7.373  21.592  0.00  0.00    +0.000 OA
ATOM     20  H   UNL     1       1.243   9.209  18.986  0.00  0.00    +0.000 HD
BRANCH  17  23
ATOM     21  C   UNL     1       3.157   5.188  18.360  0.00  0.00    +0.000 A 
ATOM     22  C   UNL     1       2.338   6.086  19.057  0.00  0.00    +0.000 A 
ATOM     23  C   UNL     1       2.371   7.463  18.811  0.00  0.00    +0.000 A 
ATOM     24  C   UNL     1       3.250   7.944  17.837  0.00  0.00    +0.000 A 
ATOM     25  C   UNL     1       4.109   7.064  17.162  0.00  0.00    +0.000 A 
ATOM     26  C   UNL     1       4.069   5.694  17.429  0.00  0.00    +0.000 A 
ATOM     27 CL   UNL     1       5.144   4.654  16.562  0.00  0.00    +0.000 Cl
BRANCH  21  29
ATOM     28  C   UNL     1       3.987   3.357  19.612  0.00  0.00    +0.000 C 
ATOM     29  O   UNL     1       3.130   3.833  18.576  0.00  0.00    +0.000 OA
ENDBRANCH  21  29
ENDBRANCH  17  23
ENDBRANCH   1  18
TORSDOF 4
ENDMDL
