MODEL 1
REMARK VINA RESULT:      -7.6      0.000      0.000
REMARK  Name = 
REMARK  4 active torsions:
REMARK  status: ('A' for Active; 'I' for Inactive)
REMARK    1  A    between atoms: C_1  and  C_2
REMARK    2  A    between atoms: C_7  and  C_8
REMARK    3  A    between atoms: C_14  and  S_15
REMARK    4  A    between atoms: S_15  and  N_16
REMARK                            x       y       z     vdW  Elec       q    Type
REMARK                         _______ _______ _______ _____ _____    ______ ____
ROOT
ATOM      1  C   UNL     1       2.541   4.958  19.353  0.00  0.00    +0.000 A 
ATOM      2  N   UNL     1       2.699   5.976  18.531  0.00  0.00    +0.000 NA
ATOM      3  C   UNL     1       2.156   7.135  19.073  0.00  0.00    +0.000 A 
ATOM      4  C   UNL     1       2.051   8.399  18.450  0.00  0.00    +0.000 A 
ATOM      5  F   UNL     1       2.493   8.575  17.197  0.00  0.00    +0.000 F 
ATOM      6  C   UNL     1       1.479   9.484  19.112  0.00  0.00    +0.000 A 
ATOM      7  C   UNL     1       1.031   9.331  20.421  0.00  0.00    +0.000 A 
ATOM      8  C   UNL     1       1.122   8.097  21.084  0.00  0.00    +0.000 A 
ATOM      9  C   UNL     1       1.664   7.007  20.374  0.00  0.00    +0.000 A 
ATOM     10  S   UNL     1       1.837   5.369  20.870  0.00  0.00    +0.000 S 
ENDROOT
BRANCH   1  17
ATOM     11  C   UNL     1       0.576   2.386  18.782  0.00  0.00    +0.000 C 
ATOM     12  C   UNL     1       2.053   2.504  18.761  0.00  0.00    +0.000 A 
ATOM     13  N   UNL     1       2.846   1.424  18.485  0.00  0.00    +0.000 N 
ATOM     14  N   UNL     1       4.154   1.705  18.446  0.00  0.00    +0.000 NA
ATOM     15  C   UNL     1       4.217   3.001  18.742  0.00  0.00    +0.000 A 
ATOM     16  N   UNL     1       5.391   3.634  18.833  0.00  0.00    +0.000 N 
ATOM     17  C   UNL     1       2.928   3.560  18.963  0.00  0.00    +0.000 A 
ATOM     18  H   UNL     1       2.560   0.467  18.309  0.00  0.00    +0.000 HD
ATOM     19  H   UNL     1       6.226   3.133  18.553  0.00  0.00    +0.000 HD
ATOM     20  H   UNL     1       5.477   4.640  18.884  0.00  0.00    +0.000 HD
ENDBRANCH   1  17
BRANCH   7  21
ATOM     21  S   UNL     1       0.420  10.750  21.290  0.00  0.00    +0.000 S 
ATOM     22  O   UNL     1       1.439  11.773  21.281  0.00  0.00    +0.000 OA
ATOM     23  O   UNL     1      -0.938  11.002  20.881  0.00  0.00    +0.000 OA
BRANCH  21  24
ATOM     24  N   UNL     1       0.336  10.191  22.869  0.00  0.00    +0.000 NA
ATOM     25  H   UNL     1       1.095  10.596  23.419  0.00  0.00    +0.000 HD
ATOM     26  H   UNL     1      -0.587  10.390  23.257  0.00  0.00    +0.000 HD
ENDBRANCH  21  24
ENDBRANCH   7  21
TORSDOF 3
ENDMDL
MODEL 2
REMARK VINA RESULT:      -7.4      2.052      2.473
REMARK  Name = 
REMARK  4 active torsions:
REMARK  status: ('A' for Active; 'I' for Inactive)
REMARK    1  A    between atoms: C_1  and  C_2
REMARK    2  A    between atoms: C_7  and  C_8
REMARK    3  A    between atoms: C_14  and  S_15
REMARK    4  A    between atoms: S_15  and  N_16
REMARK                            x       y       z     vdW  Elec       q    Type
REMARK                         _______ _______ _______ _____ _____    ______ ____
ROOT
ATOM      1  C   UNL     1       3.857   6.004  18.046  0.00  0.00    +0.000 A 
ATOM      2  N   UNL     1       3.455   7.183  17.616  0.00  0.00    +0.000 NA
ATOM      3  C   UNL     1       2.585   7.769  18.529  0.00  0.00    +0.000 A 
ATOM      4  C   UNL     1       1.879   8.982  18.375  0.00  0.00    +0.000 A 
ATOM      5  F   UNL     1       2.003   9.699  17.249  0.00  0.00    +0.000 F 
ATOM      6  C   UNL     1       1.033   9.457  19.376  0.00  0.00    +0.000 A 
ATOM      7  C   UNL     1       0.903   8.740  20.562  0.00  0.00    +0.000 A 
ATOM      8  C   UNL     1       1.591   7.534  20.764  0.00  0.00    +0.000 A 
ATOM      9  C   UNL     1       2.405   7.056  19.717  0.00  0.00    +0.000 A 
ATOM     10  S   UNL     1       3.303   5.593  19.624  0.00  0.00    +0.000 S 
ENDROOT
BRANCH   1  17
ATOM     11  C   UNL     1       3.514   2.776  17.529  0.00  0.00    +0.000 C 
ATOM     12  C   UNL     1       4.531   3.736  17.038  0.00  0.00    +0.000 A 
ATOM     13  N   UNL     1       5.562   3.329  16.237  0.00  0.00    +0.000 N 
ATOM     14  N   UNL     1       6.360   4.322  15.830  0.00  0.00    +0.000 NA
ATOM     15  C   UNL     1       5.855   5.405  16.413  0.00  0.00    +0.000 A 
ATOM     16  N   UNL     1       6.425   6.605  16.261  0.00  0.00    +0.000 N 
ATOM     17  C   UNL     1       4.707   5.101  17.198  0.00  0.00    +0.000 A 
ATOM     18  H   UNL     1       5.778   2.387  15.926  0.00  0.00    +0.000 HD
ATOM     19  H   UNL     1       7.183   6.691  15.593  0.00  0.00    +0.000 HD
ATOM     20  H   UNL     1       5.984   7.470  16.539  0.00  0.00    +0.000 HD
ENDBRANCH   1  17
BRANCH   7  21
ATOM     21  S   UNL     1      -0.080   9.419  21.871  0.00  0.00    +0.000 S 
ATOM     22  O   UNL     1      -0.586  10.705  21.452  0.00  0.00    +0.000 OA
ATOM     23  O   UNL     1      -0.930   8.386  22.405  0.00  0.00    +0.000 OA
BRANCH  21  24
ATOM     24  N   UNL     1       1.070   9.734  23.052  0.00  0.00    +0.000 NA
ATOM     25  H   UNL     1       0.620  10.152  23.868  0.00  0.00    +0.000 HD
ATOM     26  H   UNL     1       1.581   8.879  23.272  0.00  0.00    +0.000 HD
ENDBRANCH  21  24
ENDBRANCH   7  21
TORSDOF 3
ENDMDL
MODEL 3
REMARK VINA RESULT:      -7.3      1.114      2.039
REMARK  Name = 
REMARK  4 active torsions:
REMARK  status: ('A' for Active; 'I' for Inactive)
REMARK    1  A    between atoms: C_1  and  C_2
REMARK    2  A    between atoms: C_7  and  C_8
REMARK    3  A    between atoms: C_14  and  S_15
REMARK    4  A    between atoms: S_15  and  N_16
REMARK                            x       y       z     vdW  Elec       q    Type
REMARK                         _______ _______ _______ _____ _____    ______ ____
ROOT
ATOM      1  C   UNL     1       2.624   5.333  19.141  0.00  0.00    +0.000 A 
ATOM      2  N   UNL     1       2.663   6.411  18.383  0.00  0.00    +0.000 NA
ATOM      3  C   UNL     1       2.057   7.485  19.024  0.00  0.00    +0.000 A 
ATOM      4  C   UNL     1       1.824   8.773  18.492  0.00  0.00    +0.000 A 
ATOM      5  F   UNL     1       2.192   9.064  17.237  0.00  0.00    +0.000 F 
ATOM      6  C   UNL     1       1.199   9.764  19.248  0.00  0.00    +0.000 A 
ATOM      7  C   UNL     1       0.826   9.492  20.562  0.00  0.00    +0.000 A 
ATOM      8  C   UNL     1       1.044   8.229  21.135  0.00  0.00    +0.000 A 
ATOM      9  C   UNL     1       1.637   7.235  20.332  0.00  0.00    +0.000 A 
ATOM     10  S   UNL     1       1.961   5.588  20.709  0.00  0.00    +0.000 S 
ENDROOT
BRANCH   1  17
ATOM     11  C   UNL     1       5.689   4.419  18.384  0.00  0.00    +0.000 C 
ATOM     12  C   UNL     1       4.408   3.677  18.312  0.00  0.00    +0.000 A 
ATOM     13  N   UNL     1       4.359   2.389  17.855  0.00  0.00    +0.000 N 
ATOM     14  N   UNL     1       3.141   1.838  17.907  0.00  0.00    +0.000 NA
ATOM     15  C   UNL     1       2.365   2.810  18.378  0.00  0.00    +0.000 A 
ATOM     16  N   UNL     1       1.049   2.633  18.533  0.00  0.00    +0.000 N 
ATOM     17  C   UNL     1       3.101   3.999  18.642  0.00  0.00    +0.000 A 
ATOM     18  H   UNL     1       5.122   1.823  17.497  0.00  0.00    +0.000 HD
ATOM     19  H   UNL     1       0.674   1.701  18.397  0.00  0.00    +0.000 HD
ATOM     20  H   UNL     1       0.457   3.274  19.043  0.00  0.00    +0.000 HD
ENDBRANCH   1  17
BRANCH   7  21
ATOM     21  S   UNL     1       0.146  10.798  21.548  0.00  0.00    +0.000 S 
ATOM     22  O   UNL     1      -1.080  11.252  20.935  0.00  0.00    +0.000 OA
ATOM     23  O   UNL     1       0.231  10.430  22.938  0.00  0.00    +0.000 OA
BRANCH  21  24
ATOM     24  N   UNL     1       1.262  12.030  21.322  0.00  0.00    +0.000 NA
ATOM     25  H   UNL     1       1.299  12.618  22.156  0.00  0.00    +0.000 HD
ATOM     26  H   UNL     1       2.169  11.633  21.074  0.00  0.00    +0.000 HD
ENDBRANCH  21  24
ENDBRANCH   7  21
TORSDOF 3
ENDMDL
MODEL 4
REMARK VINA RESULT:      -6.9      1.034      1.179
REMARK  Name = 
REMARK  4 active torsions:
REMARK  status: ('A' for Active; 'I' for Inactive)
REMARK    1  A    between atoms: C_1  and  C_2
REMARK    2  A    between atoms: C_7  and  C_8
REMARK    3  A    between atoms: C_14  and  S_15
REMARK    4  A    between atoms: S_15  and  N_16
REMARK                            x       y       z     vdW  Elec       q    Type
REMARK                         _______ _______ _______ _____ _____    ______ ____
ROOT
ATOM      1  C   UNL     1       2.519   5.440  19.022  0.00  0.00    +0.000 A 
ATOM      2  N   UNL     1       2.557   6.540  18.297  0.00  0.00    +0.000 NA
ATOM      3  C   UNL     1       1.970   7.599  18.980  0.00  0.00    +0.000 A 
ATOM      4  C   UNL     1       1.742   8.905  18.492  0.00  0.00    +0.000 A 
ATOM      5  F   UNL     1       2.095   9.231  17.241  0.00  0.00    +0.000 F 
ATOM      6  C   UNL     1       1.139   9.878  19.288  0.00  0.00    +0.000 A 
ATOM      7  C   UNL     1       0.782   9.568  20.598  0.00  0.00    +0.000 A 
ATOM      8  C   UNL     1       0.997   8.287  21.129  0.00  0.00    +0.000 A 
ATOM      9  C   UNL     1       1.568   7.312  20.287  0.00  0.00    +0.000 A 
ATOM     10  S   UNL     1       1.882   5.652  20.608  0.00  0.00    +0.000 S 
ENDROOT
BRANCH   1  17
ATOM     11  C   UNL     1       0.865   2.602  18.911  0.00  0.00    +0.000 C 
ATOM     12  C   UNL     1       2.242   2.941  18.481  0.00  0.00    +0.000 A 
ATOM     13  N   UNL     1       3.070   1.995  17.943  0.00  0.00    +0.000 N 
ATOM     14  N   UNL     1       4.258   2.471  17.550  0.00  0.00    +0.000 NA
ATOM     15  C   UNL     1       4.215   3.760  17.875  0.00  0.00    +0.000 A 
ATOM     16  N   UNL     1       5.261   4.564  17.661  0.00  0.00    +0.000 N 
ATOM     17  C   UNL     1       2.976   4.117  18.476  0.00  0.00    +0.000 A 
ATOM     18  H   UNL     1       2.887   1.006  17.811  0.00  0.00    +0.000 HD
ATOM     19  H   UNL     1       6.045   4.195  17.134  0.00  0.00    +0.000 HD
ATOM     20  H   UNL     1       5.213   5.571  17.730  0.00  0.00    +0.000 HD
ENDBRANCH   1  17
BRANCH   7  21
ATOM     21  S   UNL     1       0.129  10.850  21.633  0.00  0.00    +0.000 S 
ATOM     22  O   UNL     1      -1.117  11.313  21.069  0.00  0.00    +0.000 OA
ATOM     23  O   UNL     1       0.257  10.451  23.012  0.00  0.00    +0.000 OA
BRANCH  21  24
ATOM     24  N   UNL     1       1.235  12.090  21.402  0.00  0.00    +0.000 NA
ATOM     25  H   UNL     1       2.046  11.945  22.005  0.00  0.00    +0.000 HD
ATOM     26  H   UNL     1       1.480  12.155  20.413  0.00  0.00    +0.000 HD
ENDBRANCH  21  24
ENDBRANCH   7  21
TORSDOF 3
ENDMDL
MODEL 5
REMARK VINA RESULT:      -6.9      2.436      3.231
REMARK  Name = 
REMARK  4 active torsions:
REMARK  status: ('A' for Active; 'I' for Inactive)
REMARK    1  A    between atoms: C_1  and  C_2
REMARK    2  A    between atoms: C_7  and  C_8
REMARK    3  A    between atoms: C_14  and  S_15
REMARK    4  A    between atoms: S_15  and  N_16
REMARK                            x       y       z     vdW  Elec       q    Type
REMARK                         _______ _______ _______ _____ _____    ______ ____
ROOT
ATOM      1  C   UNL     1       2.897   6.135  19.235  0.00  0.00    +0.000 A 
ATOM      2  N   UNL     1       2.220   6.571  20.279  0.00  0.00    +0.000 NA
ATOM      3  C   UNL     1       1.776   7.871  20.068  0.00  0.00    +0.000 A 
ATOM      4  C   UNL     1       1.102   8.702  20.991  0.00  0.00    +0.000 A 
ATOM      5  F   UNL     1       0.834   8.260  22.228  0.00  0.00    +0.000 F 
ATOM      6  C   UNL     1       0.712   9.995  20.647  0.00  0.00    +0.000 A 
ATOM      7  C   UNL     1       0.962  10.469  19.362  0.00  0.00    +0.000 A 
ATOM      8  C   UNL     1       1.621   9.677  18.409  0.00  0.00    +0.000 A 
ATOM      9  C   UNL     1       2.043   8.391  18.799  0.00  0.00    +0.000 A 
ATOM     10  S   UNL     1       2.932   7.224  17.902  0.00  0.00    +0.000 S 
ENDROOT
BRANCH   1  17
ATOM     11  C   UNL     1       6.111   5.516  18.941  0.00  0.00    +0.000 C 
ATOM     12  C   UNL     1       4.956   4.601  19.089  0.00  0.00    +0.000 A 
ATOM     13  N   UNL     1       5.123   3.243  19.105  0.00  0.00    +0.000 N 
ATOM     14  N   UNL     1       3.992   2.557  19.305  0.00  0.00    +0.000 NA
ATOM     15  C   UNL     1       3.053   3.495  19.385  0.00  0.00    +0.000 A 
ATOM     16  N   UNL     1       1.765   3.175  19.550  0.00  0.00    +0.000 N 
ATOM     17  C   UNL     1       3.593   4.804  19.245  0.00  0.00    +0.000 A 
ATOM     18  H   UNL     1       5.984   2.718  18.989  0.00  0.00    +0.000 HD
ATOM     19  H   UNL     1       1.535   2.204  19.733  0.00  0.00    +0.000 HD
ATOM     20  H   UNL     1       1.050   3.848  19.787  0.00  0.00    +0.000 HD
ENDBRANCH   1  17
BRANCH   7  21
ATOM     21  S   UNL     1       0.350  12.068  18.904  0.00  0.00    +0.000 S 
ATOM     22  O   UNL     1      -0.857  11.899  18.131  0.00  0.00    +0.000 OA
ATOM     23  O   UNL     1       0.426  12.944  20.045  0.00  0.00    +0.000 OA
BRANCH  21  24
ATOM     24  N   UNL     1       1.522  12.601  17.828  0.00  0.00    +0.000 NA
ATOM     25  H   UNL     1       1.117  12.691  16.895  0.00  0.00    +0.000 HD
ATOM     26  H   UNL     1       1.934  13.470  18.170  0.00  0.00    +0.000 HD
ENDBRANCH  21  24
ENDBRANCH   7  21
TORSDOF 3
ENDMDL
MODEL 6
REMARK VINA RESULT:      -6.8      2.444      2.845
REMARK  Name = 
REMARK  4 active torsions:
REMARK  status: ('A' for Active; 'I' for Inactive)
REMARK    1  A    between atoms: C_1  and  C_2
REMARK    2  A    between atoms: C_7  and  C_8
REMARK    3  A    between atoms: C_14  and  S_15
REMARK    4  A    between atoms: S_15  and  N_16
REMARK                            x       y       z     vdW  Elec       q    Type
REMARK                         _______ _______ _______ _____ _____    ______ ____
ROOT
ATOM      1  C   UNL     1       2.616   6.355  19.468  0.00  0.00    +0.000 A 
ATOM      2  N   UNL     1       1.981   6.863  20.505  0.00  0.00    +0.000 NA
ATOM      3  C   UNL     1       1.572   8.165  20.241  0.00  0.00    +0.000 A 
ATOM      4  C   UNL     1       0.948   9.061  21.137  0.00  0.00    +0.000 A 
ATOM      5  F   UNL     1       0.699   8.690  22.401  0.00  0.00    +0.000 F 
ATOM      6  C   UNL     1       0.589  10.348  20.739  0.00  0.00    +0.000 A 
ATOM      7  C   UNL     1       0.819  10.749  19.426  0.00  0.00    +0.000 A 
ATOM      8  C   UNL     1       1.428   9.891  18.497  0.00  0.00    +0.000 A 
ATOM      9  C   UNL     1       1.820   8.613  18.941  0.00  0.00    +0.000 A 
ATOM     10  S   UNL     1       2.649   7.375  18.082  0.00  0.00    +0.000 S 
ENDROOT
BRANCH   1  17
ATOM     11  C   UNL     1       1.222   3.440  20.068  0.00  0.00    +0.000 C 
ATOM     12  C   UNL     1       2.635   3.807  19.814  0.00  0.00    +0.000 A 
ATOM     13  N   UNL     1       3.625   2.863  19.817  0.00  0.00    +0.000 N 
ATOM     14  N   UNL     1       4.836   3.342  19.512  0.00  0.00    +0.000 NA
ATOM     15  C   UNL     1       4.636   4.646  19.341  0.00  0.00    +0.000 A 
ATOM     16  N   UNL     1       5.648   5.471  19.056  0.00  0.00    +0.000 N 
ATOM     17  C   UNL     1       3.271   5.004  19.528  0.00  0.00    +0.000 A 
ATOM     18  H   UNL     1       3.542   1.871  20.015  0.00  0.00    +0.000 HD
ATOM     19  H   UNL     1       6.554   5.063  18.854  0.00  0.00    +0.000 HD
ATOM     20  H   UNL     1       5.519   6.426  18.750  0.00  0.00    +0.000 HD
ENDBRANCH   1  17
BRANCH   7  21
ATOM     21  S   UNL     1       0.245  12.343  18.904  0.00  0.00    +0.000 S 
ATOM     22  O   UNL     1      -0.482  12.954  19.992  0.00  0.00    +0.000 OA
ATOM     23  O   UNL     1       1.307  13.018  18.203  0.00  0.00    +0.000 OA
BRANCH  21  24
ATOM     24  N   UNL     1      -0.901  11.945  17.745  0.00  0.00    +0.000 NA
ATOM     25  H   UNL     1      -1.333  11.051  17.981  0.00  0.00    +0.000 HD
ATOM     26  H   UNL     1      -1.578  12.703  17.654  0.00  0.00    +0.000 HD
ENDBRANCH  21  24
ENDBRANCH   7  21
TORSDOF 3
ENDMDL
MODEL 7
REMARK VINA RESULT:      -6.8      4.350      7.398
REMARK  Name = 
REMARK  4 active torsions:
REMARK  status: ('A' for Active; 'I' for Inactive)
REMARK    1  A    between atoms: C_1  and  C_2
REMARK    2  A    between atoms: C_7  and  C_8
REMARK    3  A    between atoms: C_14  and  S_15
REMARK    4  A    between atoms: S_15  and  N_16
REMARK                            x       y       z     vdW  Elec       q    Type
REMARK                         _______ _______ _______ _____ _____    ______ ____
ROOT
ATOM      1  C   UNL     1       1.843   8.464  19.118  0.00  0.00    +0.000 A 
ATOM      2  N   UNL     1       2.179   7.358  19.752  0.00  0.00    +0.000 NA
ATOM      3  C   UNL     1       3.140   6.654  19.036  0.00  0.00    +0.000 A 
ATOM      4  C   UNL     1       3.674   5.384  19.348  0.00  0.00    +0.000 A 
ATOM      5  F   UNL     1       3.250   4.719  20.433  0.00  0.00    +0.000 F 
ATOM      6  C   UNL     1       4.640   4.788  18.538  0.00  0.00    +0.000 A 
ATOM      7  C   UNL     1       5.110   5.468  17.418  0.00  0.00    +0.000 A 
ATOM      8  C   UNL     1       4.616   6.735  17.073  0.00  0.00    +0.000 A 
ATOM      9  C   UNL     1       3.609   7.293  17.886  0.00  0.00    +0.000 A 
ATOM     10  S   UNL     1       2.753   8.771  17.689  0.00  0.00    +0.000 S 
ENDROOT
BRANCH   1  17
ATOM     11  C   UNL     1       1.116   9.286  22.216  0.00  0.00    +0.000 C 
ATOM     12  C   UNL     1       0.458   9.642  20.937  0.00  0.00    +0.000 A 
ATOM     13  N   UNL     1      -0.660  10.429  20.909  0.00  0.00    +0.000 N 
ATOM     14  N   UNL     1      -1.099  10.709  19.677  0.00  0.00    +0.000 NA
ATOM     15  C   UNL     1      -0.262  10.053  18.877  0.00  0.00    +0.000 A 
ATOM     16  N   UNL     1      -0.416  10.070  17.549  0.00  0.00    +0.000 N 
ATOM     17  C   UNL     1       0.735   9.351  19.610  0.00  0.00    +0.000 A 
ATOM     18  H   UNL     1      -1.173  10.815  21.696  0.00  0.00    +0.000 HD
ATOM     19  H   UNL     1      -1.114  10.693  17.158  0.00  0.00    +0.000 HD
ATOM     20  H   UNL     1       0.286   9.735  16.904  0.00  0.00    +0.000 HD
ENDBRANCH   1  17
BRANCH   7  21
ATOM     21  S   UNL     1       6.424   4.750  16.470  0.00  0.00    +0.000 S 
ATOM     22  O   UNL     1       5.916   3.590  15.776  0.00  0.00    +0.000 OA
ATOM     23  O   UNL     1       7.148   5.800  15.801  0.00  0.00    +0.000 OA
BRANCH  21  24
ATOM     24  N   UNL     1       7.447   4.166  17.665  0.00  0.00    +0.000 NA
ATOM     25  H   UNL     1       7.035   4.336  18.584  0.00  0.00    +0.000 HD
ATOM     26  H   UNL     1       7.648   3.180  17.495  0.00  0.00    +0.000 HD
ENDBRANCH  21  24
ENDBRANCH   7  21
TORSDOF 3
ENDMDL
MODEL 8
REMARK VINA RESULT:      -6.8      3.951      7.398
REMARK  Name = 
REMARK  4 active torsions:
REMARK  status: ('A' for Active; 'I' for Inactive)
REMARK    1  A    between atoms: C_1  and  C_2
REMARK    2  A    between atoms: C_7  and  C_8
REMARK    3  A    between atoms: C_14  and  S_15
REMARK    4  A    between atoms: S_15  and  N_16
REMARK                            x       y       z     vdW  Elec       q    Type
REMARK                         _______ _______ _______ _____ _____    ______ ____
ROOT
ATOM      1  C   UNL     1       0.965   9.204  19.220  0.00  0.00    +0.000 A 
ATOM      2  N   UNL     1       1.205   8.175  20.008  0.00  0.00    +0.000 NA
ATOM      3  C   UNL     1       2.166   7.341  19.447  0.00  0.00    +0.000 A 
ATOM      4  C   UNL     1       2.612   6.098  19.950  0.00  0.00    +0.000 A 
ATOM      5  F   UNL     1       2.094   5.599  21.081  0.00  0.00    +0.000 F 
ATOM      6  C   UNL     1       3.587   5.358  19.283  0.00  0.00    +0.000 A 
ATOM      7  C   UNL     1       4.156   5.865  18.117  0.00  0.00    +0.000 A 
ATOM      8  C   UNL     1       3.750   7.099  17.584  0.00  0.00    +0.000 A 
ATOM      9  C   UNL     1       2.731   7.803  18.256  0.00  0.00    +0.000 A 
ATOM     10  S   UNL     1       1.968   9.282  17.823  0.00  0.00    +0.000 S 
ENDROOT
BRANCH   1  17
ATOM     11  C   UNL     1      -1.601  10.060  17.353  0.00  0.00    +0.000 C 
ATOM     12  C   UNL     1      -1.166  10.540  18.686  0.00  0.00    +0.000 A 
ATOM     13  N   UNL     1      -1.859  11.515  19.350  0.00  0.00    +0.000 N 
ATOM     14  N   UNL     1      -1.375  11.796  20.565  0.00  0.00    +0.000 NA
ATOM     15  C   UNL     1      -0.312  11.006  20.682  0.00  0.00    +0.000 A 
ATOM     16  N   UNL     1       0.459  11.039  21.774  0.00  0.00    +0.000 N 
ATOM     17  C   UNL     1      -0.119  10.198  19.527  0.00  0.00    +0.000 A 
ATOM     18  H   UNL     1      -2.676  12.027  19.033  0.00  0.00    +0.000 HD
ATOM     19  H   UNL     1       0.146  11.594  22.562  0.00  0.00    +0.000 HD
ATOM     20  H   UNL     1       1.165  10.344  21.977  0.00  0.00    +0.000 HD
ENDBRANCH   1  17
BRANCH   7  21
ATOM     21  S   UNL     1       5.479   4.971  17.350  0.00  0.00    +0.000 S 
ATOM     22  O   UNL     1       4.920   4.041  16.396  0.00  0.00    +0.000 OA
ATOM     23  O   UNL     1       6.534   5.892  17.011  0.00  0.00    +0.000 OA
BRANCH  21  24
ATOM     24  N   UNL     1       6.062   4.041  18.619  0.00  0.00    +0.000 NA
ATOM     25  H   UNL     1       5.309   3.853  19.282  0.00  0.00    +0.000 HD
ATOM     26  H   UNL     1       6.493   3.191  18.254  0.00  0.00    +0.000 HD
ENDBRANCH  21  24
ENDBRANCH   7  21
TORSDOF 3
ENDMDL
MODEL 9
REMARK VINA RESULT:      -6.8      4.375      7.314
REMARK  Name = 
REMARK  4 active torsions:
REMARK  status: ('A' for Active; 'I' for Inactive)
REMARK    1  A    between atoms: C_1  and  C_2
REMARK    2  A    between atoms: C_7  and  C_8
REMARK    3  A    between atoms: C_14  and  S_15
REMARK    4  A    between atoms: S_15  and  N_16
REMARK                            x       y       z     vdW  Elec       q    Type
REMARK                         _______ _______ _______ _____ _____    ______ ____
ROOT
ATOM      1  C   UNL     1       1.824   8.398  19.350  0.00  0.00    +0.000 A 
ATOM      2  N   UNL     1       2.219   7.258  19.880  0.00  0.00    +0.000 NA
ATOM      3  C   UNL     1       3.084   6.590  19.020  0.00  0.00    +0.000 A 
ATOM      4  C   UNL     1       3.637   5.303  19.199  0.00  0.00    +0.000 A 
ATOM      5  F   UNL     1       3.334   4.581  20.287  0.00  0.00    +0.000 F 
ATOM      6  C   UNL     1       4.496   4.748  18.251  0.00  0.00    +0.000 A 
ATOM      7  C   UNL     1       4.841   5.486  17.122  0.00  0.00    +0.000 A 
ATOM      8  C   UNL     1       4.323   6.773  16.906  0.00  0.00    +0.000 A 
ATOM      9  C   UNL     1       3.423   7.289  17.859  0.00  0.00    +0.000 A 
ATOM     10  S   UNL     1       2.565   8.780  17.844  0.00  0.00    +0.000 S 
ENDROOT
BRANCH   1  17
ATOM     11  C   UNL     1      -0.636  10.072  17.953  0.00  0.00    +0.000 C 
ATOM     12  C   UNL     1      -0.212   9.969  19.369  0.00  0.00    +0.000 A 
ATOM     13  N   UNL     1      -0.867  10.652  20.356  0.00  0.00    +0.000 N 
ATOM     14  N   UNL     1      -0.403  10.408  21.587  0.00  0.00    +0.000 NA
ATOM     15  C   UNL     1       0.610   9.569  21.392  0.00  0.00    +0.000 A 
ATOM     16  N   UNL     1       1.351   9.127  22.414  0.00  0.00    +0.000 N 
ATOM     17  C   UNL     1       0.790   9.262  20.015  0.00  0.00    +0.000 A 
ATOM     18  H   UNL     1      -1.644  11.298  20.260  0.00  0.00    +0.000 HD
ATOM     19  H   UNL     1       1.047   9.352  23.355  0.00  0.00    +0.000 HD
ATOM     20  H   UNL     1       2.010   8.365  22.335  0.00  0.00    +0.000 HD
ENDBRANCH   1  17
BRANCH   7  21
ATOM     21  S   UNL     1       6.029   4.816  15.990  0.00  0.00    +0.000 S 
ATOM     22  O   UNL     1       5.722   3.423  15.766  0.00  0.00    +0.000 OA
ATOM     23  O   UNL     1       6.230   5.751  14.913  0.00  0.00    +0.000 OA
BRANCH  21  24
ATOM     24  N   UNL     1       7.439   4.842  16.899  0.00  0.00    +0.000 NA
ATOM     25  H   UNL     1       7.809   3.895  16.988  0.00  0.00    +0.000 HD
ATOM     26  H   UNL     1       8.106   5.493  16.483  0.00  0.00    +0.000 HD
ENDBRANCH  21  24
ENDBRANCH   7  21
TORSDOF 3
ENDMDL
