MODEL 1
REMARK VINA RESULT:      -8.1      0.000      0.000
REMARK  Name = 
REMARK  2 active torsions:
REMARK  status: ('A' for Active; 'I' for Inactive)
REMARK    1  A    between atoms: C_1  and  C_2
REMARK    2  A    between atoms: C_20  and  O_21
REMARK                            x       y       z     vdW  Elec       q    Type
REMARK                         _______ _______ _______ _____ _____    ______ ____
ROOT
ATOM      1  C   UNL     1       2.193   4.010  17.984  0.00  0.00    +0.000 C 
ATOM      2  C   UNL     1       3.281   4.702  18.848  0.00  0.00    +0.000 C 
ATOM      3  C   UNL     1       2.781   4.806  20.305  0.00  0.00    +0.000 C 
ATOM      4  C   UNL     1       1.682   5.893  20.492  0.00  0.00    +0.000 C 
ATOM      5  C   UNL     1       2.068   7.286  19.915  0.00  0.00    +0.000 C 
ATOM      6  C   UNL     1       0.929   8.371  20.073  0.00  0.00    +0.000 C 
ATOM      7  C   UNL     1       0.883   8.969  21.519  0.00  0.00    +0.000 C 
ATOM      8  C   UNL     1       1.050  10.497  21.687  0.00  0.00    +0.000 C 
ATOM      9  C   UNL     1       1.061  11.293  20.402  0.00  0.00    +0.000 C 
ATOM     10  O   UNL     1       1.582  12.400  20.312  0.00  0.00    +0.000 OA
ATOM     11  C   UNL     1       0.365  10.684  19.232  0.00  0.00    +0.000 C 
ATOM     12 CL   UNL     1      -1.374  10.737  19.513  0.00  0.00    +0.000 Cl
ATOM     13  C   UNL     1       0.909   9.470  19.018  0.00  0.00    +0.000 C 
ATOM     14  C   UNL     1       1.645   9.295  17.719  0.00  0.00    +0.000 C 
ATOM     15  C   UNL     1       2.910   8.476  17.883  0.00  0.00    +0.000 C 
ATOM     16  C   UNL     1       2.527   7.110  18.439  0.00  0.00    +0.000 C 
ATOM     17  C   UNL     1       3.687   6.117  18.389  0.00  0.00    +0.000 C 
ATOM     18  C   UNL     1       4.404   5.856  17.069  0.00  0.00    +0.000 C 
ATOM     19  C   UNL     1       5.274   4.632  17.399  0.00  0.00    +0.000 C 
ATOM     20  C   UNL     1       4.645   3.984  18.658  0.00  0.00    +0.000 C 
ENDROOT
BRANCH  20  21
ATOM     21  O   UNL     1       4.555   2.576  18.532  0.00  0.00    +0.000 OA
ATOM     22  H   UNL     1       4.549   2.184  19.423  0.00  0.00    +0.000 HD
ENDBRANCH  20  21
TORSDOF 1
ENDMDL
MODEL 2
REMARK VINA RESULT:      -8.0      2.199      6.674
REMARK  Name = 
REMARK  2 active torsions:
REMARK  status: ('A' for Active; 'I' for Inactive)
REMARK    1  A    between atoms: C_1  and  C_2
REMARK    2  A    between atoms: C_20  and  O_21
REMARK                            x       y       z     vdW  Elec       q    Type
REMARK                         _______ _______ _______ _____ _____    ______ ____
ROOT
ATOM      1  C   UNL     1      -0.947   9.881  19.100  0.00  0.00    +0.000 C 
ATOM      2  C   UNL     1       0.445  10.227  19.694  0.00  0.00    +0.000 C 
ATOM      3  C   UNL     1       1.440  10.475  18.540  0.00  0.00    +0.000 C 
ATOM      4  C   UNL     1       1.869   9.165  17.816  0.00  0.00    +0.000 C 
ATOM      5  C   UNL     1       2.371   8.050  18.779  0.00  0.00    +0.000 C 
ATOM      6  C   UNL     1       2.766   6.709  18.038  0.00  0.00    +0.000 C 
ATOM      7  C   UNL     1       4.184   6.797  17.380  0.00  0.00    +0.000 C 
ATOM      8  C   UNL     1       5.254   5.764  17.802  0.00  0.00    +0.000 C 
ATOM      9  C   UNL     1       4.759   4.644  18.689  0.00  0.00    +0.000 C 
ATOM     10  O   UNL     1       5.502   4.010  19.431  0.00  0.00    +0.000 OA
ATOM     11  C   UNL     1       3.309   4.309  18.596  0.00  0.00    +0.000 C 
ATOM     12 CL   UNL     1       3.006   3.519  17.050  0.00  0.00    +0.000 Cl
ATOM     13  C   UNL     1       2.611   5.431  18.853  0.00  0.00    +0.000 C 
ATOM     14  C   UNL     1       1.767   5.416  20.096  0.00  0.00    +0.000 C 
ATOM     15  C   UNL     1       1.808   6.739  20.834  0.00  0.00    +0.000 C 
ATOM     16  C   UNL     1       1.307   7.828  19.892  0.00  0.00    +0.000 C 
ATOM     17  C   UNL     1       1.054   9.150  20.615  0.00  0.00    +0.000 C 
ATOM     18  C   UNL     1       0.138   9.184  21.833  0.00  0.00    +0.000 C 
ATOM     19  C   UNL     1      -0.056  10.691  22.061  0.00  0.00    +0.000 C 
ATOM     20  C   UNL     1       0.311  11.381  20.724  0.00  0.00    +0.000 C 
ENDROOT
BRANCH  20  21
ATOM     21  O   UNL     1      -0.634  12.376  20.371  0.00  0.00    +0.000 OA
ATOM     22  H   UNL     1      -0.228  12.971  19.718  0.00  0.00    +0.000 HD
ENDBRANCH  20  21
TORSDOF 1
ENDMDL
MODEL 3
REMARK VINA RESULT:      -7.9      2.259      6.698
REMARK  Name = 
REMARK  2 active torsions:
REMARK  status: ('A' for Active; 'I' for Inactive)
REMARK    1  A    between atoms: C_1  and  C_2
REMARK    2  A    between atoms: C_20  and  O_21
REMARK                            x       y       z     vdW  Elec       q    Type
REMARK                         _______ _______ _______ _____ _____    ______ ____
ROOT
ATOM      1  C   UNL     1      -0.289   9.466  18.530  0.00  0.00    +0.000 C 
ATOM      2  C   UNL     1       1.085   9.624  19.232  0.00  0.00    +0.000 C 
ATOM      3  C   UNL     1       2.205   9.568  18.172  0.00  0.00    +0.000 C 
ATOM      4  C   UNL     1       2.447   8.132  17.619  0.00  0.00    +0.000 C 
ATOM      5  C   UNL     1       2.648   7.058  18.726  0.00  0.00    +0.000 C 
ATOM      6  C   UNL     1       2.851   5.596  18.157  0.00  0.00    +0.000 C 
ATOM      7  C   UNL     1       4.313   5.362  17.645  0.00  0.00    +0.000 C 
ATOM      8  C   UNL     1       5.132   4.209  18.270  0.00  0.00    +0.000 C 
ATOM      9  C   UNL     1       4.364   3.297  19.198  0.00  0.00    +0.000 C 
ATOM     10  O   UNL     1       4.909   2.627  20.069  0.00  0.00    +0.000 OA
ATOM     11  C   UNL     1       2.891   3.212  18.984  0.00  0.00    +0.000 C 
ATOM     12 CL   UNL     1       2.582   2.325  17.493  0.00  0.00    +0.000 Cl
ATOM     13  C   UNL     1       2.392   4.461  19.063  0.00  0.00    +0.000 C 
ATOM     14  C   UNL     1       1.456   4.729  20.207  0.00  0.00    +0.000 C 
ATOM     15  C   UNL     1       1.677   6.097  20.822  0.00  0.00    +0.000 C 
ATOM     16  C   UNL     1       1.469   7.147  19.737  0.00  0.00    +0.000 C 
ATOM     17  C   UNL     1       1.403   8.563  20.306  0.00  0.00    +0.000 C 
ATOM     18  C   UNL     1       0.407   8.889  21.414  0.00  0.00    +0.000 C 
ATOM     19  C   UNL     1       0.475  10.423  21.482  0.00  0.00    +0.000 C 
ATOM     20  C   UNL     1       1.078  10.889  20.134  0.00  0.00    +0.000 C 
ENDROOT
BRANCH  20  21
ATOM     21  O   UNL     1       0.368  11.989  19.595  0.00  0.00    +0.000 OA
ATOM     22  H   UNL     1       0.110  11.775  18.682  0.00  0.00    +0.000 HD
ENDBRANCH  20  21
TORSDOF 1
ENDMDL
MODEL 4
REMARK VINA RESULT:      -7.4      2.289      6.678
REMARK  Name = 
REMARK  2 active torsions:
REMARK  status: ('A' for Active; 'I' for Inactive)
REMARK    1  A    between atoms: C_1  and  C_2
REMARK    2  A    between atoms: C_20  and  O_21
REMARK                            x       y       z     vdW  Elec       q    Type
REMARK                         _______ _______ _______ _____ _____    ______ ____
ROOT
ATOM      1  C   UNL     1       1.145  12.019  21.145  0.00  0.00    +0.000 C 
ATOM      2  C   UNL     1      -0.073  11.101  20.859  0.00  0.00    +0.000 C 
ATOM      3  C   UNL     1      -0.138   9.995  21.934  0.00  0.00    +0.000 C 
ATOM      4  C   UNL     1       0.959   8.905  21.751  0.00  0.00    +0.000 C 
ATOM      5  C   UNL     1       1.020   8.308  20.316  0.00  0.00    +0.000 C 
ATOM      6  C   UNL     1       2.164   7.233  20.129  0.00  0.00    +0.000 C 
ATOM      7  C   UNL     1       1.757   5.835  20.706  0.00  0.00    +0.000 C 
ATOM      8  C   UNL     1       1.764   4.618  19.753  0.00  0.00    +0.000 C 
ATOM      9  C   UNL     1       2.346   4.872  18.381  0.00  0.00    +0.000 C 
ATOM     10  O   UNL     1       2.061   4.187  17.404  0.00  0.00    +0.000 OA
ATOM     11  C   UNL     1       3.328   5.987  18.268  0.00  0.00    +0.000 C 
ATOM     12 CL   UNL     1       4.828   5.507  19.060  0.00  0.00    +0.000 Cl
ATOM     13  C   UNL     1       2.733   7.107  18.721  0.00  0.00    +0.000 C 
ATOM     14  C   UNL     1       2.513   8.196  17.709  0.00  0.00    +0.000 C 
ATOM     15  C   UNL     1       1.173   8.882  17.885  0.00  0.00    +0.000 C 
ATOM     16  C   UNL     1       1.120   9.473  19.289  0.00  0.00    +0.000 C 
ATOM     17  C   UNL     1      -0.070  10.413  19.478  0.00  0.00    +0.000 C 
ATOM     18  C   UNL     1      -0.277  11.576  18.516  0.00  0.00    +0.000 C 
ATOM     19  C   UNL     1      -1.375  12.395  19.214  0.00  0.00    +0.000 C 
ATOM     20  C   UNL     1      -1.359  11.958  20.700  0.00  0.00    +0.000 C 
ENDROOT
BRANCH  20  21
ATOM     21  O   UNL     1      -1.433  13.071  21.574  0.00  0.00    +0.000 OA
ATOM     22  H   UNL     1      -1.985  13.755  21.158  0.00  0.00    +0.000 HD
ENDBRANCH  20  21
TORSDOF 1
ENDMDL
MODEL 5
REMARK VINA RESULT:      -7.3      1.505      2.900
REMARK  Name = 
REMARK  2 active torsions:
REMARK  status: ('A' for Active; 'I' for Inactive)
REMARK    1  A    between atoms: C_1  and  C_2
REMARK    2  A    between atoms: C_20  and  O_21
REMARK                            x       y       z     vdW  Elec       q    Type
REMARK                         _______ _______ _______ _____ _____    ______ ____
ROOT
ATOM      1  C   UNL     1       4.914   5.074  19.577  0.00  0.00    +0.000 C 
ATOM      2  C   UNL     1       3.521   4.743  18.979  0.00  0.00    +0.000 C 
ATOM      3  C   UNL     1       3.371   5.457  17.619  0.00  0.00    +0.000 C 
ATOM      4  C   UNL     1       3.149   6.992  17.762  0.00  0.00    +0.000 C 
ATOM      5  C   UNL     1       2.002   7.374  18.742  0.00  0.00    +0.000 C 
ATOM      6  C   UNL     1       1.811   8.934  18.912  0.00  0.00    +0.000 C 
ATOM      7  C   UNL     1       1.017   9.563  17.718  0.00  0.00    +0.000 C 
ATOM      8  C   UNL     1      -0.291  10.327  18.029  0.00  0.00    +0.000 C 
ATOM      9  C   UNL     1      -0.580  10.548  19.495  0.00  0.00    +0.000 C 
ATOM     10  O   UNL     1      -1.712  10.744  19.925  0.00  0.00    +0.000 OA
ATOM     11  C   UNL     1       0.595  10.557  20.414  0.00  0.00    +0.000 C 
ATOM     12 CL   UNL     1       1.517  12.034  20.144  0.00  0.00    +0.000 Cl
ATOM     13  C   UNL     1       1.251   9.393  20.253  0.00  0.00    +0.000 C 
ATOM     14  C   UNL     1       1.275   8.476  21.443  0.00  0.00    +0.000 C 
ATOM     15  C   UNL     1       1.106   7.021  21.051  0.00  0.00    +0.000 C 
ATOM     16  C   UNL     1       2.236   6.648  20.098  0.00  0.00    +0.000 C 
ATOM     17  C   UNL     1       2.316   5.142  19.855  0.00  0.00    +0.000 C 
ATOM     18  C   UNL     1       2.422   4.188  21.038  0.00  0.00    +0.000 C 
ATOM     19  C   UNL     1       2.755   2.850  20.359  0.00  0.00    +0.000 C 
ATOM     20  C   UNL     1       3.305   3.205  18.955  0.00  0.00    +0.000 C 
ENDROOT
BRANCH  20  21
ATOM     21  O   UNL     1       4.465   2.454  18.643  0.00  0.00    +0.000 OA
ATOM     22  H   UNL     1       4.372   1.565  19.025  0.00  0.00    +0.000 HD
ENDBRANCH  20  21
TORSDOF 1
ENDMDL
MODEL 6
REMARK VINA RESULT:      -7.3      4.428      5.990
REMARK  Name = 
REMARK  2 active torsions:
REMARK  status: ('A' for Active; 'I' for Inactive)
REMARK    1  A    between atoms: C_1  and  C_2
REMARK    2  A    between atoms: C_20  and  O_21
REMARK                            x       y       z     vdW  Elec       q    Type
REMARK                         _______ _______ _______ _____ _____    ______ ____
ROOT
ATOM      1  C   UNL     1       7.755   4.412  16.708  0.00  0.00    +0.000 C 
ATOM      2  C   UNL     1       6.505   5.087  16.083  0.00  0.00    +0.000 C 
ATOM      3  C   UNL     1       6.080   6.280  16.964  0.00  0.00    +0.000 C 
ATOM      4  C   UNL     1       5.403   5.840  18.295  0.00  0.00    +0.000 C 
ATOM      5  C   UNL     1       4.241   4.823  18.105  0.00  0.00    +0.000 C 
ATOM      6  C   UNL     1       3.587   4.351  19.465  0.00  0.00    +0.000 C 
ATOM      7  C   UNL     1       2.583   5.409  20.034  0.00  0.00    +0.000 C 
ATOM      8  C   UNL     1       1.120   4.975  20.279  0.00  0.00    +0.000 C 
ATOM      9  C   UNL     1       0.845   3.498  20.112  0.00  0.00    +0.000 C 
ATOM     10  O   UNL     1      -0.271   3.056  19.859  0.00  0.00    +0.000 OA
ATOM     11  C   UNL     1       2.001   2.577  20.308  0.00  0.00    +0.000 C 
ATOM     12 CL   UNL     1       2.411   2.535  22.021  0.00  0.00    +0.000 Cl
ATOM     13  C   UNL     1       2.976   2.955  19.459  0.00  0.00    +0.000 C 
ATOM     14  C   UNL     1       3.336   1.969  18.384  0.00  0.00    +0.000 C 
ATOM     15  C   UNL     1       3.604   2.644  17.053  0.00  0.00    +0.000 C 
ATOM     16  C   UNL     1       4.749   3.633  17.241  0.00  0.00    +0.000 C 
ATOM     17  C   UNL     1       5.277   4.169  15.911  0.00  0.00    +0.000 C 
ATOM     18  C   UNL     1       5.726   3.196  14.827  0.00  0.00    +0.000 C 
ATOM     19  C   UNL     1       6.424   4.121  13.817  0.00  0.00    +0.000 C 
ATOM     20  C   UNL     1       6.773   5.417  14.589  0.00  0.00    +0.000 C 
ENDROOT
BRANCH  20  21
ATOM     21  O   UNL     1       8.091   5.853  14.311  0.00  0.00    +0.000 OA
ATOM     22  H   UNL     1       8.308   6.588  14.912  0.00  0.00    +0.000 HD
ENDBRANCH  20  21
TORSDOF 1
ENDMDL
MODEL 7
REMARK VINA RESULT:      -6.8      8.690      9.903
REMARK  Name = 
REMARK  2 active torsions:
REMARK  status: ('A' for Active; 'I' for Inactive)
REMARK    1  A    between atoms: C_1  and  C_2
REMARK    2  A    between atoms: C_20  and  O_21
REMARK                            x       y       z     vdW  Elec       q    Type
REMARK                         _______ _______ _______ _____ _____    ______ ____
ROOT
ATOM      1  C   UNL     1      12.191  12.131  20.022  0.00  0.00    +0.000 C 
ATOM      2  C   UNL     1      10.885  12.700  19.408  0.00  0.00    +0.000 C 
ATOM      3  C   UNL     1      10.814  14.217  19.683  0.00  0.00    +0.000 C 
ATOM      4  C   UNL     1      10.478  14.550  21.167  0.00  0.00    +0.000 C 
ATOM      5  C   UNL     1       9.223  13.808  21.710  0.00  0.00    +0.000 C 
ATOM      6  C   UNL     1       8.914  14.120  23.230  0.00  0.00    +0.000 C 
ATOM      7  C   UNL     1       8.194  15.498  23.412  0.00  0.00    +0.000 C 
ATOM      8  C   UNL     1       6.816  15.518  24.112  0.00  0.00    +0.000 C 
ATOM      9  C   UNL     1       6.378  14.205  24.720  0.00  0.00    +0.000 C 
ATOM     10  O   UNL     1       5.201  13.931  24.928  0.00  0.00    +0.000 OA
ATOM     11  C   UNL     1       7.459  13.251  25.100  0.00  0.00    +0.000 C 
ATOM     12 CL   UNL     1       8.303  13.881  26.513  0.00  0.00    +0.000 Cl
ATOM     13  C   UNL     1       8.203  13.016  24.003  0.00  0.00    +0.000 C 
ATOM     14  C   UNL     1       8.178  11.609  23.475  0.00  0.00    +0.000 C 
ATOM     15  C   UNL     1       8.142  11.565  21.960  0.00  0.00    +0.000 C 
ATOM     16  C   UNL     1       9.378  12.285  21.431  0.00  0.00    +0.000 C 
ATOM     17  C   UNL     1       9.580  12.067  19.933  0.00  0.00    +0.000 C 
ATOM     18  C   UNL     1       9.638  10.650  19.374  0.00  0.00    +0.000 C 
ATOM     19  C   UNL     1      10.121  10.880  17.933  0.00  0.00    +0.000 C 
ATOM     20  C   UNL     1      10.774  12.284  17.916  0.00  0.00    +0.000 C 
ENDROOT
BRANCH  20  21
ATOM     21  O   UNL     1      12.006  12.280  17.216  0.00  0.00    +0.000 OA
ATOM     22  H   UNL     1      11.820  12.215  16.263  0.00  0.00    +0.000 HD
ENDBRANCH  20  21
TORSDOF 1
ENDMDL
MODEL 8
REMARK VINA RESULT:      -6.7      8.936     10.053
REMARK  Name = 
REMARK  2 active torsions:
REMARK  status: ('A' for Active; 'I' for Inactive)
REMARK    1  A    between atoms: C_1  and  C_2
REMARK    2  A    between atoms: C_20  and  O_21
REMARK                            x       y       z     vdW  Elec       q    Type
REMARK                         _______ _______ _______ _____ _____    ______ ____
ROOT
ATOM      1  C   UNL     1       9.461  12.652  18.093  0.00  0.00    +0.000 C 
ATOM      2  C   UNL     1      10.596  12.451  19.133  0.00  0.00    +0.000 C 
ATOM      3  C   UNL     1      10.323  11.164  19.939  0.00  0.00    +0.000 C 
ATOM      4  C   UNL     1       9.163  11.325  20.965  0.00  0.00    +0.000 C 
ATOM      5  C   UNL     1       9.311  12.565  21.893  0.00  0.00    +0.000 C 
ATOM      6  C   UNL     1       8.107  12.744  22.903  0.00  0.00    +0.000 C 
ATOM      7  C   UNL     1       8.229  11.788  24.138  0.00  0.00    +0.000 C 
ATOM      8  C   UNL     1       8.265  12.417  25.550  0.00  0.00    +0.000 C 
ATOM      9  C   UNL     1       7.993  13.902  25.606  0.00  0.00    +0.000 C 
ATOM     10  O   UNL     1       8.380  14.612  26.529  0.00  0.00    +0.000 OA
ATOM     11  C   UNL     1       7.188  14.477  24.491  0.00  0.00    +0.000 C 
ATOM     12 CL   UNL     1       5.518  13.938  24.659  0.00  0.00    +0.000 Cl
ATOM     13  C   UNL     1       7.811  14.174  23.336  0.00  0.00    +0.000 C 
ATOM     14  C   UNL     1       8.347  15.336  22.549  0.00  0.00    +0.000 C 
ATOM     15  C   UNL     1       9.699  15.036  21.931  0.00  0.00    +0.000 C 
ATOM     16  C   UNL     1       9.548  13.827  21.015  0.00  0.00    +0.000 C 
ATOM     17  C   UNL     1      10.780  13.605  20.139  0.00  0.00    +0.000 C 
ATOM     18  C   UNL     1      11.303  14.740  19.267  0.00  0.00    +0.000 C 
ATOM     19  C   UNL     1      12.333  14.027  18.375  0.00  0.00    +0.000 C 
ATOM     20  C   UNL     1      11.979  12.521  18.428  0.00  0.00    +0.000 C 
ENDROOT
BRANCH  20  21
ATOM     21  O   UNL     1      12.012  11.929  17.142  0.00  0.00    +0.000 OA
ATOM     22  H   UNL     1      12.845  11.435  17.049  0.00  0.00    +0.000 HD
ENDBRANCH  20  21
TORSDOF 1
ENDMDL
MODEL 9
REMARK VINA RESULT:      -6.4      4.244      6.956
REMARK  Name = 
REMARK  2 active torsions:
REMARK  status: ('A' for Active; 'I' for Inactive)
REMARK    1  A    between atoms: C_1  and  C_2
REMARK    2  A    between atoms: C_20  and  O_21
REMARK                            x       y       z     vdW  Elec       q    Type
REMARK                         _______ _______ _______ _____ _____    ______ ____
ROOT
ATOM      1  C   UNL     1       1.424  12.057  19.052  0.00  0.00    +0.000 C 
ATOM      2  C   UNL     1       0.300  10.989  18.966  0.00  0.00    +0.000 C 
ATOM      3  C   UNL     1      -0.909  11.587  18.217  0.00  0.00    +0.000 C 
ATOM      4  C   UNL     1      -1.703  12.619  19.071  0.00  0.00    +0.000 C 
ATOM      5  C   UNL     1      -2.101  12.096  20.481  0.00  0.00    +0.000 C 
ATOM      6  C   UNL     1      -2.870  13.165  21.357  0.00  0.00    +0.000 C 
ATOM      7  C   UNL     1      -4.380  13.276  20.957  0.00  0.00    +0.000 C 
ATOM      8  C   UNL     1      -5.447  13.016  22.046  0.00  0.00    +0.000 C 
ATOM      9  C   UNL     1      -4.914  12.855  23.451  0.00  0.00    +0.000 C 
ATOM     10  O   UNL     1      -5.527  12.253  24.327  0.00  0.00    +0.000 OA
ATOM     11  C   UNL     1      -3.605  13.504  23.747  0.00  0.00    +0.000 C 
ATOM     12 CL   UNL     1      -3.832  15.251  23.793  0.00  0.00    +0.000 Cl
ATOM     13  C   UNL     1      -2.704  13.031  22.865  0.00  0.00    +0.000 C 
ATOM     14  C   UNL     1      -1.580  12.216  23.440  0.00  0.00    +0.000 C 
ATOM     15  C   UNL     1      -1.230  11.026  22.568  0.00  0.00    +0.000 C 
ATOM     16  C   UNL     1      -0.831  11.543  21.190  0.00  0.00    +0.000 C 
ATOM     17  C   UNL     1      -0.205  10.454  20.321  0.00  0.00    +0.000 C 
ATOM     18  C   UNL     1       0.988   9.661  20.842  0.00  0.00    +0.000 C 
ATOM     19  C   UNL     1       1.459   8.906  19.589  0.00  0.00    +0.000 C 
ATOM     20  C   UNL     1       0.867   9.668  18.378  0.00  0.00    +0.000 C 
ENDROOT
BRANCH  20  21
ATOM     21  O   UNL     1       1.827   9.847  17.352  0.00  0.00    +0.000 OA
ATOM     22  H   UNL     1       1.521  10.557  16.761  0.00  0.00    +0.000 HD
ENDBRANCH  20  21
TORSDOF 1
ENDMDL
