MODEL 1
REMARK VINA RESULT:      -7.7      0.000      0.000
REMARK  Name = 
REMARK  9 active torsions:
REMARK  status: ('A' for Active; 'I' for Inactive)
REMARK    1  A    between atoms: C_1  and  O_2
REMARK    2  A    between atoms: O_2  and  C_3
REMARK    3  A    between atoms: C_6  and  S_7
REMARK    4  A    between atoms: S_7  and  N_10
REMARK    5  A    between atoms: N_10  and  N_11
REMARK    6  A    between atoms: C_12  and  C_14
REMARK    7  A    between atoms: C_14  and  N_15
REMARK    8  A    between atoms: C_14  and  C_16
REMARK    9  A    between atoms: C_16  and  C_17
REMARK                            x       y       z     vdW  Elec       q    Type
REMARK                         _______ _______ _______ _____ _____    ______ ____
ROOT
ATOM      1  N   UNL     1       5.877   3.585  18.762  0.00  0.00    +0.000 N 
ATOM      2  C   UNL     1       6.340   4.865  19.016  0.00  0.00    +0.000 C 
ATOM      3  O   UNL     1       5.833   5.602  19.861  0.00  0.00    +0.000 OA
ATOM      4  H   UNL     1       6.253   3.011  18.009  0.00  0.00    +0.000 HD
ENDROOT
BRANCH   1   5
ATOM      5  N   UNL     1       4.858   2.999  19.612  0.00  0.00    +0.000 NA
ATOM      6  H   UNL     1       5.132   2.563  20.498  0.00  0.00    +0.000 HD
BRANCH   5   7
ATOM      7  S   UNL     1       3.271   2.951  19.045  0.00  0.00    +0.000 S 
ATOM      8  O   UNL     1       2.491   2.226  20.025  0.00  0.00    +0.000 OA
ATOM      9  O   UNL     1       3.317   2.510  17.666  0.00  0.00    +0.000 OA
BRANCH   7  13
ATOM     10  C   UNL     1       2.109   7.368  19.110  0.00  0.00    +0.000 A 
ATOM     11  C   UNL     1       2.002   6.589  20.267  0.00  0.00    +0.000 A 
ATOM     12  C   UNL     1       2.332   5.231  20.248  0.00  0.00    +0.000 A 
ATOM     13  C   UNL     1       2.744   4.645  19.051  0.00  0.00    +0.000 A 
ATOM     14  C   UNL     1       2.832   5.408  17.882  0.00  0.00    +0.000 A 
ATOM     15  C   UNL     1       2.514   6.773  17.914  0.00  0.00    +0.000 A 
BRANCH  10  17
ATOM     16  C   UNL     1       1.846   9.490  18.091  0.00  0.00    +0.000 C 
ATOM     17  O   UNL     1       1.761   8.682  19.260  0.00  0.00    +0.000 OA
ENDBRANCH  10  17
ENDBRANCH   7  13
ENDBRANCH   5   7
ENDBRANCH   1   5
BRANCH   2  18
ATOM     18  C   UNL     1       7.463   5.301  18.046  0.00  0.00    +0.000 C 
BRANCH  18  19
ATOM     19  N   UNL     1       8.122   4.089  17.486  0.00  0.00    +0.000 NA
ATOM     20  H   UNL     1       9.100   4.084  17.786  0.00  0.00    +0.000 HD
ATOM     21  H   UNL     1       8.141   4.144  16.469  0.00  0.00    +0.000 HD
ENDBRANCH  18  19
BRANCH  18  22
ATOM     22  C   UNL     1       6.908   6.169  16.909  0.00  0.00    +0.000 C 
BRANCH  22  23
ATOM     23  C   UNL     1       6.580   5.398  15.675  0.00  0.00    +0.000 A 
ATOM     24  C   UNL     1       5.402   4.756  15.356  0.00  0.00    +0.000 A 
ATOM     25  N   UNL     1       5.614   4.201  14.126  0.00  0.00    +0.000 N 
ATOM     26  C   UNL     1       6.889   4.514  13.750  0.00  0.00    +0.000 A 
ATOM     27  N   UNL     1       7.498   5.234  14.665  0.00  0.00    +0.000 NA
ATOM     28  H   UNL     1       4.953   3.657  13.588  0.00  0.00    +0.000 HD
ENDBRANCH  22  23
ENDBRANCH  18  22
ENDBRANCH   2  18
TORSDOF 8
ENDMDL
MODEL 2
REMARK VINA RESULT:      -7.1      0.986      1.595
REMARK  Name = 
REMARK  9 active torsions:
REMARK  status: ('A' for Active; 'I' for Inactive)
REMARK    1  A    between atoms: C_1  and  O_2
REMARK    2  A    between atoms: O_2  and  C_3
REMARK    3  A    between atoms: C_6  and  S_7
REMARK    4  A    between atoms: S_7  and  N_10
REMARK    5  A    between atoms: N_10  and  N_11
REMARK    6  A    between atoms: C_12  and  C_14
REMARK    7  A    between atoms: C_14  and  N_15
REMARK    8  A    between atoms: C_14  and  C_16
REMARK    9  A    between atoms: C_16  and  C_17
REMARK                            x       y       z     vdW  Elec       q    Type
REMARK                         _______ _______ _______ _____ _____    ______ ____
ROOT
ATOM      1  N   UNL     1       4.870   3.313  17.844  0.00  0.00    +0.000 N 
ATOM      2  C   UNL     1       5.861   4.233  18.142  0.00  0.00    +0.000 C 
ATOM      3  O   UNL     1       6.089   4.618  19.288  0.00  0.00    +0.000 OA
ATOM      4  H   UNL     1       4.636   3.058  16.885  0.00  0.00    +0.000 HD
ENDROOT
BRANCH   1   5
ATOM      5  N   UNL     1       4.157   2.639  18.913  0.00  0.00    +0.000 NA
ATOM      6  H   UNL     1       4.650   1.950  19.489  0.00  0.00    +0.000 HD
BRANCH   5   7
ATOM      7  S   UNL     1       2.506   2.933  19.086  0.00  0.00    +0.000 S 
ATOM      8  O   UNL     1       2.103   2.359  20.352  0.00  0.00    +0.000 OA
ATOM      9  O   UNL     1       1.862   2.526  17.853  0.00  0.00    +0.000 OA
BRANCH   7  13
ATOM     10  C   UNL     1       1.969   7.461  19.352  0.00  0.00    +0.000 A 
ATOM     11  C   UNL     1       2.282   6.854  18.131  0.00  0.00    +0.000 A 
ATOM     12  C   UNL     1       2.472   5.472  18.047  0.00  0.00    +0.000 A 
ATOM     13  C   UNL     1       2.377   4.698  19.204  0.00  0.00    +0.000 A 
ATOM     14  C   UNL     1       2.089   5.297  20.435  0.00  0.00    +0.000 A 
ATOM     15  C   UNL     1       1.885   6.681  20.507  0.00  0.00    +0.000 A 
BRANCH  10  17
ATOM     16  C   UNL     1       1.842   9.405  18.005  0.00  0.00    +0.000 C 
ATOM     17  O   UNL     1       1.804   8.818  19.301  0.00  0.00    +0.000 OA
ENDBRANCH  10  17
ENDBRANCH   7  13
ENDBRANCH   5   7
ENDBRANCH   1   5
BRANCH   2  18
ATOM     18  C   UNL     1       6.548   4.805  16.881  0.00  0.00    +0.000 C 
BRANCH  18  19
ATOM     19  N   UNL     1       7.867   4.140  16.698  0.00  0.00    +0.000 NA
ATOM     20  H   UNL     1       7.844   3.236  17.175  0.00  0.00    +0.000 HD
ATOM     21  H   UNL     1       8.595   4.682  17.161  0.00  0.00    +0.000 HD
ENDBRANCH  18  19
BRANCH  18  22
ATOM     22  C   UNL     1       5.679   4.600  15.633  0.00  0.00    +0.000 C 
BRANCH  22  23
ATOM     23  C   UNL     1       6.454   4.608  14.359  0.00  0.00    +0.000 A 
ATOM     24  C   UNL     1       6.289   3.802  13.252  0.00  0.00    +0.000 A 
ATOM     25  N   UNL     1       7.246   4.205  12.364  0.00  0.00    +0.000 N 
ATOM     26  C   UNL     1       7.949   5.217  12.952  0.00  0.00    +0.000 A 
ATOM     27  N   UNL     1       7.496   5.482  14.156  0.00  0.00    +0.000 NA
ATOM     28  H   UNL     1       7.409   3.827  11.441  0.00  0.00    +0.000 HD
ENDBRANCH  22  23
ENDBRANCH  18  22
ENDBRANCH   2  18
TORSDOF 8
ENDMDL
MODEL 3
REMARK VINA RESULT:      -7.1      0.826      1.425
REMARK  Name = 
REMARK  9 active torsions:
REMARK  status: ('A' for Active; 'I' for Inactive)
REMARK    1  A    between atoms: C_1  and  O_2
REMARK    2  A    between atoms: O_2  and  C_3
REMARK    3  A    between atoms: C_6  and  S_7
REMARK    4  A    between atoms: S_7  and  N_10
REMARK    5  A    between atoms: N_10  and  N_11
REMARK    6  A    between atoms: C_12  and  C_14
REMARK    7  A    between atoms: C_14  and  N_15
REMARK    8  A    between atoms: C_14  and  C_16
REMARK    9  A    between atoms: C_16  and  C_17
REMARK                            x       y       z     vdW  Elec       q    Type
REMARK                         _______ _______ _______ _____ _____    ______ ____
ROOT
ATOM      1  N   UNL     1       5.794   3.619  18.568  0.00  0.00    +0.000 N 
ATOM      2  C   UNL     1       6.376   4.826  18.915  0.00  0.00    +0.000 C 
ATOM      3  O   UNL     1       5.977   5.511  19.857  0.00  0.00    +0.000 OA
ATOM      4  H   UNL     1       6.080   3.096  17.742  0.00  0.00    +0.000 HD
ENDROOT
BRANCH   1   5
ATOM      5  N   UNL     1       4.774   3.032  19.417  0.00  0.00    +0.000 NA
ATOM      6  H   UNL     1       5.055   2.498  20.245  0.00  0.00    +0.000 HD
BRANCH   5   7
ATOM      7  S   UNL     1       3.163   3.151  18.935  0.00  0.00    +0.000 S 
ATOM      8  O   UNL     1       2.383   2.353  19.857  0.00  0.00    +0.000 OA
ATOM      9  O   UNL     1       3.116   2.890  17.511  0.00  0.00    +0.000 OA
BRANCH   7  13
ATOM     10  C   UNL     1       1.905   7.505  19.502  0.00  0.00    +0.000 A 
ATOM     11  C   UNL     1       2.484   7.085  18.299  0.00  0.00    +0.000 A 
ATOM     12  C   UNL     1       2.893   5.760  18.128  0.00  0.00    +0.000 A 
ATOM     13  C   UNL     1       2.749   4.858  19.183  0.00  0.00    +0.000 A 
ATOM     14  C   UNL     1       2.194   5.273  20.398  0.00  0.00    +0.000 A 
ATOM     15  C   UNL     1       1.771   6.600  20.556  0.00  0.00    +0.000 A 
BRANCH  10  17
ATOM     16  C   UNL     1       0.873   9.254  20.723  0.00  0.00    +0.000 C 
ATOM     17  O   UNL     1       1.543   8.824  19.542  0.00  0.00    +0.000 OA
ENDBRANCH  10  17
ENDBRANCH   7  13
ENDBRANCH   5   7
ENDBRANCH   1   5
BRANCH   2  18
ATOM     18  C   UNL     1       7.479   5.268  17.926  0.00  0.00    +0.000 C 
BRANCH  18  19
ATOM     19  N   UNL     1       8.209   4.065  17.441  0.00  0.00    +0.000 NA
ATOM     20  H   UNL     1       9.201   4.176  17.662  0.00  0.00    +0.000 HD
ATOM     21  H   UNL     1       8.153   4.012  16.425  0.00  0.00    +0.000 HD
ENDBRANCH  18  19
BRANCH  18  22
ATOM     22  C   UNL     1       6.885   6.037  16.739  0.00  0.00    +0.000 C 
BRANCH  22  23
ATOM     23  C   UNL     1       6.601   5.177  15.554  0.00  0.00    +0.000 A 
ATOM     24  C   UNL     1       7.245   5.163  14.334  0.00  0.00    +0.000 A 
ATOM     25  N   UNL     1       6.605   4.204  13.599  0.00  0.00    +0.000 N 
ATOM     26  C   UNL     1       5.612   3.685  14.379  0.00  0.00    +0.000 A 
ATOM     27  N   UNL     1       5.583   4.252  15.563  0.00  0.00    +0.000 NA
ATOM     28  H   UNL     1       6.822   3.928  12.651  0.00  0.00    +0.000 HD
ENDBRANCH  22  23
ENDBRANCH  18  22
ENDBRANCH   2  18
TORSDOF 8
ENDMDL
MODEL 4
REMARK VINA RESULT:      -6.8      2.433      6.065
REMARK  Name = 
REMARK  9 active torsions:
REMARK  status: ('A' for Active; 'I' for Inactive)
REMARK    1  A    between atoms: C_1  and  O_2
REMARK    2  A    between atoms: O_2  and  C_3
REMARK    3  A    between atoms: C_6  and  S_7
REMARK    4  A    between atoms: S_7  and  N_10
REMARK    5  A    between atoms: N_10  and  N_11
REMARK    6  A    between atoms: C_12  and  C_14
REMARK    7  A    between atoms: C_14  and  N_15
REMARK    8  A    between atoms: C_14  and  C_16
REMARK    9  A    between atoms: C_16  and  C_17
REMARK                            x       y       z     vdW  Elec       q    Type
REMARK                         _______ _______ _______ _____ _____    ______ ____
ROOT
ATOM      1  N   UNL     1       4.251   3.257  19.992  0.00  0.00    +0.000 N 
ATOM      2  C   UNL     1       3.249   2.351  19.690  0.00  0.00    +0.000 C 
ATOM      3  O   UNL     1       3.291   1.617  18.703  0.00  0.00    +0.000 OA
ATOM      4  H   UNL     1       4.173   3.914  20.768  0.00  0.00    +0.000 HD
ENDROOT
BRANCH   1   5
ATOM      5  N   UNL     1       5.484   3.261  19.228  0.00  0.00    +0.000 NA
ATOM      6  H   UNL     1       5.988   2.381  19.081  0.00  0.00    +0.000 HD
BRANCH   5   7
ATOM      7  S   UNL     1       6.103   4.743  18.713  0.00  0.00    +0.000 S 
ATOM      8  O   UNL     1       7.463   4.827  19.201  0.00  0.00    +0.000 OA
ATOM      9  O   UNL     1       5.132   5.761  19.057  0.00  0.00    +0.000 OA
BRANCH   7  13
ATOM     10  C   UNL     1       6.317   4.235  14.179  0.00  0.00    +0.000 A 
ATOM     11  C   UNL     1       7.343   4.892  14.869  0.00  0.00    +0.000 A 
ATOM     12  C   UNL     1       7.272   5.072  16.253  0.00  0.00    +0.000 A 
ATOM     13  C   UNL     1       6.149   4.617  16.945  0.00  0.00    +0.000 A 
ATOM     14  C   UNL     1       5.106   3.981  16.262  0.00  0.00    +0.000 A 
ATOM     15  C   UNL     1       5.193   3.791  14.876  0.00  0.00    +0.000 A 
BRANCH  10  17
ATOM     16  C   UNL     1       5.674   3.180  12.158  0.00  0.00    +0.000 C 
ATOM     17  O   UNL     1       6.508   4.119  12.829  0.00  0.00    +0.000 OA
ENDBRANCH  10  17
ENDBRANCH   7  13
ENDBRANCH   5   7
ENDBRANCH   1   5
BRANCH   2  18
ATOM     18  C   UNL     1       2.037   2.454  20.644  0.00  0.00    +0.000 C 
BRANCH  18  19
ATOM     19  N   UNL     1       2.507   2.900  21.984  0.00  0.00    +0.000 NA
ATOM     20  H   UNL     1       3.504   3.118  21.924  0.00  0.00    +0.000 HD
ATOM     21  H   UNL     1       2.427   2.133  22.651  0.00  0.00    +0.000 HD
ENDBRANCH  18  19
BRANCH  18  22
ATOM     22  C   UNL     1       0.987   3.433  20.103  0.00  0.00    +0.000 C 
BRANCH  22  23
ATOM     23  C   UNL     1       1.565   4.721  19.619  0.00  0.00    +0.000 A 
ATOM     24  C   UNL     1       1.872   5.849  20.350  0.00  0.00    +0.000 A 
ATOM     25  N   UNL     1       2.368   6.743  19.443  0.00  0.00    +0.000 N 
ATOM     26  C   UNL     1       2.340   6.142  18.217  0.00  0.00    +0.000 A 
ATOM     27  N   UNL     1       1.860   4.922  18.291  0.00  0.00    +0.000 NA
ATOM     28  H   UNL     1       2.694   7.680  19.638  0.00  0.00    +0.000 HD
ENDBRANCH  22  23
ENDBRANCH  18  22
ENDBRANCH   2  18
TORSDOF 8
ENDMDL
MODEL 5
REMARK VINA RESULT:      -6.7      1.826      2.228
REMARK  Name = 
REMARK  9 active torsions:
REMARK  status: ('A' for Active; 'I' for Inactive)
REMARK    1  A    between atoms: C_1  and  O_2
REMARK    2  A    between atoms: O_2  and  C_3
REMARK    3  A    between atoms: C_6  and  S_7
REMARK    4  A    between atoms: S_7  and  N_10
REMARK    5  A    between atoms: N_10  and  N_11
REMARK    6  A    between atoms: C_12  and  C_14
REMARK    7  A    between atoms: C_14  and  N_15
REMARK    8  A    between atoms: C_14  and  C_16
REMARK    9  A    between atoms: C_16  and  C_17
REMARK                            x       y       z     vdW  Elec       q    Type
REMARK                         _______ _______ _______ _____ _____    ______ ____
ROOT
ATOM      1  N   UNL     1       5.009   5.636  18.584  0.00  0.00    +0.000 N 
ATOM      2  C   UNL     1       6.374   5.406  18.630  0.00  0.00    +0.000 C 
ATOM      3  O   UNL     1       7.009   5.377  19.684  0.00  0.00    +0.000 OA
ATOM      4  H   UNL     1       4.505   5.735  17.704  0.00  0.00    +0.000 HD
ENDROOT
BRANCH   1   5
ATOM      5  N   UNL     1       4.239   5.693  19.812  0.00  0.00    +0.000 NA
ATOM      6  H   UNL     1       4.728   5.731  20.711  0.00  0.00    +0.000 HD
BRANCH   5   7
ATOM      7  S   UNL     1       2.560   5.572  19.711  0.00  0.00    +0.000 S 
ATOM      8  O   UNL     1       2.085   5.166  21.017  0.00  0.00    +0.000 OA
ATOM      9  O   UNL     1       2.252   4.782  18.536  0.00  0.00    +0.000 OA
BRANCH   7  13
ATOM     10  C   UNL     1       1.333   9.910  18.983  0.00  0.00    +0.000 A 
ATOM     11  C   UNL     1       1.116   9.311  20.229  0.00  0.00    +0.000 A 
ATOM     12  C   UNL     1       1.467   7.977  20.451  0.00  0.00    +0.000 A 
ATOM     13  C   UNL     1       2.011   7.230  19.405  0.00  0.00    +0.000 A 
ATOM     14  C   UNL     1       2.209   7.811  18.149  0.00  0.00    +0.000 A 
ATOM     15  C   UNL     1       1.869   9.155  17.939  0.00  0.00    +0.000 A 
BRANCH  10  17
ATOM     16  C   UNL     1       0.124  11.704  19.948  0.00  0.00    +0.000 C 
ATOM     17  O   UNL     1       0.951  11.221  18.895  0.00  0.00    +0.000 OA
ENDBRANCH  10  17
ENDBRANCH   7  13
ENDBRANCH   5   7
ENDBRANCH   1   5
BRANCH   2  18
ATOM     18  C   UNL     1       7.017   5.320  17.227  0.00  0.00    +0.000 C 
BRANCH  18  19
ATOM     19  N   UNL     1       7.951   4.163  17.188  0.00  0.00    +0.000 NA
ATOM     20  H   UNL     1       8.710   4.379  16.537  0.00  0.00    +0.000 HD
ATOM     21  H   UNL     1       7.477   3.347  16.803  0.00  0.00    +0.000 HD
ENDBRANCH  18  19
BRANCH  18  22
ATOM     22  C   UNL     1       5.949   5.171  16.135  0.00  0.00    +0.000 C 
BRANCH  22  23
ATOM     23  C   UNL     1       6.513   4.869  14.788  0.00  0.00    +0.000 A 
ATOM     24  C   UNL     1       6.046   3.976  13.846  0.00  0.00    +0.000 A 
ATOM     25  N   UNL     1       6.913   4.073  12.795  0.00  0.00    +0.000 N 
ATOM     26  C   UNL     1       7.861   4.997  13.129  0.00  0.00    +0.000 A 
ATOM     27  N   UNL     1       7.647   5.494  14.326  0.00  0.00    +0.000 NA
ATOM     28  H   UNL     1       6.868   3.556  11.927  0.00  0.00    +0.000 HD
ENDBRANCH  22  23
ENDBRANCH  18  22
ENDBRANCH   2  18
TORSDOF 8
ENDMDL
MODEL 6
REMARK VINA RESULT:      -6.6      1.899      2.968
REMARK  Name = 
REMARK  9 active torsions:
REMARK  status: ('A' for Active; 'I' for Inactive)
REMARK    1  A    between atoms: C_1  and  O_2
REMARK    2  A    between atoms: O_2  and  C_3
REMARK    3  A    between atoms: C_6  and  S_7
REMARK    4  A    between atoms: S_7  and  N_10
REMARK    5  A    between atoms: N_10  and  N_11
REMARK    6  A    between atoms: C_12  and  C_14
REMARK    7  A    between atoms: C_14  and  N_15
REMARK    8  A    between atoms: C_14  and  C_16
REMARK    9  A    between atoms: C_16  and  C_17
REMARK                            x       y       z     vdW  Elec       q    Type
REMARK                         _______ _______ _______ _____ _____    ______ ____
ROOT
ATOM      1  N   UNL     1       5.891   3.621  18.539  0.00  0.00    +0.000 N 
ATOM      2  C   UNL     1       6.433   4.855  18.858  0.00  0.00    +0.000 C 
ATOM      3  O   UNL     1       6.003   5.553  19.776  0.00  0.00    +0.000 OA
ATOM      4  H   UNL     1       6.202   3.084  17.730  0.00  0.00    +0.000 HD
ENDROOT
BRANCH   1   5
ATOM      5  N   UNL     1       4.881   3.026  19.394  0.00  0.00    +0.000 NA
ATOM      6  H   UNL     1       5.171   2.508  20.229  0.00  0.00    +0.000 HD
BRANCH   5   7
ATOM      7  S   UNL     1       3.269   3.110  18.909  0.00  0.00    +0.000 S 
ATOM      8  O   UNL     1       2.496   2.356  19.872  0.00  0.00    +0.000 OA
ATOM      9  O   UNL     1       3.223   2.774  17.500  0.00  0.00    +0.000 OA
BRANCH   7  13
ATOM     10  C   UNL     1       1.982   7.478  19.255  0.00  0.00    +0.000 A 
ATOM     11  C   UNL     1       2.531   6.993  18.063  0.00  0.00    +0.000 A 
ATOM     12  C   UNL     1       2.950   5.664  17.958  0.00  0.00    +0.000 A 
ATOM     13  C   UNL     1       2.844   4.824  19.068  0.00  0.00    +0.000 A 
ATOM     14  C   UNL     1       2.319   5.306  20.272  0.00  0.00    +0.000 A 
ATOM     15  C   UNL     1       1.887   6.636  20.363  0.00  0.00    +0.000 A 
BRANCH  10  17
ATOM     16  C   UNL     1       1.755   9.462  17.979  0.00  0.00    +0.000 C 
ATOM     17  O   UNL     1       1.607   8.794  19.227  0.00  0.00    +0.000 OA
ENDBRANCH  10  17
ENDBRANCH   7  13
ENDBRANCH   5   7
ENDBRANCH   1   5
BRANCH   2  18
ATOM     18  C   UNL     1       7.532   5.302  17.867  0.00  0.00    +0.000 C 
BRANCH  18  19
ATOM     19  N   UNL     1       7.706   4.254  16.824  0.00  0.00    +0.000 NA
ATOM     20  H   UNL     1       8.704   4.158  16.624  0.00  0.00    +0.000 HD
ATOM     21  H   UNL     1       7.273   4.557  15.953  0.00  0.00    +0.000 HD
ENDBRANCH  18  19
BRANCH  18  22
ATOM     22  C   UNL     1       7.176   6.642  17.211  0.00  0.00    +0.000 C 
BRANCH  22  23
ATOM     23  C   UNL     1       7.858   7.813  17.835  0.00  0.00    +0.000 A 
ATOM     24  C   UNL     1       8.617   7.846  18.986  0.00  0.00    +0.000 A 
ATOM     25  N   UNL     1       9.008   9.149  19.124  0.00  0.00    +0.000 N 
ATOM     26  C   UNL     1       8.480   9.848  18.076  0.00  0.00    +0.000 A 
ATOM     27  N   UNL     1       7.780   9.070  17.283  0.00  0.00    +0.000 NA
ATOM     28  H   UNL     1       9.582   9.530  19.863  0.00  0.00    +0.000 HD
ENDBRANCH  22  23
ENDBRANCH  18  22
ENDBRANCH   2  18
TORSDOF 8
ENDMDL
MODEL 7
REMARK VINA RESULT:      -6.6      1.876      2.537
REMARK  Name = 
REMARK  9 active torsions:
REMARK  status: ('A' for Active; 'I' for Inactive)
REMARK    1  A    between atoms: C_1  and  O_2
REMARK    2  A    between atoms: O_2  and  C_3
REMARK    3  A    between atoms: C_6  and  S_7
REMARK    4  A    between atoms: S_7  and  N_10
REMARK    5  A    between atoms: N_10  and  N_11
REMARK    6  A    between atoms: C_12  and  C_14
REMARK    7  A    between atoms: C_14  and  N_15
REMARK    8  A    between atoms: C_14  and  C_16
REMARK    9  A    between atoms: C_16  and  C_17
REMARK                            x       y       z     vdW  Elec       q    Type
REMARK                         _______ _______ _______ _____ _____    ______ ____
ROOT
ATOM      1  N   UNL     1       5.349   5.080  18.678  0.00  0.00    +0.000 N 
ATOM      2  C   UNL     1       5.937   5.836  17.678  0.00  0.00    +0.000 C 
ATOM      3  O   UNL     1       5.637   7.011  17.468  0.00  0.00    +0.000 OA
ATOM      4  H   UNL     1       5.547   4.087  18.796  0.00  0.00    +0.000 HD
ENDROOT
BRANCH   1   5
ATOM      5  N   UNL     1       4.455   5.706  19.634  0.00  0.00    +0.000 NA
ATOM      6  H   UNL     1       4.844   6.141  20.476  0.00  0.00    +0.000 HD
BRANCH   5   7
ATOM      7  S   UNL     1       2.793   5.584  19.375  0.00  0.00    +0.000 S 
ATOM      8  O   UNL     1       2.222   4.987  20.563  0.00  0.00    +0.000 OA
ATOM      9  O   UNL     1       2.600   4.972  18.077  0.00  0.00    +0.000 OA
BRANCH   7  13
ATOM     10  C   UNL     1       1.167   9.839  19.037  0.00  0.00    +0.000 A 
ATOM     11  C   UNL     1       1.802   9.233  17.947  0.00  0.00    +0.000 A 
ATOM     12  C   UNL     1       2.324   7.941  18.051  0.00  0.00    +0.000 A 
ATOM     13  C   UNL     1       2.234   7.264  19.268  0.00  0.00    +0.000 A 
ATOM     14  C   UNL     1       1.623   7.869  20.372  0.00  0.00    +0.000 A 
ATOM     15  C   UNL     1       1.089   9.159  20.253  0.00  0.00    +0.000 A 
BRANCH  10  17
ATOM     16  C   UNL     1       1.680  12.102  18.560  0.00  0.00    +0.000 C 
ATOM     17  O   UNL     1       0.696  11.103  18.806  0.00  0.00    +0.000 OA
ENDBRANCH  10  17
ENDBRANCH   7  13
ENDBRANCH   5   7
ENDBRANCH   1   5
BRANCH   2  18
ATOM     18  C   UNL     1       6.901   5.015  16.792  0.00  0.00    +0.000 C 
BRANCH  18  19
ATOM     19  N   UNL     1       7.712   4.114  17.656  0.00  0.00    +0.000 NA
ATOM     20  H   UNL     1       8.682   4.436  17.642  0.00  0.00    +0.000 HD
ATOM     21  H   UNL     1       7.723   3.174  17.264  0.00  0.00    +0.000 HD
ENDBRANCH  18  19
BRANCH  18  22
ATOM     22  C   UNL     1       6.133   4.191  15.750  0.00  0.00    +0.000 C 
BRANCH  22  23
ATOM     23  C   UNL     1       6.632   4.377  14.357  0.00  0.00    +0.000 A 
ATOM     24  C   UNL     1       6.234   3.720  13.211  0.00  0.00    +0.000 A 
ATOM     25  N   UNL     1       6.996   4.250  12.208  0.00  0.00    +0.000 N 
ATOM     26  C   UNL     1       7.818   5.185  12.768  0.00  0.00    +0.000 A 
ATOM     27  N   UNL     1       7.623   5.284  14.063  0.00  0.00    +0.000 NA
ATOM     28  H   UNL     1       6.963   3.998  11.230  0.00  0.00    +0.000 HD
ENDBRANCH  22  23
ENDBRANCH  18  22
ENDBRANCH   2  18
TORSDOF 8
ENDMDL
MODEL 8
REMARK VINA RESULT:      -6.5      1.017      1.046
REMARK  Name = 
REMARK  9 active torsions:
REMARK  status: ('A' for Active; 'I' for Inactive)
REMARK    1  A    between atoms: C_1  and  O_2
REMARK    2  A    between atoms: O_2  and  C_3
REMARK    3  A    between atoms: C_6  and  S_7
REMARK    4  A    between atoms: S_7  and  N_10
REMARK    5  A    between atoms: N_10  and  N_11
REMARK    6  A    between atoms: C_12  and  C_14
REMARK    7  A    between atoms: C_14  and  N_15
REMARK    8  A    between atoms: C_14  and  C_16
REMARK    9  A    between atoms: C_16  and  C_17
REMARK                            x       y       z     vdW  Elec       q    Type
REMARK                         _______ _______ _______ _____ _____    ______ ____
ROOT
ATOM      1  N   UNL     1       5.601   3.673  18.597  0.00  0.00    +0.000 N 
ATOM      2  C   UNL     1       6.312   4.821  18.901  0.00  0.00    +0.000 C 
ATOM      3  O   UNL     1       6.459   5.228  20.054  0.00  0.00    +0.000 OA
ATOM      4  H   UNL     1       5.419   3.385  17.637  0.00  0.00    +0.000 HD
ENDROOT
BRANCH   1   5
ATOM      5  N   UNL     1       5.129   2.806  19.661  0.00  0.00    +0.000 NA
ATOM      6  H   UNL     1       5.803   2.235  20.181  0.00  0.00    +0.000 HD
BRANCH   5   7
ATOM      7  S   UNL     1       3.467   2.684  19.917  0.00  0.00    +0.000 S 
ATOM      8  O   UNL     1       3.272   2.440  21.330  0.00  0.00    +0.000 OA
ATOM      9  O   UNL     1       2.943   1.762  18.930  0.00  0.00    +0.000 OA
BRANCH   7  13
ATOM     10  C   UNL     1       2.041   6.904  18.906  0.00  0.00    +0.000 A 
ATOM     11  C   UNL     1       2.303   6.542  20.233  0.00  0.00    +0.000 A 
ATOM     12  C   UNL     1       2.716   5.245  20.552  0.00  0.00    +0.000 A 
ATOM     13  C   UNL     1       2.837   4.297  19.535  0.00  0.00    +0.000 A 
ATOM     14  C   UNL     1       2.554   4.641  18.209  0.00  0.00    +0.000 A 
ATOM     15  C   UNL     1       2.156   5.948  17.896  0.00  0.00    +0.000 A 
BRANCH  10  17
ATOM     16  C   UNL     1       2.435   8.973  17.824  0.00  0.00    +0.000 C 
ATOM     17  O   UNL     1       1.649   8.202  18.726  0.00  0.00    +0.000 OA
ENDBRANCH  10  17
ENDBRANCH   7  13
ENDBRANCH   5   7
ENDBRANCH   1   5
BRANCH   2  18
ATOM     18  C   UNL     1       6.782   5.587  17.644  0.00  0.00    +0.000 C 
BRANCH  18  19
ATOM     19  N   UNL     1       7.555   6.789  18.063  0.00  0.00    +0.000 NA
ATOM     20  H   UNL     1       7.119   7.179  18.902  0.00  0.00    +0.000 HD
ATOM     21  H   UNL     1       7.486   7.512  17.349  0.00  0.00    +0.000 HD
ENDBRANCH  18  19
BRANCH  18  22
ATOM     22  C   UNL     1       7.645   4.697  16.741  0.00  0.00    +0.000 C 
BRANCH  22  23
ATOM     23  C   UNL     1       7.105   4.548  15.358  0.00  0.00    +0.000 A 
ATOM     24  C   UNL     1       6.055   3.764  14.930  0.00  0.00    +0.000 A 
ATOM     25  N   UNL     1       5.968   3.980  13.583  0.00  0.00    +0.000 N 
ATOM     26  C   UNL     1       6.952   4.864  13.246  0.00  0.00    +0.000 A 
ATOM     27  N   UNL     1       7.656   5.224  14.295  0.00  0.00    +0.000 NA
ATOM     28  H   UNL     1       5.301   3.562  12.949  0.00  0.00    +0.000 HD
ENDBRANCH  22  23
ENDBRANCH  18  22
ENDBRANCH   2  18
TORSDOF 8
ENDMDL
MODEL 9
REMARK VINA RESULT:      -6.5      1.940      2.562
REMARK  Name = 
REMARK  9 active torsions:
REMARK  status: ('A' for Active; 'I' for Inactive)
REMARK    1  A    between atoms: C_1  and  O_2
REMARK    2  A    between atoms: O_2  and  C_3
REMARK    3  A    between atoms: C_6  and  S_7
REMARK    4  A    between atoms: S_7  and  N_10
REMARK    5  A    between atoms: N_10  and  N_11
REMARK    6  A    between atoms: C_12  and  C_14
REMARK    7  A    between atoms: C_14  and  N_15
REMARK    8  A    between atoms: C_14  and  C_16
REMARK    9  A    between atoms: C_16  and  C_17
REMARK                            x       y       z     vdW  Elec       q    Type
REMARK                         _______ _______ _______ _____ _____    ______ ____
ROOT
ATOM      1  N   UNL     1       4.927   5.858  18.578  0.00  0.00    +0.000 N 
ATOM      2  C   UNL     1       6.019   5.033  18.365  0.00  0.00    +0.000 C 
ATOM      3  O   UNL     1       6.394   4.200  19.190  0.00  0.00    +0.000 OA
ATOM      4  H   UNL     1       4.669   6.597  17.925  0.00  0.00    +0.000 HD
ENDROOT
BRANCH   1   5
ATOM      5  N   UNL     1       4.075   5.655  19.735  0.00  0.00    +0.000 NA
ATOM      6  H   UNL     1       4.499   5.406  20.634  0.00  0.00    +0.000 HD
BRANCH   5   7
ATOM      7  S   UNL     1       2.404   5.718  19.521  0.00  0.00    +0.000 S 
ATOM      8  O   UNL     1       1.800   5.264  20.755  0.00  0.00    +0.000 OA
ATOM      9  O   UNL     1       2.102   5.059  18.266  0.00  0.00    +0.000 OA
BRANCH   7  13
ATOM     10  C   UNL     1       1.289  10.110  18.945  0.00  0.00    +0.000 A 
ATOM     11  C   UNL     1       1.885   9.387  17.906  0.00  0.00    +0.000 A 
ATOM     12  C   UNL     1       2.251   8.050  18.083  0.00  0.00    +0.000 A 
ATOM     13  C   UNL     1       2.045   7.443  19.323  0.00  0.00    +0.000 A 
ATOM     14  C   UNL     1       1.473   8.164  20.377  0.00  0.00    +0.000 A 
ATOM     15  C   UNL     1       1.094   9.499  20.185  0.00  0.00    +0.000 A 
BRANCH  10  17
ATOM     16  C   UNL     1      -0.391  11.774  18.812  0.00  0.00    +0.000 C 
ATOM     17  O   UNL     1       0.974  11.407  18.644  0.00  0.00    +0.000 OA
ENDBRANCH  10  17
ENDBRANCH   7  13
ENDBRANCH   5   7
ENDBRANCH   1   5
BRANCH   2  18
ATOM     18  C   UNL     1       6.774   5.361  17.057  0.00  0.00    +0.000 C 
BRANCH  18  19
ATOM     19  N   UNL     1       7.755   4.278  16.775  0.00  0.00    +0.000 NA
ATOM     20  H   UNL     1       7.278   3.532  16.263  0.00  0.00    +0.000 HD
ATOM     21  H   UNL     1       8.071   3.860  17.649  0.00  0.00    +0.000 HD
ENDBRANCH  18  19
BRANCH  18  22
ATOM     22  C   UNL     1       5.803   5.511  15.878  0.00  0.00    +0.000 C 
BRANCH  22  23
ATOM     23  C   UNL     1       6.348   4.998  14.588  0.00  0.00    +0.000 A 
ATOM     24  C   UNL     1       5.824   4.023  13.766  0.00  0.00    +0.000 A 
ATOM     25  N   UNL     1       6.698   3.923  12.720  0.00  0.00    +0.000 N 
ATOM     26  C   UNL     1       7.706   4.818  12.942  0.00  0.00    +0.000 A 
ATOM     27  N   UNL     1       7.524   5.480  14.062  0.00  0.00    +0.000 NA
ATOM     28  H   UNL     1       6.620   3.302  11.927  0.00  0.00    +0.000 HD
ENDBRANCH  22  23
ENDBRANCH  18  22
ENDBRANCH   2  18
TORSDOF 8
ENDMDL
