MODEL 1
REMARK VINA RESULT:      -6.7      0.000      0.000
REMARK  Name = 
REMARK  3 active torsions:
REMARK  status: ('A' for Active; 'I' for Inactive)
REMARK    1  A    between atoms: C_2  and  C_3
REMARK    2  A    between atoms: C_9  and  O_10
REMARK    3  A    between atoms: C_14  and  C_15
REMARK                            x       y       z     vdW  Elec       q    Type
REMARK                         _______ _______ _______ _____ _____    ______ ____
ROOT
ATOM      1  O   UNL     1       2.450   5.933  20.660  0.00  0.00    +0.000 OA
ATOM      2  C   UNL     1       2.476   6.475  19.558  0.00  0.00    +0.000 C 
ATOM      3  N   UNL     1       1.838   7.704  19.287  0.00  0.00    +0.000 N 
ATOM      4  C   UNL     1       1.685   8.312  17.971  0.00  0.00    +0.000 C 
ATOM      5  C   UNL     1       2.004   9.793  18.004  0.00  0.00    +0.000 C 
ATOM      6  C   UNL     1       1.105  10.527  18.994  0.00  0.00    +0.000 C 
ATOM      7  C   UNL     1       1.244   9.858  20.376  0.00  0.00    +0.000 C 
ATOM      8  C   UNL     1       1.051   8.336  20.351  0.00  0.00    +0.000 C 
ENDROOT
BRANCH   2   9
ATOM      9  C   UNL     1       3.229   5.803  18.457  0.00  0.00    +0.000 A 
ATOM     10  C   UNL     1       4.473   6.315  18.063  0.00  0.00    +0.000 A 
ATOM     11  C   UNL     1       5.300   5.565  17.231  0.00  0.00    +0.000 A 
ATOM     12 BR   UNL     1       7.094   6.104  16.973  0.00  0.00    +0.000 Br
ATOM     13  C   UNL     1       4.842   4.380  16.661  0.00  0.00    +0.000 A 
ATOM     14  C   UNL     1       3.545   3.940  16.931  0.00  0.00    +0.000 A 
ATOM     15  C   UNL     1       2.749   4.638  17.844  0.00  0.00    +0.000 A 
BRANCH  15  16
ATOM     16  O   UNL     1       1.521   4.131  18.161  0.00  0.00    +0.000 OA
ATOM     17  H   UNL     1       0.827   4.739  17.856  0.00  0.00    +0.000 HD
ENDBRANCH  15  16
ENDBRANCH   2   9
BRANCH   6  18
ATOM     18  C   UNL     1      -0.350  10.594  18.507  0.00  0.00    +0.000 C 
ATOM     19  O   UNL     1      -0.756   9.855  17.607  0.00  0.00    +0.000 OA
ATOM     20  N   UNL     1      -1.192  11.496  19.122  0.00  0.00    +0.000 N 
ATOM     21  C   UNL     1      -0.914  12.402  20.224  0.00  0.00    +0.000 C 
ATOM     22  C   UNL     1      -2.249  12.526  20.930  0.00  0.00    +0.000 C 
ATOM     23  C   UNL     1      -3.250  12.484  19.781  0.00  0.00    +0.000 C 
ATOM     24  C   UNL     1      -2.590  11.596  18.728  0.00  0.00    +0.000 C 
ENDBRANCH   6  18
TORSDOF 3
ENDMDL
MODEL 2
REMARK VINA RESULT:      -6.7      3.066      7.752
REMARK  Name = 
REMARK  3 active torsions:
REMARK  status: ('A' for Active; 'I' for Inactive)
REMARK    1  A    between atoms: C_2  and  C_3
REMARK    2  A    between atoms: C_9  and  O_10
REMARK    3  A    between atoms: C_14  and  C_15
REMARK                            x       y       z     vdW  Elec       q    Type
REMARK                         _______ _______ _______ _____ _____    ______ ____
ROOT
ATOM      1  O   UNL     1       0.399   8.445  21.803  0.00  0.00    +0.000 OA
ATOM      2  C   UNL     1       0.847   8.600  20.670  0.00  0.00    +0.000 C 
ATOM      3  N   UNL     1       1.688   7.660  20.037  0.00  0.00    +0.000 N 
ATOM      4  C   UNL     1       2.387   7.857  18.774  0.00  0.00    +0.000 C 
ATOM      5  C   UNL     1       2.265   6.643  17.876  0.00  0.00    +0.000 C 
ATOM      6  C   UNL     1       2.821   5.397  18.558  0.00  0.00    +0.000 C 
ATOM      7  C   UNL     1       2.103   5.212  19.909  0.00  0.00    +0.000 C 
ATOM      8  C   UNL     1       2.100   6.470  20.789  0.00  0.00    +0.000 C 
ENDROOT
BRANCH   2   9
ATOM      9  C   UNL     1       0.474   9.839  19.925  0.00  0.00    +0.000 A 
ATOM     10  C   UNL     1      -0.319   9.737  18.773  0.00  0.00    +0.000 A 
ATOM     11  C   UNL     1      -0.888  10.880  18.219  0.00  0.00    +0.000 A 
ATOM     12 BR   UNL     1      -2.209  10.704  16.879  0.00  0.00    +0.000 Br
ATOM     13  C   UNL     1      -0.555  12.143  18.704  0.00  0.00    +0.000 A 
ATOM     14  C   UNL     1       0.354  12.260  19.757  0.00  0.00    +0.000 A 
ATOM     15  C   UNL     1       0.850  11.111  20.381  0.00  0.00    +0.000 A 
BRANCH  15  16
ATOM     16  O   UNL     1       1.661  11.257  21.470  0.00  0.00    +0.000 OA
ATOM     17  H   UNL     1       1.836  10.388  21.866  0.00  0.00    +0.000 HD
ENDBRANCH  15  16
ENDBRANCH   2   9
BRANCH   6  18
ATOM     18  C   UNL     1       4.349   5.453  18.697  0.00  0.00    +0.000 C 
ATOM     19  O   UNL     1       4.882   5.731  19.774  0.00  0.00    +0.000 OA
ATOM     20  N   UNL     1       5.107   5.164  17.582  0.00  0.00    +0.000 N 
ATOM     21  C   UNL     1       4.667   4.766  16.255  0.00  0.00    +0.000 C 
ATOM     22  C   UNL     1       5.796   3.889  15.752  0.00  0.00    +0.000 C 
ATOM     23  C   UNL     1       7.036   4.560  16.332  0.00  0.00    +0.000 C 
ATOM     24  C   UNL     1       6.561   5.173  17.648  0.00  0.00    +0.000 C 
ENDBRANCH   6  18
TORSDOF 3
ENDMDL
MODEL 3
REMARK VINA RESULT:      -6.2      2.836      4.399
REMARK  Name = 
REMARK  3 active torsions:
REMARK  status: ('A' for Active; 'I' for Inactive)
REMARK    1  A    between atoms: C_2  and  C_3
REMARK    2  A    between atoms: C_9  and  O_10
REMARK    3  A    between atoms: C_14  and  C_15
REMARK                            x       y       z     vdW  Elec       q    Type
REMARK                         _______ _______ _______ _____ _____    ______ ____
ROOT
ATOM      1  O   UNL     1       0.854  10.849  20.891  0.00  0.00    +0.000 OA
ATOM      2  C   UNL     1       0.504  10.194  19.913  0.00  0.00    +0.000 C 
ATOM      3  N   UNL     1      -0.721  10.400  19.244  0.00  0.00    +0.000 N 
ATOM      4  C   UNL     1      -1.270   9.554  18.193  0.00  0.00    +0.000 C 
ATOM      5  C   UNL     1      -1.817  10.378  17.045  0.00  0.00    +0.000 C 
ATOM      6  C   UNL     1      -2.903  11.336  17.524  0.00  0.00    +0.000 C 
ATOM      7  C   UNL     1      -2.328  12.205  18.660  0.00  0.00    +0.000 C 
ATOM      8  C   UNL     1      -1.652  11.400  19.778  0.00  0.00    +0.000 C 
ENDROOT
BRANCH   2   9
ATOM      9  C   UNL     1       1.427   9.137  19.403  0.00  0.00    +0.000 A 
ATOM     10  C   UNL     1       1.613   7.968  20.153  0.00  0.00    +0.000 A 
ATOM     11  C   UNL     1       2.257   6.873  19.581  0.00  0.00    +0.000 A 
ATOM     12 BR   UNL     1       2.213   5.203  20.468  0.00  0.00    +0.000 Br
ATOM     13  C   UNL     1       2.854   6.978  18.327  0.00  0.00    +0.000 A 
ATOM     14  C   UNL     1       2.802   8.190  17.638  0.00  0.00    +0.000 A 
ATOM     15  C   UNL     1       2.071   9.260  18.164  0.00  0.00    +0.000 A 
BRANCH  15  16
ATOM     16  O   UNL     1       1.958  10.401  17.422  0.00  0.00    +0.000 OA
ATOM     17  H   UNL     1       1.783  11.157  18.008  0.00  0.00    +0.000 HD
ENDBRANCH  15  16
ENDBRANCH   2   9
BRANCH   6  18
ATOM     18  C   UNL     1      -4.184  10.593  17.932  0.00  0.00    +0.000 C 
ATOM     19  O   UNL     1      -4.213   9.362  18.000  0.00  0.00    +0.000 OA
ATOM     20  N   UNL     1      -5.295  11.350  18.237  0.00  0.00    +0.000 N 
ATOM     21  C   UNL     1      -5.438  12.795  18.267  0.00  0.00    +0.000 C 
ATOM     22  C   UNL     1      -6.488  13.030  19.334  0.00  0.00    +0.000 C 
ATOM     23  C   UNL     1      -7.432  11.846  19.151  0.00  0.00    +0.000 C 
ATOM     24  C   UNL     1      -6.536  10.713  18.656  0.00  0.00    +0.000 C 
ENDBRANCH   6  18
TORSDOF 3
ENDMDL
MODEL 4
REMARK VINA RESULT:      -6.2      2.599      3.338
REMARK  Name = 
REMARK  3 active torsions:
REMARK  status: ('A' for Active; 'I' for Inactive)
REMARK    1  A    between atoms: C_2  and  C_3
REMARK    2  A    between atoms: C_9  and  O_10
REMARK    3  A    between atoms: C_14  and  C_15
REMARK                            x       y       z     vdW  Elec       q    Type
REMARK                         _______ _______ _______ _____ _____    ______ ____
ROOT
ATOM      1  O   UNL     1       2.668   8.115  16.984  0.00  0.00    +0.000 OA
ATOM      2  C   UNL     1       2.433   7.878  18.167  0.00  0.00    +0.000 C 
ATOM      3  N   UNL     1       1.655   8.726  18.983  0.00  0.00    +0.000 N 
ATOM      4  C   UNL     1       1.481   8.595  20.424  0.00  0.00    +0.000 C 
ATOM      5  C   UNL     1       0.031   8.773  20.827  0.00  0.00    +0.000 C 
ATOM      6  C   UNL     1      -0.498  10.133  20.388  0.00  0.00    +0.000 C 
ATOM      7  C   UNL     1      -0.281  10.281  18.869  0.00  0.00    +0.000 C 
ATOM      8  C   UNL     1       1.155   9.982  18.415  0.00  0.00    +0.000 C 
ENDROOT
BRANCH   2   9
ATOM      9  C   UNL     1       2.991   6.628  18.762  0.00  0.00    +0.000 A 
ATOM     10  C   UNL     1       2.198   5.866  19.630  0.00  0.00    +0.000 A 
ATOM     11  C   UNL     1       2.596   4.581  19.987  0.00  0.00    +0.000 A 
ATOM     12 BR   UNL     1       1.377   3.445  20.881  0.00  0.00    +0.000 Br
ATOM     13  C   UNL     1       3.849   4.100  19.615  0.00  0.00    +0.000 A 
ATOM     14  C   UNL     1       4.709   4.913  18.874  0.00  0.00    +0.000 A 
ATOM     15  C   UNL     1       4.272   6.165  18.430  0.00  0.00    +0.000 A 
BRANCH  15  16
ATOM     16  O   UNL     1       5.099   6.898  17.627  0.00  0.00    +0.000 OA
ATOM     17  H   UNL     1       5.255   6.420  16.795  0.00  0.00    +0.000 HD
ENDBRANCH  15  16
ENDBRANCH   2   9
BRANCH   6  18
ATOM     18  C   UNL     1       0.127  11.280  21.194  0.00  0.00    +0.000 C 
ATOM     19  O   UNL     1       1.261  11.181  21.670  0.00  0.00    +0.000 OA
ATOM     20  N   UNL     1      -0.613  12.433  21.353  0.00  0.00    +0.000 N 
ATOM     21  C   UNL     1      -1.929  12.755  20.827  0.00  0.00    +0.000 C 
ATOM     22  C   UNL     1      -1.884  14.258  20.645  0.00  0.00    +0.000 C 
ATOM     23  C   UNL     1      -1.041  14.722  21.828  0.00  0.00    +0.000 C 
ATOM     24  C   UNL     1      -0.072  13.569  22.084  0.00  0.00    +0.000 C 
ENDBRANCH   6  18
TORSDOF 3
ENDMDL
MODEL 5
REMARK VINA RESULT:      -5.9      3.779      5.667
REMARK  Name = 
REMARK  3 active torsions:
REMARK  status: ('A' for Active; 'I' for Inactive)
REMARK    1  A    between atoms: C_2  and  C_3
REMARK    2  A    between atoms: C_9  and  O_10
REMARK    3  A    between atoms: C_14  and  C_15
REMARK                            x       y       z     vdW  Elec       q    Type
REMARK                         _______ _______ _______ _____ _____    ______ ____
ROOT
ATOM      1  O   UNL     1      -1.430  10.672  18.102  0.00  0.00    +0.000 OA
ATOM      2  C   UNL     1      -0.353  10.867  18.658  0.00  0.00    +0.000 C 
ATOM      3  N   UNL     1       0.183  12.155  18.873  0.00  0.00    +0.000 N 
ATOM      4  C   UNL     1       1.522  12.448  19.368  0.00  0.00    +0.000 C 
ATOM      5  C   UNL     1       1.497  13.530  20.429  0.00  0.00    +0.000 C 
ATOM      6  C   UNL     1       0.878  14.815  19.890  0.00  0.00    +0.000 C 
ATOM      7  C   UNL     1      -0.524  14.493  19.336  0.00  0.00    +0.000 C 
ATOM      8  C   UNL     1      -0.548  13.315  18.352  0.00  0.00    +0.000 C 
ENDROOT
BRANCH   2   9
ATOM      9  C   UNL     1       0.420   9.683  19.138  0.00  0.00    +0.000 A 
ATOM     10  C   UNL     1       1.251   8.996  18.243  0.00  0.00    +0.000 A 
ATOM     11  C   UNL     1       2.166   8.063  18.723  0.00  0.00    +0.000 A 
ATOM     12 BR   UNL     1       3.500   7.389  17.564  0.00  0.00    +0.000 Br
ATOM     13  C   UNL     1       2.160   7.691  20.065  0.00  0.00    +0.000 A 
ATOM     14  C   UNL     1       1.230   8.263  20.935  0.00  0.00    +0.000 A 
ATOM     15  C   UNL     1       0.377   9.273  20.478  0.00  0.00    +0.000 A 
BRANCH  15  16
ATOM     16  O   UNL     1      -0.455   9.880  21.374  0.00  0.00    +0.000 OA
ATOM     17  H   UNL     1       0.071  10.357  22.037  0.00  0.00    +0.000 HD
ENDBRANCH  15  16
ENDBRANCH   2   9
BRANCH   6  18
ATOM     18  C   UNL     1       1.785  15.499  18.856  0.00  0.00    +0.000 C 
ATOM     19  O   UNL     1       2.874  15.011  18.542  0.00  0.00    +0.000 OA
ATOM     20  N   UNL     1       1.334  16.666  18.278  0.00  0.00    +0.000 N 
ATOM     21  C   UNL     1       0.071  17.357  18.477  0.00  0.00    +0.000 C 
ATOM     22  C   UNL     1      -0.184  18.028  17.142  0.00  0.00    +0.000 C 
ATOM     23  C   UNL     1       1.215  18.427  16.686  0.00  0.00    +0.000 C 
ATOM     24  C   UNL     1       2.131  17.353  17.272  0.00  0.00    +0.000 C 
ENDBRANCH   6  18
TORSDOF 3
ENDMDL
MODEL 6
REMARK VINA RESULT:      -5.9      4.292      6.643
REMARK  Name = 
REMARK  3 active torsions:
REMARK  status: ('A' for Active; 'I' for Inactive)
REMARK    1  A    between atoms: C_2  and  C_3
REMARK    2  A    between atoms: C_9  and  O_10
REMARK    3  A    between atoms: C_14  and  C_15
REMARK                            x       y       z     vdW  Elec       q    Type
REMARK                         _______ _______ _______ _____ _____    ______ ____
ROOT
ATOM      1  O   UNL     1       1.152  13.225  21.515  0.00  0.00    +0.000 OA
ATOM      2  C   UNL     1       0.175  12.494  21.377  0.00  0.00    +0.000 C 
ATOM      3  N   UNL     1      -1.155  12.956  21.473  0.00  0.00    +0.000 N 
ATOM      4  C   UNL     1      -2.348  12.120  21.490  0.00  0.00    +0.000 C 
ATOM      5  C   UNL     1      -3.429  12.676  20.585  0.00  0.00    +0.000 C 
ATOM      6  C   UNL     1      -3.814  14.093  20.994  0.00  0.00    +0.000 C 
ATOM      7  C   UNL     1      -2.543  14.965  21.008  0.00  0.00    +0.000 C 
ATOM      8  C   UNL     1      -1.385  14.363  21.815  0.00  0.00    +0.000 C 
ENDROOT
BRANCH   2   9
ATOM      9  C   UNL     1       0.409  11.048  21.085  0.00  0.00    +0.000 A 
ATOM     10  C   UNL     1       0.715  10.653  19.776  0.00  0.00    +0.000 A 
ATOM     11  C   UNL     1       1.186   9.365  19.532  0.00  0.00    +0.000 A 
ATOM     12 BR   UNL     1       1.904   8.944  17.834  0.00  0.00    +0.000 Br
ATOM     13  C   UNL     1       1.212   8.416  20.551  0.00  0.00    +0.000 A 
ATOM     14  C   UNL     1       0.765   8.763  21.828  0.00  0.00    +0.000 A 
ATOM     15  C   UNL     1       0.386  10.081  22.099  0.00  0.00    +0.000 A 
BRANCH  15  16
ATOM     16  O   UNL     1       0.045  10.412  23.380  0.00  0.00    +0.000 OA
ATOM     17  H   UNL     1       0.848  10.502  23.919  0.00  0.00    +0.000 HD
ENDBRANCH  15  16
ENDBRANCH   2   9
BRANCH   6  18
ATOM     18  C   UNL     1      -4.570  14.118  22.331  0.00  0.00    +0.000 C 
ATOM     19  O   UNL     1      -4.176  14.811  23.273  0.00  0.00    +0.000 OA
ATOM     20  N   UNL     1      -5.714  13.356  22.437  0.00  0.00    +0.000 N 
ATOM     21  C   UNL     1      -6.358  12.528  21.431  0.00  0.00    +0.000 C 
ATOM     22  C   UNL     1      -7.826  12.591  21.802  0.00  0.00    +0.000 C 
ATOM     23  C   UNL     1      -7.793  12.626  23.325  0.00  0.00    +0.000 C 
ATOM     24  C   UNL     1      -6.494  13.353  23.666  0.00  0.00    +0.000 C 
ENDBRANCH   6  18
TORSDOF 3
ENDMDL
MODEL 7
REMARK VINA RESULT:      -5.9      2.838      7.403
REMARK  Name = 
REMARK  3 active torsions:
REMARK  status: ('A' for Active; 'I' for Inactive)
REMARK    1  A    between atoms: C_2  and  C_3
REMARK    2  A    between atoms: C_9  and  O_10
REMARK    3  A    between atoms: C_14  and  C_15
REMARK                            x       y       z     vdW  Elec       q    Type
REMARK                         _______ _______ _______ _____ _____    ______ ____
ROOT
ATOM      1  O   UNL     1      -0.103   8.541  21.710  0.00  0.00    +0.000 OA
ATOM      2  C   UNL     1       0.556   8.866  20.726  0.00  0.00    +0.000 C 
ATOM      3  N   UNL     1       1.427   7.983  20.053  0.00  0.00    +0.000 N 
ATOM      4  C   UNL     1       2.359   8.348  18.995  0.00  0.00    +0.000 C 
ATOM      5  C   UNL     1       2.314   7.356  17.850  0.00  0.00    +0.000 C 
ATOM      6  C   UNL     1       2.641   5.947  18.330  0.00  0.00    +0.000 C 
ATOM      7  C   UNL     1       1.675   5.578  19.473  0.00  0.00    +0.000 C 
ATOM      8  C   UNL     1       1.604   6.629  20.589  0.00  0.00    +0.000 C 
ENDROOT
BRANCH   2   9
ATOM      9  C   UNL     1       0.419  10.262  20.214  0.00  0.00    +0.000 A 
ATOM     10  C   UNL     1       1.205  11.279  20.773  0.00  0.00    +0.000 A 
ATOM     11  C   UNL     1       1.282  12.520  20.145  0.00  0.00    +0.000 A 
ATOM     12 BR   UNL     1       2.586  13.767  20.710  0.00  0.00    +0.000 Br
ATOM     13  C   UNL     1       0.468  12.813  19.053  0.00  0.00    +0.000 A 
ATOM     14  C   UNL     1      -0.429  11.851  18.584  0.00  0.00    +0.000 A 
ATOM     15  C   UNL     1      -0.438  10.572  19.148  0.00  0.00    +0.000 A 
BRANCH  15  16
ATOM     16  O   UNL     1      -1.257   9.624  18.605  0.00  0.00    +0.000 OA
ATOM     17  H   UNL     1      -2.173   9.784  18.886  0.00  0.00    +0.000 HD
ENDBRANCH  15  16
ENDBRANCH   2   9
BRANCH   6  18
ATOM     18  C   UNL     1       4.118   5.804  18.727  0.00  0.00    +0.000 C 
ATOM     19  O   UNL     1       4.444   5.549  19.889  0.00  0.00    +0.000 OA
ATOM     20  N   UNL     1       5.067   5.952  17.737  0.00  0.00    +0.000 N 
ATOM     21  C   UNL     1       4.877   6.197  16.318  0.00  0.00    +0.000 C 
ATOM     22  C   UNL     1       6.073   5.523  15.675  0.00  0.00    +0.000 C 
ATOM     23  C   UNL     1       7.189   5.771  16.684  0.00  0.00    +0.000 C 
ATOM     24  C   UNL     1       6.483   5.804  18.038  0.00  0.00    +0.000 C 
ENDBRANCH   6  18
TORSDOF 3
ENDMDL
MODEL 8
REMARK VINA RESULT:      -5.8      3.830      8.768
REMARK  Name = 
REMARK  3 active torsions:
REMARK  status: ('A' for Active; 'I' for Inactive)
REMARK    1  A    between atoms: C_2  and  C_3
REMARK    2  A    between atoms: C_9  and  O_10
REMARK    3  A    between atoms: C_14  and  C_15
REMARK                            x       y       z     vdW  Elec       q    Type
REMARK                         _______ _______ _______ _____ _____    ______ ____
ROOT
ATOM      1  O   UNL     1      -3.299  11.900  18.567  0.00  0.00    +0.000 OA
ATOM      2  C   UNL     1      -2.547  11.986  19.535  0.00  0.00    +0.000 C 
ATOM      3  N   UNL     1      -1.403  11.176  19.698  0.00  0.00    +0.000 N 
ATOM      4  C   UNL     1      -0.572  11.109  20.893  0.00  0.00    +0.000 C 
ATOM      5  C   UNL     1       0.903  11.135  20.545  0.00  0.00    +0.000 C 
ATOM      6  C   UNL     1       1.271   9.979  19.622  0.00  0.00    +0.000 C 
ATOM      7  C   UNL     1       0.366  10.035  18.376  0.00  0.00    +0.000 C 
ATOM      8  C   UNL     1      -1.131  10.137  18.700  0.00  0.00    +0.000 C 
ENDROOT
BRANCH   2   9
ATOM      9  C   UNL     1      -2.856  13.006  20.581  0.00  0.00    +0.000 A 
ATOM     10  C   UNL     1      -3.713  12.669  21.637  0.00  0.00    +0.000 A 
ATOM     11  C   UNL     1      -3.808  13.505  22.746  0.00  0.00    +0.000 A 
ATOM     12 BR   UNL     1      -4.700  12.892  24.297  0.00  0.00    +0.000 Br
ATOM     13  C   UNL     1      -3.179  14.748  22.753  0.00  0.00    +0.000 A 
ATOM     14  C   UNL     1      -2.445  15.155  21.638  0.00  0.00    +0.000 A 
ATOM     15  C   UNL     1      -2.264  14.277  20.564  0.00  0.00    +0.000 A 
BRANCH  15  16
ATOM     16  O   UNL     1      -1.461  14.667  19.530  0.00  0.00    +0.000 OA
ATOM     17  H   UNL     1      -0.901  15.408  19.813  0.00  0.00    +0.000 HD
ENDBRANCH  15  16
ENDBRANCH   2   9
BRANCH   6  18
ATOM     18  C   UNL     1       1.209   8.626  20.345  0.00  0.00    +0.000 C 
ATOM     19  O   UNL     1       0.544   8.482  21.373  0.00  0.00    +0.000 OA
ATOM     20  N   UNL     1       1.907   7.571  19.794  0.00  0.00    +0.000 N 
ATOM     21  C   UNL     1       2.693   7.533  18.573  0.00  0.00    +0.000 C 
ATOM     22  C   UNL     1       2.550   6.100  18.100  0.00  0.00    +0.000 C 
ATOM     23  C   UNL     1       2.524   5.310  19.404  0.00  0.00    +0.000 C 
ATOM     24  C   UNL     1       1.872   6.254  20.412  0.00  0.00    +0.000 C 
ENDBRANCH   6  18
TORSDOF 3
ENDMDL
MODEL 9
REMARK VINA RESULT:      -5.7      3.147      7.867
REMARK  Name = 
REMARK  3 active torsions:
REMARK  status: ('A' for Active; 'I' for Inactive)
REMARK    1  A    between atoms: C_2  and  C_3
REMARK    2  A    between atoms: C_9  and  O_10
REMARK    3  A    between atoms: C_14  and  C_15
REMARK                            x       y       z     vdW  Elec       q    Type
REMARK                         _______ _______ _______ _____ _____    ______ ____
ROOT
ATOM      1  O   UNL     1       0.762   8.871  21.692  0.00  0.00    +0.000 OA
ATOM      2  C   UNL     1       0.902   9.128  20.498  0.00  0.00    +0.000 C 
ATOM      3  N   UNL     1       1.694   8.349  19.629  0.00  0.00    +0.000 N 
ATOM      4  C   UNL     1       2.037   8.691  18.255  0.00  0.00    +0.000 C 
ATOM      5  C   UNL     1       1.882   7.500  17.331  0.00  0.00    +0.000 C 
ATOM      6  C   UNL     1       2.757   6.336  17.782  0.00  0.00    +0.000 C 
ATOM      7  C   UNL     1       2.414   6.001  19.247  0.00  0.00    +0.000 C 
ATOM      8  C   UNL     1       2.440   7.215  20.185  0.00  0.00    +0.000 C 
ENDROOT
BRANCH   2   9
ATOM      9  C   UNL     1       0.188  10.316  19.944  0.00  0.00    +0.000 A 
ATOM     10  C   UNL     1      -0.847  10.126  19.018  0.00  0.00    +0.000 A 
ATOM     11  C   UNL     1      -1.687  11.187  18.689  0.00  0.00    +0.000 A 
ATOM     12 BR   UNL     1      -3.267  10.850  17.706  0.00  0.00    +0.000 Br
ATOM     13  C   UNL     1      -1.417  12.473  19.151  0.00  0.00    +0.000 A 
ATOM     14  C   UNL     1      -0.298  12.697  19.954  0.00  0.00    +0.000 A 
ATOM     15  C   UNL     1       0.490  11.618  20.368  0.00  0.00    +0.000 A 
BRANCH  15  16
ATOM     16  O   UNL     1       1.522  11.855  21.230  0.00  0.00    +0.000 OA
ATOM     17  H   UNL     1       2.152  12.474  20.825  0.00  0.00    +0.000 HD
ENDBRANCH  15  16
ENDBRANCH   2   9
BRANCH   6  18
ATOM     18  C   UNL     1       4.250   6.624  17.570  0.00  0.00    +0.000 C 
ATOM     19  O   UNL     1       4.785   7.618  18.067  0.00  0.00    +0.000 OA
ATOM     20  N   UNL     1       4.978   5.724  16.820  0.00  0.00    +0.000 N 
ATOM     21  C   UNL     1       4.542   4.481  16.207  0.00  0.00    +0.000 C 
ATOM     22  C   UNL     1       5.786   3.617  16.224  0.00  0.00    +0.000 C 
ATOM     23  C   UNL     1       6.905   4.622  15.972  0.00  0.00    +0.000 C 
ATOM     24  C   UNL     1       6.403   5.921  16.600  0.00  0.00    +0.000 C 
ENDBRANCH   6  18
TORSDOF 3
ENDMDL
