MODEL 1
REMARK VINA RESULT:      -6.2      0.000      0.000
REMARK  Name = 
REMARK  9 active torsions:
REMARK  status: ('A' for Active; 'I' for Inactive)
REMARK    1  A    between atoms: C_1  and  C_2
REMARK    2  A    between atoms: C_2  and  C_3
REMARK    3  A    between atoms: C_3  and  C_4
REMARK    4  A    between atoms: C_4  and  C_5
REMARK    5  A    between atoms: C_6  and  C_7
REMARK    6  A    between atoms: C_10  and  C_11
REMARK    7  A    between atoms: C_10  and  C_12
REMARK    8  A    between atoms: C_12  and  N_13
REMARK    9  A    between atoms: C_21  and  O_22
REMARK                            x       y       z     vdW  Elec       q    Type
REMARK                         _______ _______ _______ _____ _____    ______ ____
ROOT
ATOM      1  N   UNL     1      -1.340  11.890  20.649  0.00  0.00    +0.000 N 
ATOM      2  C   UNL     1      -2.024  11.300  19.599  0.00  0.00    +0.000 A 
ATOM      3  C   UNL     1      -3.209  11.813  19.063  0.00  0.00    +0.000 A 
ATOM      4  C   UNL     1      -3.576  11.466  17.766  0.00  0.00    +0.000 A 
ATOM      5  C   UNL     1      -2.771  10.582  17.047  0.00  0.00    +0.000 A 
ATOM      6  I   UNL     1      -3.167  10.294  15.016  0.00  0.00    +0.000 I 
ATOM      7  C   UNL     1      -1.640   9.985  17.630  0.00  0.00    +0.000 A 
ATOM      8  C   UNL     1      -1.262  10.318  18.941  0.00  0.00    +0.000 A 
ATOM      9  C   UNL     1       0.117  10.170  19.584  0.00  0.00    +0.000 C 
ATOM     10  C   UNL     1       0.854   9.133  20.457  0.00  0.00    +0.000 C 
ATOM     11  C   UNL     1       1.219   9.833  21.762  0.00  0.00    +0.000 C 
ATOM     12  O   UNL     1       0.354  10.935  21.909  0.00  0.00    +0.000 OA
ATOM     13  C   UNL     1       0.028  11.381  20.593  0.00  0.00    +0.000 C 
ENDROOT
BRANCH   9  14
ATOM     14  O   UNL     1       0.997  10.264  18.443  0.00  0.00    +0.000 OA
ATOM     15  H   UNL     1       0.411  10.015  17.691  0.00  0.00    +0.000 HD
ENDBRANCH   9  14
BRANCH   1  16
ATOM     16  C   UNL     1      -1.966  12.420  21.849  0.00  0.00    +0.000 C 
BRANCH  16  22
ATOM     17  C   UNL     1      -3.888  14.617  23.351  0.00  0.00    +0.000 C 
ATOM     18  C   UNL     1      -2.767  14.716  24.084  0.00  0.00    +0.000 C 
ATOM     19  C   UNL     1      -2.580  14.940  25.540  0.00  0.00    +0.000 C 
ATOM     20  C   UNL     1      -1.598  14.540  23.193  0.00  0.00    +0.000 C 
ATOM     21  O   UNL     1      -0.480  14.893  23.506  0.00  0.00    +0.000 OA
ATOM     22  C   UNL     1      -2.037  13.954  21.865  0.00  0.00    +0.000 C 
ATOM     23  C   UNL     1      -1.329  14.596  20.686  0.00  0.00    +0.000 C 
ATOM     24  C   UNL     1      -3.495  14.308  21.946  0.00  0.00    +0.000 C 
ATOM     25  O   UNL     1      -4.281  14.330  20.998  0.00  0.00    +0.000 OA
BRANCH  17  26
ATOM     26  C   UNL     1      -5.312  14.705  23.775  0.00  0.00    +0.000 C 
BRANCH  26  27
ATOM     27  C   UNL     1      -5.868  13.317  24.096  0.00  0.00    +0.000 C 
BRANCH  27  29
ATOM     28  C   UNL     1      -7.917  14.514  23.325  0.00  0.00    +0.000 C 
ATOM     29  C   UNL     1      -7.327  13.158  23.682  0.00  0.00    +0.000 C 
ENDBRANCH  27  29
ENDBRANCH  26  27
ENDBRANCH  17  26
ENDBRANCH  16  22
ENDBRANCH   1  16
TORSDOF 6
ENDMDL
MODEL 2
REMARK VINA RESULT:      -6.2      3.986      5.666
REMARK  Name = 
REMARK  9 active torsions:
REMARK  status: ('A' for Active; 'I' for Inactive)
REMARK    1  A    between atoms: C_1  and  C_2
REMARK    2  A    between atoms: C_2  and  C_3
REMARK    3  A    between atoms: C_3  and  C_4
REMARK    4  A    between atoms: C_4  and  C_5
REMARK    5  A    between atoms: C_6  and  C_7
REMARK    6  A    between atoms: C_10  and  C_11
REMARK    7  A    between atoms: C_10  and  C_12
REMARK    8  A    between atoms: C_12  and  N_13
REMARK    9  A    between atoms: C_21  and  O_22
REMARK                            x       y       z     vdW  Elec       q    Type
REMARK                         _______ _______ _______ _____ _____    ______ ____
ROOT
ATOM      1  N   UNL     1       0.960  11.308  20.318  0.00  0.00    +0.000 N 
ATOM      2  C   UNL     1       1.183  10.185  19.540  0.00  0.00    +0.000 A 
ATOM      3  C   UNL     1       1.728  10.230  18.254  0.00  0.00    +0.000 A 
ATOM      4  C   UNL     1       2.343   9.095  17.733  0.00  0.00    +0.000 A 
ATOM      5  C   UNL     1       2.366   7.927  18.496  0.00  0.00    +0.000 A 
ATOM      6  I   UNL     1       3.535   6.325  17.837  0.00  0.00    +0.000 I 
ATOM      7  C   UNL     1       1.721   7.855  19.743  0.00  0.00    +0.000 A 
ATOM      8  C   UNL     1       1.088   8.990  20.277  0.00  0.00    +0.000 A 
ATOM      9  C   UNL     1       0.752   9.273  21.741  0.00  0.00    +0.000 C 
ATOM     10  C   UNL     1      -0.464   9.104  22.676  0.00  0.00    +0.000 C 
ATOM     11  C   UNL     1      -0.841  10.497  23.167  0.00  0.00    +0.000 C 
ATOM     12  O   UNL     1      -0.319  11.427  22.246  0.00  0.00    +0.000 OA
ATOM     13  C   UNL     1       0.865  10.847  21.700  0.00  0.00    +0.000 C 
ENDROOT
BRANCH   9  14
ATOM     14  O   UNL     1       1.760   8.509  22.438  0.00  0.00    +0.000 OA
ATOM     15  H   UNL     1       1.295   7.666  22.646  0.00  0.00    +0.000 HD
ENDBRANCH   9  14
BRANCH   1  16
ATOM     16  C   UNL     1       0.381  12.550  19.830  0.00  0.00    +0.000 C 
BRANCH  16  22
ATOM     17  C   UNL     1       0.064  15.773  19.296  0.00  0.00    +0.000 C 
ATOM     18  C   UNL     1      -0.324  15.688  20.579  0.00  0.00    +0.000 C 
ATOM     19  C   UNL     1      -1.376  16.427  21.323  0.00  0.00    +0.000 C 
ATOM     20  C   UNL     1       0.484  14.648  21.253  0.00  0.00    +0.000 C 
ATOM     21  O   UNL     1       0.581  14.576  22.461  0.00  0.00    +0.000 OA
ATOM     22  C   UNL     1       1.196  13.791  20.224  0.00  0.00    +0.000 C 
ATOM     23  C   UNL     1       2.622  13.464  20.628  0.00  0.00    +0.000 C 
ATOM     24  C   UNL     1       1.111  14.738  19.061  0.00  0.00    +0.000 C 
ATOM     25  O   UNL     1       1.792  14.678  18.036  0.00  0.00    +0.000 OA
BRANCH  17  26
ATOM     26  C   UNL     1      -0.444  16.650  18.205  0.00  0.00    +0.000 C 
BRANCH  26  27
ATOM     27  C   UNL     1       0.087  18.075  18.365  0.00  0.00    +0.000 C 
BRANCH  27  29
ATOM     28  C   UNL     1       1.880  17.795  16.653  0.00  0.00    +0.000 C 
ATOM     29  C   UNL     1       0.680  18.629  17.074  0.00  0.00    +0.000 C 
ENDBRANCH  27  29
ENDBRANCH  26  27
ENDBRANCH  17  26
ENDBRANCH  16  22
ENDBRANCH   1  16
TORSDOF 6
ENDMDL
MODEL 3
REMARK VINA RESULT:      -6.1      1.072      1.671
REMARK  Name = 
REMARK  9 active torsions:
REMARK  status: ('A' for Active; 'I' for Inactive)
REMARK    1  A    between atoms: C_1  and  C_2
REMARK    2  A    between atoms: C_2  and  C_3
REMARK    3  A    between atoms: C_3  and  C_4
REMARK    4  A    between atoms: C_4  and  C_5
REMARK    5  A    between atoms: C_6  and  C_7
REMARK    6  A    between atoms: C_10  and  C_11
REMARK    7  A    between atoms: C_10  and  C_12
REMARK    8  A    between atoms: C_12  and  N_13
REMARK    9  A    between atoms: C_21  and  O_22
REMARK                            x       y       z     vdW  Elec       q    Type
REMARK                         _______ _______ _______ _____ _____    ______ ____
ROOT
ATOM      1  N   UNL     1      -1.172  11.967  20.705  0.00  0.00    +0.000 N 
ATOM      2  C   UNL     1      -1.907  11.397  19.680  0.00  0.00    +0.000 A 
ATOM      3  C   UNL     1      -3.047  11.986  19.126  0.00  0.00    +0.000 A 
ATOM      4  C   UNL     1      -3.448  11.622  17.843  0.00  0.00    +0.000 A 
ATOM      5  C   UNL     1      -2.722  10.648  17.158  0.00  0.00    +0.000 A 
ATOM      6  I   UNL     1      -3.149  10.317  15.139  0.00  0.00    +0.000 I 
ATOM      7  C   UNL     1      -1.642   9.980  17.762  0.00  0.00    +0.000 A 
ATOM      8  C   UNL     1      -1.232  10.331  19.059  0.00  0.00    +0.000 A 
ATOM      9  C   UNL     1       0.133  10.092  19.706  0.00  0.00    +0.000 C 
ATOM     10  C   UNL     1       0.784   9.031  20.617  0.00  0.00    +0.000 C 
ATOM     11  C   UNL     1       1.212   9.747  21.893  0.00  0.00    +0.000 C 
ATOM     12  O   UNL     1       0.442  10.922  21.999  0.00  0.00    +0.000 OA
ATOM     13  C   UNL     1       0.149  11.344  20.668  0.00  0.00    +0.000 C 
ENDROOT
BRANCH   9  14
ATOM     14  O   UNL     1       1.012  10.069  18.561  0.00  0.00    +0.000 OA
ATOM     15  H   UNL     1       1.812  10.544  18.886  0.00  0.00    +0.000 HD
ENDBRANCH   9  14
BRANCH   1  16
ATOM     16  C   UNL     1      -1.746  12.592  21.886  0.00  0.00    +0.000 C 
BRANCH  16  22
ATOM     17  C   UNL     1      -3.373  14.979  23.445  0.00  0.00    +0.000 C 
ATOM     18  C   UNL     1      -2.182  15.037  24.063  0.00  0.00    +0.000 C 
ATOM     19  C   UNL     1      -1.840  15.315  25.481  0.00  0.00    +0.000 C 
ATOM     20  C   UNL     1      -1.118  14.743  23.076  0.00  0.00    +0.000 C 
ATOM     21  O   UNL     1       0.044  15.034  23.263  0.00  0.00    +0.000 OA
ATOM     22  C   UNL     1      -1.720  14.127  21.828  0.00  0.00    +0.000 C 
ATOM     23  C   UNL     1      -1.092  14.665  20.555  0.00  0.00    +0.000 C 
ATOM     24  C   UNL     1      -3.139  14.581  22.028  0.00  0.00    +0.000 C 
ATOM     25  O   UNL     1      -4.011  14.611  21.158  0.00  0.00    +0.000 OA
BRANCH  17  26
ATOM     26  C   UNL     1      -4.740  15.182  23.996  0.00  0.00    +0.000 C 
BRANCH  26  27
ATOM     27  C   UNL     1      -5.142  16.656  23.921  0.00  0.00    +0.000 C 
BRANCH  27  29
ATOM     28  C   UNL     1      -3.775  18.524  24.850  0.00  0.00    +0.000 C 
ATOM     29  C   UNL     1      -4.777  17.430  25.182  0.00  0.00    +0.000 C 
ENDBRANCH  27  29
ENDBRANCH  26  27
ENDBRANCH  17  26
ENDBRANCH  16  22
ENDBRANCH   1  16
TORSDOF 6
ENDMDL
MODEL 4
REMARK VINA RESULT:      -6.0      4.009      5.121
REMARK  Name = 
REMARK  9 active torsions:
REMARK  status: ('A' for Active; 'I' for Inactive)
REMARK    1  A    between atoms: C_1  and  C_2
REMARK    2  A    between atoms: C_2  and  C_3
REMARK    3  A    between atoms: C_3  and  C_4
REMARK    4  A    between atoms: C_4  and  C_5
REMARK    5  A    between atoms: C_6  and  C_7
REMARK    6  A    between atoms: C_10  and  C_11
REMARK    7  A    between atoms: C_10  and  C_12
REMARK    8  A    between atoms: C_12  and  N_13
REMARK    9  A    between atoms: C_21  and  O_22
REMARK                            x       y       z     vdW  Elec       q    Type
REMARK                         _______ _______ _______ _____ _____    ______ ____
ROOT
ATOM      1  N   UNL     1       0.820  11.113  20.083  0.00  0.00    +0.000 N 
ATOM      2  C   UNL     1       1.105   9.928  19.427  0.00  0.00    +0.000 A 
ATOM      3  C   UNL     1       1.606   9.867  18.123  0.00  0.00    +0.000 A 
ATOM      4  C   UNL     1       2.290   8.728  17.709  0.00  0.00    +0.000 A 
ATOM      5  C   UNL     1       2.424   7.659  18.593  0.00  0.00    +0.000 A 
ATOM      6  I   UNL     1       3.692   6.081  18.072  0.00  0.00    +0.000 I 
ATOM      7  C   UNL     1       1.825   7.681  19.865  0.00  0.00    +0.000 A 
ATOM      8  C   UNL     1       1.123   8.821  20.294  0.00  0.00    +0.000 A 
ATOM      9  C   UNL     1       0.809   9.241  21.730  0.00  0.00    +0.000 C 
ATOM     10  C   UNL     1      -0.362   9.092  22.723  0.00  0.00    +0.000 C 
ATOM     11  C   UNL     1      -0.829  10.501  23.071  0.00  0.00    +0.000 C 
ATOM     12  O   UNL     1      -0.407  11.356  22.034  0.00  0.00    +0.000 OA
ATOM     13  C   UNL     1       0.801  10.805  21.511  0.00  0.00    +0.000 C 
ENDROOT
BRANCH   9  14
ATOM     14  O   UNL     1       1.893   8.636  22.468  0.00  0.00    +0.000 OA
ATOM     15  H   UNL     1       1.982   7.751  22.045  0.00  0.00    +0.000 HD
ENDBRANCH   9  14
BRANCH   1  16
ATOM     16  C   UNL     1       0.134  12.246  19.484  0.00  0.00    +0.000 C 
BRANCH  16  22
ATOM     17  C   UNL     1      -0.429  15.411  20.152  0.00  0.00    +0.000 C 
ATOM     18  C   UNL     1       0.262  15.039  21.242  0.00  0.00    +0.000 C 
ATOM     19  C   UNL     1       0.120  15.446  22.663  0.00  0.00    +0.000 C 
ATOM     20  C   UNL     1       1.289  14.052  20.842  0.00  0.00    +0.000 C 
ATOM     21  O   UNL     1       2.249  13.790  21.536  0.00  0.00    +0.000 OA
ATOM     22  C   UNL     1       0.990  13.521  19.453  0.00  0.00    +0.000 C 
ATOM     23  C   UNL     1       2.241  13.379  18.605  0.00  0.00    +0.000 C 
ATOM     24  C   UNL     1       0.083  14.627  18.992  0.00  0.00    +0.000 C 
ATOM     25  O   UNL     1      -0.223  14.863  17.822  0.00  0.00    +0.000 OA
BRANCH  17  26
ATOM     26  C   UNL     1      -1.567  16.362  20.027  0.00  0.00    +0.000 C 
BRANCH  26  27
ATOM     27  C   UNL     1      -1.071  17.808  20.071  0.00  0.00    +0.000 C 
BRANCH  27  29
ATOM     28  C   UNL     1      -0.818  18.382  17.656  0.00  0.00    +0.000 C 
ATOM     29  C   UNL     1      -0.077  18.122  18.958  0.00  0.00    +0.000 C 
ENDBRANCH  27  29
ENDBRANCH  26  27
ENDBRANCH  17  26
ENDBRANCH  16  22
ENDBRANCH   1  16
TORSDOF 6
ENDMDL
MODEL 5
REMARK VINA RESULT:      -6.0      1.190      1.453
REMARK  Name = 
REMARK  9 active torsions:
REMARK  status: ('A' for Active; 'I' for Inactive)
REMARK    1  A    between atoms: C_1  and  C_2
REMARK    2  A    between atoms: C_2  and  C_3
REMARK    3  A    between atoms: C_3  and  C_4
REMARK    4  A    between atoms: C_4  and  C_5
REMARK    5  A    between atoms: C_6  and  C_7
REMARK    6  A    between atoms: C_10  and  C_11
REMARK    7  A    between atoms: C_10  and  C_12
REMARK    8  A    between atoms: C_12  and  N_13
REMARK    9  A    between atoms: C_21  and  O_22
REMARK                            x       y       z     vdW  Elec       q    Type
REMARK                         _______ _______ _______ _____ _____    ______ ____
ROOT
ATOM      1  N   UNL     1      -0.776  12.028  20.532  0.00  0.00    +0.000 N 
ATOM      2  C   UNL     1      -1.605  11.470  19.574  0.00  0.00    +0.000 A 
ATOM      3  C   UNL     1      -2.670  12.153  18.981  0.00  0.00    +0.000 A 
ATOM      4  C   UNL     1      -3.147  11.729  17.743  0.00  0.00    +0.000 A 
ATOM      5  C   UNL     1      -2.574  10.608  17.144  0.00  0.00    +0.000 A 
ATOM      6  I   UNL     1      -3.091  10.153  15.171  0.00  0.00    +0.000 I 
ATOM      7  C   UNL     1      -1.577   9.860  17.795  0.00  0.00    +0.000 A 
ATOM      8  C   UNL     1      -1.092  10.270  19.048  0.00  0.00    +0.000 A 
ATOM      9  C   UNL     1       0.245   9.912  19.698  0.00  0.00    +0.000 C 
ATOM     10  C   UNL     1       0.772   8.861  20.697  0.00  0.00    +0.000 C 
ATOM     11  C   UNL     1       1.322   9.628  21.895  0.00  0.00    +0.000 C 
ATOM     12  O   UNL     1       0.718  10.900  21.899  0.00  0.00    +0.000 OA
ATOM     13  C   UNL     1       0.450  11.233  20.537  0.00  0.00    +0.000 C 
ENDROOT
BRANCH   9  14
ATOM     14  O   UNL     1       1.085   9.666  18.549  0.00  0.00    +0.000 OA
ATOM     15  H   UNL     1       0.433   9.547  17.820  0.00  0.00    +0.000 HD
ENDBRANCH   9  14
BRANCH   1  16
ATOM     16  C   UNL     1      -1.233  12.830  21.656  0.00  0.00    +0.000 C 
BRANCH  16  22
ATOM     17  C   UNL     1      -2.512  15.565  22.943  0.00  0.00    +0.000 C 
ATOM     18  C   UNL     1      -1.343  15.496  23.602  0.00  0.00    +0.000 C 
ATOM     19  C   UNL     1      -1.001  15.843  25.005  0.00  0.00    +0.000 C 
ATOM     20  C   UNL     1      -0.312  14.957  22.687  0.00  0.00    +0.000 C 
ATOM     21  O   UNL     1       0.876  15.084  22.896  0.00  0.00    +0.000 OA
ATOM     22  C   UNL     1      -0.968  14.332  21.471  0.00  0.00    +0.000 C 
ATOM     23  C   UNL     1      -0.230  14.653  20.184  0.00  0.00    +0.000 C 
ATOM     24  C   UNL     1      -2.304  15.012  21.575  0.00  0.00    +0.000 C 
ATOM     25  O   UNL     1      -3.137  15.098  20.671  0.00  0.00    +0.000 OA
BRANCH  17  26
ATOM     26  C   UNL     1      -3.846  16.021  23.421  0.00  0.00    +0.000 C 
BRANCH  26  27
ATOM     27  C   UNL     1      -4.440  15.017  24.410  0.00  0.00    +0.000 C 
BRANCH  27  29
ATOM     28  C   UNL     1      -4.116  12.544  24.458  0.00  0.00    +0.000 C 
ATOM     29  C   UNL     1      -4.815  13.695  23.751  0.00  0.00    +0.000 C 
ENDBRANCH  27  29
ENDBRANCH  26  27
ENDBRANCH  17  26
ENDBRANCH  16  22
ENDBRANCH   1  16
TORSDOF 6
ENDMDL
MODEL 6
REMARK VINA RESULT:      -5.9      7.834     12.913
REMARK  Name = 
REMARK  9 active torsions:
REMARK  status: ('A' for Active; 'I' for Inactive)
REMARK    1  A    between atoms: C_1  and  C_2
REMARK    2  A    between atoms: C_2  and  C_3
REMARK    3  A    between atoms: C_3  and  C_4
REMARK    4  A    between atoms: C_4  and  C_5
REMARK    5  A    between atoms: C_6  and  C_7
REMARK    6  A    between atoms: C_10  and  C_11
REMARK    7  A    between atoms: C_10  and  C_12
REMARK    8  A    between atoms: C_12  and  N_13
REMARK    9  A    between atoms: C_21  and  O_22
REMARK                            x       y       z     vdW  Elec       q    Type
REMARK                         _______ _______ _______ _____ _____    ______ ____
ROOT
ATOM      1  N   UNL     1       4.034   5.874  17.605  0.00  0.00    +0.000 N 
ATOM      2  C   UNL     1       3.216   4.969  18.259  0.00  0.00    +0.000 A 
ATOM      3  C   UNL     1       3.469   3.596  18.313  0.00  0.00    +0.000 A 
ATOM      4  C   UNL     1       2.904   2.838  19.335  0.00  0.00    +0.000 A 
ATOM      5  C   UNL     1       2.066   3.463  20.257  0.00  0.00    +0.000 A 
ATOM      6  I   UNL     1       1.458   2.389  21.944  0.00  0.00    +0.000 I 
ATOM      7  C   UNL     1       1.727   4.822  20.135  0.00  0.00    +0.000 A 
ATOM      8  C   UNL     1       2.283   5.597  19.104  0.00  0.00    +0.000 A 
ATOM      9  C   UNL     1       2.430   7.118  19.052  0.00  0.00    +0.000 C 
ATOM     10  C   UNL     1       1.639   8.313  18.480  0.00  0.00    +0.000 C 
ATOM     11  C   UNL     1       2.550   9.005  17.473  0.00  0.00    +0.000 C 
ATOM     12  O   UNL     1       3.519   8.068  17.063  0.00  0.00    +0.000 OA
ATOM     13  C   UNL     1       3.735   7.189  18.167  0.00  0.00    +0.000 C 
ENDROOT
BRANCH   9  14
ATOM     14  O   UNL     1       2.505   7.465  20.452  0.00  0.00    +0.000 OA
ATOM     15  H   UNL     1       2.652   6.593  20.888  0.00  0.00    +0.000 HD
ENDBRANCH   9  14
BRANCH   1  16
ATOM     16  C   UNL     1       4.615   5.662  16.289  0.00  0.00    +0.000 C 
BRANCH  16  22
ATOM     17  C   UNL     1       6.377   3.976  14.091  0.00  0.00    +0.000 C 
ATOM     18  C   UNL     1       7.088   5.113  14.169  0.00  0.00    +0.000 C 
ATOM     19  C   UNL     1       7.822   5.869  13.123  0.00  0.00    +0.000 C 
ATOM     20  C   UNL     1       7.047   5.606  15.564  0.00  0.00    +0.000 C 
ATOM     21  O   UNL     1       7.843   6.413  15.996  0.00  0.00    +0.000 OA
ATOM     22  C   UNL     1       5.948   4.900  16.335  0.00  0.00    +0.000 C 
ATOM     23  C   UNL     1       6.375   4.530  17.744  0.00  0.00    +0.000 C 
ATOM     24  C   UNL     1       5.785   3.709  15.433  0.00  0.00    +0.000 C 
ATOM     25  O   UNL     1       5.227   2.652  15.734  0.00  0.00    +0.000 OA
BRANCH  17  26
ATOM     26  C   UNL     1       6.103   3.105  12.916  0.00  0.00    +0.000 C 
BRANCH  26  27
ATOM     27  C   UNL     1       5.188   3.817  11.917  0.00  0.00    +0.000 C 
BRANCH  27  29
ATOM     28  C   UNL     1       3.332   3.631  10.261  0.00  0.00    +0.000 C 
ATOM     29  C   UNL     1       4.263   2.856  11.180  0.00  0.00    +0.000 C 
ENDBRANCH  27  29
ENDBRANCH  26  27
ENDBRANCH  17  26
ENDBRANCH  16  22
ENDBRANCH   1  16
TORSDOF 6
ENDMDL
MODEL 7
REMARK VINA RESULT:      -5.9      2.804      5.448
REMARK  Name = 
REMARK  9 active torsions:
REMARK  status: ('A' for Active; 'I' for Inactive)
REMARK    1  A    between atoms: C_1  and  C_2
REMARK    2  A    between atoms: C_2  and  C_3
REMARK    3  A    between atoms: C_3  and  C_4
REMARK    4  A    between atoms: C_4  and  C_5
REMARK    5  A    between atoms: C_6  and  C_7
REMARK    6  A    between atoms: C_10  and  C_11
REMARK    7  A    between atoms: C_10  and  C_12
REMARK    8  A    between atoms: C_12  and  N_13
REMARK    9  A    between atoms: C_21  and  O_22
REMARK                            x       y       z     vdW  Elec       q    Type
REMARK                         _______ _______ _______ _____ _____    ______ ____
ROOT
ATOM      1  N   UNL     1      -1.225  13.052  20.365  0.00  0.00    +0.000 N 
ATOM      2  C   UNL     1      -2.520  12.602  20.166  0.00  0.00    +0.000 A 
ATOM      3  C   UNL     1      -3.632  13.132  20.825  0.00  0.00    +0.000 A 
ATOM      4  C   UNL     1      -4.896  12.976  20.262  0.00  0.00    +0.000 A 
ATOM      5  C   UNL     1      -5.024  12.259  19.073  0.00  0.00    +0.000 A 
ATOM      6  I   UNL     1      -6.867  12.276  18.088  0.00  0.00    +0.000 I 
ATOM      7  C   UNL     1      -3.916  11.635  18.472  0.00  0.00    +0.000 A 
ATOM      8  C   UNL     1      -2.637  11.776  19.034  0.00  0.00    +0.000 A 
ATOM      9  C   UNL     1      -1.285  11.598  18.341  0.00  0.00    +0.000 C 
ATOM     10  C   UNL     1      -0.243  10.474  18.165  0.00  0.00    +0.000 C 
ATOM     11  C   UNL     1       1.057  10.977  18.782  0.00  0.00    +0.000 C 
ATOM     12  O   UNL     1       0.727  11.997  19.696  0.00  0.00    +0.000 OA
ATOM     13  C   UNL     1      -0.453  12.628  19.200  0.00  0.00    +0.000 C 
ENDROOT
BRANCH   9  14
ATOM     14  O   UNL     1      -1.603  11.915  16.968  0.00  0.00    +0.000 OA
ATOM     15  H   UNL     1      -2.574  12.081  16.999  0.00  0.00    +0.000 HD
ENDBRANCH   9  14
BRANCH   1  16
ATOM     16  C   UNL     1      -0.645  13.353  21.663  0.00  0.00    +0.000 C 
BRANCH  16  22
ATOM     17  C   UNL     1       1.300  15.713  20.469  0.00  0.00    +0.000 C 
ATOM     18  C   UNL     1       0.146  15.990  19.839  0.00  0.00    +0.000 C 
ATOM     19  C   UNL     1      -0.110  16.487  18.463  0.00  0.00    +0.000 C 
ATOM     20  C   UNL     1      -0.979  15.699  20.755  0.00  0.00    +0.000 C 
ATOM     21  O   UNL     1      -2.094  16.146  20.584  0.00  0.00    +0.000 OA
ATOM     22  C   UNL     1      -0.498  14.860  21.923  0.00  0.00    +0.000 C 
ATOM     23  C   UNL     1      -1.106  15.300  23.242  0.00  0.00    +0.000 C 
ATOM     24  C   UNL     1       0.970  15.166  21.816  0.00  0.00    +0.000 C 
ATOM     25  O   UNL     1       1.807  14.981  22.700  0.00  0.00    +0.000 OA
BRANCH  17  26
ATOM     26  C   UNL     1       2.701  15.823  19.978  0.00  0.00    +0.000 C 
BRANCH  26  27
ATOM     27  C   UNL     1       3.237  14.452  19.561  0.00  0.00    +0.000 C 
BRANCH  27  29
ATOM     28  C   UNL     1       3.510  15.616  17.372  0.00  0.00    +0.000 C 
ATOM     29  C   UNL     1       3.279  14.273  18.048  0.00  0.00    +0.000 C 
ENDBRANCH  27  29
ENDBRANCH  26  27
ENDBRANCH  17  26
ENDBRANCH  16  22
ENDBRANCH   1  16
TORSDOF 6
ENDMDL
MODEL 8
REMARK VINA RESULT:      -5.8      3.415      4.510
REMARK  Name = 
REMARK  9 active torsions:
REMARK  status: ('A' for Active; 'I' for Inactive)
REMARK    1  A    between atoms: C_1  and  C_2
REMARK    2  A    between atoms: C_2  and  C_3
REMARK    3  A    between atoms: C_3  and  C_4
REMARK    4  A    between atoms: C_4  and  C_5
REMARK    5  A    between atoms: C_6  and  C_7
REMARK    6  A    between atoms: C_10  and  C_11
REMARK    7  A    between atoms: C_10  and  C_12
REMARK    8  A    between atoms: C_12  and  N_13
REMARK    9  A    between atoms: C_21  and  O_22
REMARK                            x       y       z     vdW  Elec       q    Type
REMARK                         _______ _______ _______ _____ _____    ______ ____
ROOT
ATOM      1  N   UNL     1       0.813  11.241  20.137  0.00  0.00    +0.000 N 
ATOM      2  C   UNL     1       1.078  10.054  19.475  0.00  0.00    +0.000 A 
ATOM      3  C   UNL     1       1.586   9.990  18.175  0.00  0.00    +0.000 A 
ATOM      4  C   UNL     1       2.249   8.839  17.758  0.00  0.00    +0.000 A 
ATOM      5  C   UNL     1       2.355   7.762  18.637  0.00  0.00    +0.000 A 
ATOM      6  I   UNL     1       3.592   6.161  18.115  0.00  0.00    +0.000 I 
ATOM      7  C   UNL     1       1.747   7.790  19.905  0.00  0.00    +0.000 A 
ATOM      8  C   UNL     1       1.067   8.941  20.336  0.00  0.00    +0.000 A 
ATOM      9  C   UNL     1       0.752   9.360  21.772  0.00  0.00    +0.000 C 
ATOM     10  C   UNL     1      -0.428   9.229  22.757  0.00  0.00    +0.000 C 
ATOM     11  C   UNL     1      -0.868  10.646  23.110  0.00  0.00    +0.000 C 
ATOM     12  O   UNL     1      -0.421  11.498  22.081  0.00  0.00    +0.000 OA
ATOM     13  C   UNL     1       0.778  10.924  21.563  0.00  0.00    +0.000 C 
ENDROOT
BRANCH   9  14
ATOM     14  O   UNL     1       1.818   8.728  22.514  0.00  0.00    +0.000 OA
ATOM     15  H   UNL     1       1.493   8.765  23.443  0.00  0.00    +0.000 HD
ENDBRANCH   9  14
BRANCH   1  16
ATOM     16  C   UNL     1       0.155  12.392  19.540  0.00  0.00    +0.000 C 
BRANCH  16  22
ATOM     17  C   UNL     1      -0.161  15.549  20.380  0.00  0.00    +0.000 C 
ATOM     18  C   UNL     1       0.636  15.102  21.364  0.00  0.00    +0.000 C 
ATOM     19  C   UNL     1       0.688  15.458  22.805  0.00  0.00    +0.000 C 
ATOM     20  C   UNL     1       1.557  14.085  20.808  0.00  0.00    +0.000 C 
ATOM     21  O   UNL     1       2.578  13.752  21.370  0.00  0.00    +0.000 OA
ATOM     22  C   UNL     1       1.066  13.626  19.448  0.00  0.00    +0.000 C 
ATOM     23  C   UNL     1       2.196  13.460  18.449  0.00  0.00    +0.000 C 
ATOM     24  C   UNL     1       0.168  14.790  19.140  0.00  0.00    +0.000 C 
ATOM     25  O   UNL     1      -0.265  15.087  18.025  0.00  0.00    +0.000 OA
BRANCH  17  26
ATOM     26  C   UNL     1      -1.255  16.557  20.428  0.00  0.00    +0.000 C 
BRANCH  26  27
ATOM     27  C   UNL     1      -2.612  15.874  20.606  0.00  0.00    +0.000 C 
BRANCH  27  29
ATOM     28  C   UNL     1      -2.842  16.891  22.872  0.00  0.00    +0.000 C 
ATOM     29  C   UNL     1      -2.946  15.604  22.069  0.00  0.00    +0.000 C 
ENDBRANCH  27  29
ENDBRANCH  26  27
ENDBRANCH  17  26
ENDBRANCH  16  22
ENDBRANCH   1  16
TORSDOF 6
ENDMDL
MODEL 9
REMARK VINA RESULT:      -5.8      2.258      4.325
REMARK  Name = 
REMARK  9 active torsions:
REMARK  status: ('A' for Active; 'I' for Inactive)
REMARK    1  A    between atoms: C_1  and  C_2
REMARK    2  A    between atoms: C_2  and  C_3
REMARK    3  A    between atoms: C_3  and  C_4
REMARK    4  A    between atoms: C_4  and  C_5
REMARK    5  A    between atoms: C_6  and  C_7
REMARK    6  A    between atoms: C_10  and  C_11
REMARK    7  A    between atoms: C_10  and  C_12
REMARK    8  A    between atoms: C_12  and  N_13
REMARK    9  A    between atoms: C_21  and  O_22
REMARK                            x       y       z     vdW  Elec       q    Type
REMARK                         _______ _______ _______ _____ _____    ______ ____
ROOT
ATOM      1  N   UNL     1      -2.927  12.286  19.918  0.00  0.00    +0.000 N 
ATOM      2  C   UNL     1      -1.737  11.882  19.337  0.00  0.00    +0.000 A 
ATOM      3  C   UNL     1      -0.493  11.990  19.966  0.00  0.00    +0.000 A 
ATOM      4  C   UNL     1       0.553  11.171  19.551  0.00  0.00    +0.000 A 
ATOM      5  C   UNL     1       0.345  10.290  18.491  0.00  0.00    +0.000 A 
ATOM      6  I   UNL     1       1.817   8.869  18.067  0.00  0.00    +0.000 I 
ATOM      7  C   UNL     1      -0.874  10.262  17.791  0.00  0.00    +0.000 A 
ATOM      8  C   UNL     1      -1.937  11.090  18.193  0.00  0.00    +0.000 A 
ATOM      9  C   UNL     1      -3.427  10.906  17.904  0.00  0.00    +0.000 C 
ATOM     10  C   UNL     1      -4.448  11.403  16.860  0.00  0.00    +0.000 C 
ATOM     11  C   UNL     1      -5.522  12.171  17.622  0.00  0.00    +0.000 C 
ATOM     12  O   UNL     1      -4.963  12.576  18.850  0.00  0.00    +0.000 OA
ATOM     13  C   UNL     1      -3.996  11.589  19.208  0.00  0.00    +0.000 C 
ENDROOT
BRANCH   9  14
ATOM     14  O   UNL     1      -3.533   9.474  17.753  0.00  0.00    +0.000 OA
ATOM     15  H   UNL     1      -3.609   9.359  16.777  0.00  0.00    +0.000 HD
ENDBRANCH   9  14
BRANCH   1  16
ATOM     16  C   UNL     1      -3.108  13.529  20.651  0.00  0.00    +0.000 C 
BRANCH  16  22
ATOM     17  C   UNL     1      -4.286  15.415  23.067  0.00  0.00    +0.000 C 
ATOM     18  C   UNL     1      -5.350  14.636  22.810  0.00  0.00    +0.000 C 
ATOM     19  C   UNL     1      -6.802  14.947  22.818  0.00  0.00    +0.000 C 
ATOM     20  C   UNL     1      -4.874  13.280  22.457  0.00  0.00    +0.000 C 
ATOM     21  O   UNL     1      -5.595  12.305  22.491  0.00  0.00    +0.000 OA
ATOM     22  C   UNL     1      -3.390  13.312  22.146  0.00  0.00    +0.000 C 
ATOM     23  C   UNL     1      -2.650  12.120  22.724  0.00  0.00    +0.000 C 
ATOM     24  C   UNL     1      -3.056  14.607  22.831  0.00  0.00    +0.000 C 
ATOM     25  O   UNL     1      -1.924  14.979  23.148  0.00  0.00    +0.000 OA
BRANCH  17  26
ATOM     26  C   UNL     1      -4.231  16.852  23.449  0.00  0.00    +0.000 C 
BRANCH  26  27
ATOM     27  C   UNL     1      -4.002  17.004  24.954  0.00  0.00    +0.000 C 
BRANCH  27  29
ATOM     28  C   UNL     1      -1.732  16.888  25.980  0.00  0.00    +0.000 C 
ATOM     29  C   UNL     1      -2.737  17.789  25.280  0.00  0.00    +0.000 C 
ENDBRANCH  27  29
ENDBRANCH  26  27
ENDBRANCH  17  26
ENDBRANCH  16  22
ENDBRANCH   1  16
TORSDOF 6
ENDMDL
