MODEL 1
REMARK VINA RESULT:      -9.4      0.000      0.000
REMARK  Name = 
REMARK  7 active torsions:
REMARK  status: ('A' for Active; 'I' for Inactive)
REMARK    1  A    between atoms: C_1  and  N_2
REMARK    2  A    between atoms: C_3  and  C_5
REMARK    3  A    between atoms: C_10  and  N_11
REMARK    4  A    between atoms: N_11  and  C_12
REMARK    5  A    between atoms: N_15  and  C_16
REMARK    6  A    between atoms: N_23  and  C_24
REMARK    7  A    between atoms: C_31  and  C_32
REMARK                            x       y       z     vdW  Elec       q    Type
REMARK                         _______ _______ _______ _____ _____    ______ ____
ROOT
ATOM      1  C   UNL     1       2.471   7.013  19.731  0.00  0.00    +0.000 A 
ATOM      2  N   UNL     1       1.679   7.498  20.713  0.00  0.00    +0.000 NA
ATOM      3  C   UNL     1       1.013   8.645  20.505  0.00  0.00    +0.000 A 
ATOM      4  N   UNL     1       0.309   9.154  21.603  0.00  0.00    +0.000 N 
ATOM      5  N   UNL     1       1.059   9.321  19.357  0.00  0.00    +0.000 NA
ATOM      6  C   UNL     1       1.868   8.846  18.404  0.00  0.00    +0.000 A 
ATOM      7  C   UNL     1       2.643   7.713  18.543  0.00  0.00    +0.000 A 
ATOM      8  C   UNL     1       3.529   7.288  17.420  0.00  0.00    +0.000 C 
ATOM      9  H   UNL     1       0.536   8.577  22.401  0.00  0.00    +0.000 HD
ENDROOT
BRANCH   4  10
ATOM     10  C   UNL     1      -0.034  10.481  21.873  0.00  0.00    +0.000 A 
ATOM     11  C   UNL     1      -1.068  10.746  22.767  0.00  0.00    +0.000 A 
ATOM     12  C   UNL     1      -1.388  12.064  23.096  0.00  0.00    +0.000 A 
ATOM     13  C   UNL     1      -0.692  13.128  22.525  0.00  0.00    +0.000 A 
ATOM     14  N   UNL     1      -0.969  14.411  22.964  0.00  0.00    +0.000 N 
ATOM     15  C   UNL     1       0.021  15.472  22.754  0.00  0.00    +0.000 C 
ATOM     16  C   UNL     1      -0.214  16.551  23.848  0.00  0.00    +0.000 C 
ATOM     17  N   UNL     1      -1.603  17.084  23.866  0.00  0.00    +0.000 NA
ATOM     18  C   UNL     1      -1.792  17.988  25.000  0.00  0.00    +0.000 C 
ATOM     19  C   UNL     1      -2.574  15.965  23.941  0.00  0.00    +0.000 C 
ATOM     20  C   UNL     1      -2.347  14.900  22.847  0.00  0.00    +0.000 C 
ATOM     21  N   UNL     1       0.297  12.898  21.643  0.00  0.00    +0.000 NA
ATOM     22  C   UNL     1       0.588  11.604  21.330  0.00  0.00    +0.000 A 
ENDBRANCH   4  10
BRANCH   1  23
ATOM     23  N   UNL     1       3.219   5.820  19.975  0.00  0.00    +0.000 N 
ATOM     24  H   UNL     1       4.200   6.000  19.762  0.00  0.00    +0.000 HD
BRANCH  23  30
ATOM     25  C   UNL     1       3.900   3.813  18.660  0.00  0.00    +0.000 A 
ATOM     26  C   UNL     1       3.518   2.645  17.965  0.00  0.00    +0.000 A 
ATOM     27  C   UNL     1       2.196   2.207  17.956  0.00  0.00    +0.000 A 
ATOM     28  C   UNL     1       1.232   2.938  18.633  0.00  0.00    +0.000 A 
ATOM     29  C   UNL     1       1.595   4.093  19.331  0.00  0.00    +0.000 A 
ATOM     30  C   UNL     1       2.932   4.543  19.387  0.00  0.00    +0.000 A 
BRANCH  25  33
ATOM     31  C   UNL     1       7.249   4.607  17.075  0.00  0.00    +0.000 C 
ATOM     32  N   UNL     1       5.933   4.060  17.295  0.00  0.00    +0.000 N 
ATOM     33  C   UNL     1       5.347   4.166  18.536  0.00  0.00    +0.000 C 
ATOM     34  O   UNL     1       5.960   4.583  19.516  0.00  0.00    +0.000 OA
ATOM     35  H   UNL     1       5.343   3.825  16.503  0.00  0.00    +0.000 HD
ENDBRANCH  25  33
ENDBRANCH  23  30
ENDBRANCH   1  23
TORSDOF 4
ENDMDL
MODEL 2
REMARK VINA RESULT:      -9.1      0.817      1.366
REMARK  Name = 
REMARK  7 active torsions:
REMARK  status: ('A' for Active; 'I' for Inactive)
REMARK    1  A    between atoms: C_1  and  N_2
REMARK    2  A    between atoms: C_3  and  C_5
REMARK    3  A    between atoms: C_10  and  N_11
REMARK    4  A    between atoms: N_11  and  C_12
REMARK    5  A    between atoms: N_15  and  C_16
REMARK    6  A    between atoms: N_23  and  C_24
REMARK    7  A    between atoms: C_31  and  C_32
REMARK                            x       y       z     vdW  Elec       q    Type
REMARK                         _______ _______ _______ _____ _____    ______ ____
ROOT
ATOM      1  C   UNL     1       2.478   6.963  19.722  0.00  0.00    +0.000 A 
ATOM      2  N   UNL     1       1.688   7.404  20.725  0.00  0.00    +0.000 NA
ATOM      3  C   UNL     1       1.001   8.546  20.558  0.00  0.00    +0.000 A 
ATOM      4  N   UNL     1       0.300   9.010  21.676  0.00  0.00    +0.000 N 
ATOM      5  N   UNL     1       1.026   9.257  19.430  0.00  0.00    +0.000 NA
ATOM      6  C   UNL     1       1.833   8.824  18.456  0.00  0.00    +0.000 A 
ATOM      7  C   UNL     1       2.627   7.700  18.554  0.00  0.00    +0.000 A 
ATOM      8  C   UNL     1       3.509   7.324  17.410  0.00  0.00    +0.000 C 
ATOM      9  H   UNL     1       0.544   8.414  22.455  0.00  0.00    +0.000 HD
ENDROOT
BRANCH   4  10
ATOM     10  C   UNL     1      -0.062  10.323  21.990  0.00  0.00    +0.000 A 
ATOM     11  C   UNL     1       0.428  11.366  21.208  0.00  0.00    +0.000 A 
ATOM     12  C   UNL     1       0.031  12.679  21.467  0.00  0.00    +0.000 A 
ATOM     13  C   UNL     1      -0.842  12.965  22.516  0.00  0.00    +0.000 A 
ATOM     14  N   UNL     1      -1.293  14.265  22.665  0.00  0.00    +0.000 N 
ATOM     15  C   UNL     1      -2.525  14.516  23.418  0.00  0.00    +0.000 C 
ATOM     16  C   UNL     1      -3.126  15.852  22.898  0.00  0.00    +0.000 C 
ATOM     17  N   UNL     1      -2.181  16.998  22.982  0.00  0.00    +0.000 NA
ATOM     18  C   UNL     1      -2.757  18.186  22.352  0.00  0.00    +0.000 C 
ATOM     19  C   UNL     1      -0.899  16.647  22.324  0.00  0.00    +0.000 C 
ATOM     20  C   UNL     1      -0.297  15.326  22.850  0.00  0.00    +0.000 C 
ATOM     21  N   UNL     1      -1.312  11.976  23.297  0.00  0.00    +0.000 NA
ATOM     22  C   UNL     1      -0.906  10.703  23.031  0.00  0.00    +0.000 A 
ENDBRANCH   4  10
BRANCH   1  23
ATOM     23  N   UNL     1       3.248   5.774  19.923  0.00  0.00    +0.000 N 
ATOM     24  H   UNL     1       4.218   5.968  19.676  0.00  0.00    +0.000 HD
BRANCH  23  30
ATOM     25  C   UNL     1       3.919   3.766  18.605  0.00  0.00    +0.000 A 
ATOM     26  C   UNL     1       3.531   2.604  17.904  0.00  0.00    +0.000 A 
ATOM     27  C   UNL     1       2.205   2.177  17.886  0.00  0.00    +0.000 A 
ATOM     28  C   UNL     1       1.244   2.914  18.559  0.00  0.00    +0.000 A 
ATOM     29  C   UNL     1       1.612   4.064  19.264  0.00  0.00    +0.000 A 
ATOM     30  C   UNL     1       2.952   4.502  19.328  0.00  0.00    +0.000 A 
BRANCH  25  33
ATOM     31  C   UNL     1       7.271   4.593  17.043  0.00  0.00    +0.000 C 
ATOM     32  N   UNL     1       5.949   4.052  17.243  0.00  0.00    +0.000 N 
ATOM     33  C   UNL     1       5.369   4.108  18.490  0.00  0.00    +0.000 C 
ATOM     34  O   UNL     1       5.992   4.471  19.486  0.00  0.00    +0.000 OA
ATOM     35  H   UNL     1       5.353   3.861  16.443  0.00  0.00    +0.000 HD
ENDBRANCH  25  33
ENDBRANCH  23  30
ENDBRANCH   1  23
TORSDOF 4
ENDMDL
MODEL 3
REMARK VINA RESULT:      -8.9      3.250      4.535
REMARK  Name = 
REMARK  7 active torsions:
REMARK  status: ('A' for Active; 'I' for Inactive)
REMARK    1  A    between atoms: C_1  and  N_2
REMARK    2  A    between atoms: C_3  and  C_5
REMARK    3  A    between atoms: C_10  and  N_11
REMARK    4  A    between atoms: N_11  and  C_12
REMARK    5  A    between atoms: N_15  and  C_16
REMARK    6  A    between atoms: N_23  and  C_24
REMARK    7  A    between atoms: C_31  and  C_32
REMARK                            x       y       z     vdW  Elec       q    Type
REMARK                         _______ _______ _______ _____ _____    ______ ____
ROOT
ATOM      1  C   UNL     1       2.632   7.054  18.310  0.00  0.00    +0.000 A 
ATOM      2  N   UNL     1       2.050   8.134  17.743  0.00  0.00    +0.000 NA
ATOM      3  C   UNL     1       1.313   8.953  18.510  0.00  0.00    +0.000 A 
ATOM      4  N   UNL     1       0.640   9.981  17.839  0.00  0.00    +0.000 N 
ATOM      5  N   UNL     1       1.151   8.781  19.822  0.00  0.00    +0.000 NA
ATOM      6  C   UNL     1       1.709   7.693  20.365  0.00  0.00    +0.000 A 
ATOM      7  C   UNL     1       2.430   6.758  19.653  0.00  0.00    +0.000 A 
ATOM      8  C   UNL     1       2.987   5.568  20.360  0.00  0.00    +0.000 C 
ATOM      9  H   UNL     1       0.772   9.833  16.848  0.00  0.00    +0.000 HD
ENDROOT
BRANCH   4  10
ATOM     10  C   UNL     1      -0.532  10.641  18.217  0.00  0.00    +0.000 A 
ATOM     11  C   UNL     1      -1.762  10.106  17.844  0.00  0.00    +0.000 A 
ATOM     12  C   UNL     1      -2.946  10.716  18.262  0.00  0.00    +0.000 A 
ATOM     13  C   UNL     1      -2.914  11.873  19.040  0.00  0.00    +0.000 A 
ATOM     14  N   UNL     1      -4.109  12.379  19.522  0.00  0.00    +0.000 N 
ATOM     15  C   UNL     1      -4.094  13.272  20.684  0.00  0.00    +0.000 C 
ATOM     16  C   UNL     1      -5.478  13.154  21.380  0.00  0.00    +0.000 C 
ATOM     17  N   UNL     1      -6.623  13.441  20.475  0.00  0.00    +0.000 NA
ATOM     18  C   UNL     1      -7.893  13.178  21.152  0.00  0.00    +0.000 C 
ATOM     19  C   UNL     1      -6.521  12.611  19.250  0.00  0.00    +0.000 C 
ATOM     20  C   UNL     1      -5.149  12.738  18.552  0.00  0.00    +0.000 C 
ATOM     21  N   UNL     1      -1.738  12.419  19.395  0.00  0.00    +0.000 NA
ATOM     22  C   UNL     1      -0.595  11.811  18.971  0.00  0.00    +0.000 A 
ENDBRANCH   4  10
BRANCH   1  23
ATOM     23  N   UNL     1       3.373   6.156  17.481  0.00  0.00    +0.000 N 
ATOM     24  H   UNL     1       3.038   5.207  17.646  0.00  0.00    +0.000 HD
BRANCH  23  30
ATOM     25  C   UNL     1       5.482   4.892  17.901  0.00  0.00    +0.000 A 
ATOM     26  C   UNL     1       6.889   4.906  18.020  0.00  0.00    +0.000 A 
ATOM     27  C   UNL     1       7.628   6.054  17.742  0.00  0.00    +0.000 A 
ATOM     28  C   UNL     1       6.969   7.210  17.353  0.00  0.00    +0.000 A 
ATOM     29  C   UNL     1       5.577   7.211  17.225  0.00  0.00    +0.000 A 
ATOM     30  C   UNL     1       4.804   6.054  17.466  0.00  0.00    +0.000 A 
BRANCH  25  33
ATOM     31  C   UNL     1       4.472   1.883  19.970  0.00  0.00    +0.000 C 
ATOM     32  N   UNL     1       5.222   3.001  19.455  0.00  0.00    +0.000 N 
ATOM     33  C   UNL     1       4.839   3.596  18.274  0.00  0.00    +0.000 C 
ATOM     34  O   UNL     1       3.963   3.120  17.555  0.00  0.00    +0.000 OA
ATOM     35  H   UNL     1       5.863   3.504  20.061  0.00  0.00    +0.000 HD
ENDBRANCH  25  33
ENDBRANCH  23  30
ENDBRANCH   1  23
TORSDOF 4
ENDMDL
MODEL 4
REMARK VINA RESULT:      -8.8      1.208      1.289
REMARK  Name = 
REMARK  7 active torsions:
REMARK  status: ('A' for Active; 'I' for Inactive)
REMARK    1  A    between atoms: C_1  and  N_2
REMARK    2  A    between atoms: C_3  and  C_5
REMARK    3  A    between atoms: C_10  and  N_11
REMARK    4  A    between atoms: N_11  and  C_12
REMARK    5  A    between atoms: N_15  and  C_16
REMARK    6  A    between atoms: N_23  and  C_24
REMARK    7  A    between atoms: C_31  and  C_32
REMARK                            x       y       z     vdW  Elec       q    Type
REMARK                         _______ _______ _______ _____ _____    ______ ____
ROOT
ATOM      1  C   UNL     1       2.617   7.106  19.388  0.00  0.00    +0.000 A 
ATOM      2  N   UNL     1       1.762   7.731  20.227  0.00  0.00    +0.000 NA
ATOM      3  C   UNL     1       1.189   8.881  19.836  0.00  0.00    +0.000 A 
ATOM      4  N   UNL     1       0.412   9.537  20.796  0.00  0.00    +0.000 N 
ATOM      5  N   UNL     1       1.390   9.427  18.637  0.00  0.00    +0.000 NA
ATOM      6  C   UNL     1       2.260   8.814  17.827  0.00  0.00    +0.000 A 
ATOM      7  C   UNL     1       2.948   7.666  18.161  0.00  0.00    +0.000 A 
ATOM      8  C   UNL     1       3.914   7.081  17.185  0.00  0.00    +0.000 C 
ATOM      9  H   UNL     1       0.523   9.039  21.669  0.00  0.00    +0.000 HD
ENDROOT
BRANCH   4  10
ATOM     10  C   UNL     1       0.123  10.901  20.894  0.00  0.00    +0.000 A 
ATOM     11  C   UNL     1      -1.156  11.348  20.575  0.00  0.00    +0.000 A 
ATOM     12  C   UNL     1      -1.483  12.697  20.723  0.00  0.00    +0.000 A 
ATOM     13  C   UNL     1      -0.533  13.614  21.171  0.00  0.00    +0.000 A 
ATOM     14  N   UNL     1      -0.932  14.918  21.407  0.00  0.00    +0.000 N 
ATOM     15  C   UNL     1      -0.129  15.766  22.293  0.00  0.00    +0.000 C 
ATOM     16  C   UNL     1      -1.074  16.850  22.882  0.00  0.00    +0.000 C 
ATOM     17  N   UNL     1      -1.783  17.646  21.844  0.00  0.00    +0.000 NA
ATOM     18  C   UNL     1      -2.754  18.548  22.462  0.00  0.00    +0.000 C 
ATOM     19  C   UNL     1      -2.468  16.740  20.891  0.00  0.00    +0.000 C 
ATOM     20  C   UNL     1      -1.525  15.671  20.297  0.00  0.00    +0.000 C 
ATOM     21  N   UNL     1       0.716  13.209  21.465  0.00  0.00    +0.000 NA
ATOM     22  C   UNL     1       1.014  11.889  21.307  0.00  0.00    +0.000 A 
ENDBRANCH   4  10
BRANCH   1  23
ATOM     23  N   UNL     1       3.264   5.909  19.829  0.00  0.00    +0.000 N 
ATOM     24  H   UNL     1       4.270   6.013  19.692  0.00  0.00    +0.000 HD
BRANCH  23  30
ATOM     25  C   UNL     1       3.901   3.785  18.689  0.00  0.00    +0.000 A 
ATOM     26  C   UNL     1       3.495   2.567  18.101  0.00  0.00    +0.000 A 
ATOM     27  C   UNL     1       2.165   2.153  18.138  0.00  0.00    +0.000 A 
ATOM     28  C   UNL     1       1.219   2.957  18.755  0.00  0.00    +0.000 A 
ATOM     29  C   UNL     1       1.606   4.162  19.347  0.00  0.00    +0.000 A 
ATOM     30  C   UNL     1       2.951   4.592  19.355  0.00  0.00    +0.000 A 
BRANCH  25  33
ATOM     31  C   UNL     1       7.218   4.527  17.015  0.00  0.00    +0.000 C 
ATOM     32  N   UNL     1       5.895   4.012  17.264  0.00  0.00    +0.000 N 
ATOM     33  C   UNL     1       5.353   4.101  18.526  0.00  0.00    +0.000 C 
ATOM     34  O   UNL     1       6.009   4.474  19.496  0.00  0.00    +0.000 OA
ATOM     35  H   UNL     1       5.273   3.815  16.486  0.00  0.00    +0.000 HD
ENDBRANCH  25  33
ENDBRANCH  23  30
ENDBRANCH   1  23
TORSDOF 4
ENDMDL
MODEL 5
REMARK VINA RESULT:      -8.6      3.796      5.219
REMARK  Name = 
REMARK  7 active torsions:
REMARK  status: ('A' for Active; 'I' for Inactive)
REMARK    1  A    between atoms: C_1  and  N_2
REMARK    2  A    between atoms: C_3  and  C_5
REMARK    3  A    between atoms: C_10  and  N_11
REMARK    4  A    between atoms: N_11  and  C_12
REMARK    5  A    between atoms: N_15  and  C_16
REMARK    6  A    between atoms: N_23  and  C_24
REMARK    7  A    between atoms: C_31  and  C_32
REMARK                            x       y       z     vdW  Elec       q    Type
REMARK                         _______ _______ _______ _____ _____    ______ ____
ROOT
ATOM      1  C   UNL     1       4.045   5.404  19.206  0.00  0.00    +0.000 A 
ATOM      2  N   UNL     1       3.852   6.682  18.813  0.00  0.00    +0.000 NA
ATOM      3  C   UNL     1       2.739   7.323  19.207  0.00  0.00    +0.000 A 
ATOM      4  N   UNL     1       2.541   8.598  18.667  0.00  0.00    +0.000 N 
ATOM      5  N   UNL     1       1.822   6.775  20.005  0.00  0.00    +0.000 NA
ATOM      6  C   UNL     1       2.012   5.501  20.364  0.00  0.00    +0.000 A 
ATOM      7  C   UNL     1       3.087   4.737  19.959  0.00  0.00    +0.000 A 
ATOM      8  C   UNL     1       3.184   3.315  20.403  0.00  0.00    +0.000 C 
ATOM      9  H   UNL     1       3.263   8.750  17.976  0.00  0.00    +0.000 HD
ENDROOT
BRANCH   4  10
ATOM     10  C   UNL     1       1.337   9.277  18.465  0.00  0.00    +0.000 A 
ATOM     11  C   UNL     1       0.406   8.756  17.570  0.00  0.00    +0.000 A 
ATOM     12  C   UNL     1      -0.828   9.385  17.398  0.00  0.00    +0.000 A 
ATOM     13  C   UNL     1      -1.138  10.548  18.103  0.00  0.00    +0.000 A 
ATOM     14  N   UNL     1      -2.412  11.074  17.984  0.00  0.00    +0.000 N 
ATOM     15  C   UNL     1      -2.917  11.976  19.023  0.00  0.00    +0.000 C 
ATOM     16  C   UNL     1      -4.469  11.882  19.007  0.00  0.00    +0.000 C 
ATOM     17  N   UNL     1      -5.067  12.178  17.677  0.00  0.00    +0.000 NA
ATOM     18  C   UNL     1      -6.509  11.937  17.698  0.00  0.00    +0.000 C 
ATOM     19  C   UNL     1      -4.427  11.336  16.636  0.00  0.00    +0.000 C 
ATOM     20  C   UNL     1      -2.886  11.440  16.645  0.00  0.00    +0.000 C 
ATOM     21  N   UNL     1      -0.247  11.081  18.958  0.00  0.00    +0.000 NA
ATOM     22  C   UNL     1       0.954  10.455  19.105  0.00  0.00    +0.000 A 
ENDBRANCH   4  10
BRANCH   1  23
ATOM     23  N   UNL     1       5.205   4.708  18.742  0.00  0.00    +0.000 N 
ATOM     24  H   UNL     1       6.012   5.023  19.280  0.00  0.00    +0.000 HD
BRANCH  23  30
ATOM     25  C   UNL     1       6.617   5.584  16.882  0.00  0.00    +0.000 A 
ATOM     26  C   UNL     1       6.894   5.623  15.498  0.00  0.00    +0.000 A 
ATOM     27  C   UNL     1       6.210   4.807  14.600  0.00  0.00    +0.000 A 
ATOM     28  C   UNL     1       5.230   3.948  15.070  0.00  0.00    +0.000 A 
ATOM     29  C   UNL     1       4.948   3.893  16.439  0.00  0.00    +0.000 A 
ATOM     30  C   UNL     1       5.647   4.683  17.377  0.00  0.00    +0.000 A 
BRANCH  25  33
ATOM     31  C   UNL     1       8.196   8.837  18.016  0.00  0.00    +0.000 C 
ATOM     32  N   UNL     1       7.646   7.801  17.178  0.00  0.00    +0.000 N 
ATOM     33  C   UNL     1       7.409   6.550  17.703  0.00  0.00    +0.000 C 
ATOM     34  O   UNL     1       7.785   6.230  18.828  0.00  0.00    +0.000 OA
ATOM     35  H   UNL     1       7.207   8.043  16.295  0.00  0.00    +0.000 HD
ENDBRANCH  25  33
ENDBRANCH  23  30
ENDBRANCH   1  23
TORSDOF 4
ENDMDL
MODEL 6
REMARK VINA RESULT:      -8.5      2.445      3.653
REMARK  Name = 
REMARK  7 active torsions:
REMARK  status: ('A' for Active; 'I' for Inactive)
REMARK    1  A    between atoms: C_1  and  N_2
REMARK    2  A    between atoms: C_3  and  C_5
REMARK    3  A    between atoms: C_10  and  N_11
REMARK    4  A    between atoms: N_11  and  C_12
REMARK    5  A    between atoms: N_15  and  C_16
REMARK    6  A    between atoms: N_23  and  C_24
REMARK    7  A    between atoms: C_31  and  C_32
REMARK                            x       y       z     vdW  Elec       q    Type
REMARK                         _______ _______ _______ _____ _____    ______ ____
ROOT
ATOM      1  C   UNL     1       2.415   6.773  18.956  0.00  0.00    +0.000 A 
ATOM      2  N   UNL     1       2.128   8.072  18.720  0.00  0.00    +0.000 NA
ATOM      3  C   UNL     1       1.526   8.790  19.682  0.00  0.00    +0.000 A 
ATOM      4  N   UNL     1       1.148  10.091  19.331  0.00  0.00    +0.000 N 
ATOM      5  N   UNL     1       1.227   8.298  20.885  0.00  0.00    +0.000 NA
ATOM      6  C   UNL     1       1.491   7.004  21.095  0.00  0.00    +0.000 A 
ATOM      7  C   UNL     1       2.047   6.166  20.150  0.00  0.00    +0.000 A 
ATOM      8  C   UNL     1       2.275   4.731  20.488  0.00  0.00    +0.000 C 
ATOM      9  H   UNL     1       1.323  10.201  18.342  0.00  0.00    +0.000 HD
ENDROOT
BRANCH   4  10
ATOM     10  C   UNL     1       0.120  10.870  19.870  0.00  0.00    +0.000 A 
ATOM     11  C   UNL     1      -0.998  11.150  19.090  0.00  0.00    +0.000 A 
ATOM     12  C   UNL     1      -2.063  11.875  19.627  0.00  0.00    +0.000 A 
ATOM     13  C   UNL     1      -2.014  12.342  20.940  0.00  0.00    +0.000 A 
ATOM     14  N   UNL     1      -3.136  12.960  21.465  0.00  0.00    +0.000 N 
ATOM     15  C   UNL     1      -3.299  13.037  22.920  0.00  0.00    +0.000 C 
ATOM     16  C   UNL     1      -4.822  13.148  23.212  0.00  0.00    +0.000 C 
ATOM     17  N   UNL     1      -5.476  14.290  22.519  0.00  0.00    +0.000 NA
ATOM     18  C   UNL     1      -6.924  14.254  22.724  0.00  0.00    +0.000 C 
ATOM     19  C   UNL     1      -5.169  14.246  21.068  0.00  0.00    +0.000 C 
ATOM     20  C   UNL     1      -3.655  14.148  20.779  0.00  0.00    +0.000 C 
ATOM     21  N   UNL     1      -0.935  12.102  21.707  0.00  0.00    +0.000 NA
ATOM     22  C   UNL     1       0.095  11.398  21.159  0.00  0.00    +0.000 A 
ENDBRANCH   4  10
BRANCH   1  23
ATOM     23  N   UNL     1       3.007   5.998  17.910  0.00  0.00    +0.000 N 
ATOM     24  H   UNL     1       2.700   5.029  18.007  0.00  0.00    +0.000 HD
BRANCH  23  30
ATOM     25  C   UNL     1       5.180   4.773  17.953  0.00  0.00    +0.000 A 
ATOM     26  C   UNL     1       6.585   4.814  17.829  0.00  0.00    +0.000 A 
ATOM     27  C   UNL     1       7.244   5.978  17.438  0.00  0.00    +0.000 A 
ATOM     28  C   UNL     1       6.508   7.122  17.177  0.00  0.00    +0.000 A 
ATOM     29  C   UNL     1       5.114   7.097  17.289  0.00  0.00    +0.000 A 
ATOM     30  C   UNL     1       4.416   5.924  17.650  0.00  0.00    +0.000 A 
BRANCH  25  33
ATOM     31  C   UNL     1       4.534   1.773  20.175  0.00  0.00    +0.000 C 
ATOM     32  N   UNL     1       5.176   2.906  19.556  0.00  0.00    +0.000 N 
ATOM     33  C   UNL     1       4.634   3.463  18.420  0.00  0.00    +0.000 C 
ATOM     34  O   UNL     1       3.697   2.942  17.819  0.00  0.00    +0.000 OA
ATOM     35  H   UNL     1       5.865   3.443  20.073  0.00  0.00    +0.000 HD
ENDBRANCH  25  33
ENDBRANCH  23  30
ENDBRANCH   1  23
TORSDOF 4
ENDMDL
MODEL 7
REMARK VINA RESULT:      -8.5      3.360      4.563
REMARK  Name = 
REMARK  7 active torsions:
REMARK  status: ('A' for Active; 'I' for Inactive)
REMARK    1  A    between atoms: C_1  and  N_2
REMARK    2  A    between atoms: C_3  and  C_5
REMARK    3  A    between atoms: C_10  and  N_11
REMARK    4  A    between atoms: N_11  and  C_12
REMARK    5  A    between atoms: N_15  and  C_16
REMARK    6  A    between atoms: N_23  and  C_24
REMARK    7  A    between atoms: C_31  and  C_32
REMARK                            x       y       z     vdW  Elec       q    Type
REMARK                         _______ _______ _______ _____ _____    ______ ____
ROOT
ATOM      1  C   UNL     1       2.620   7.152  18.302  0.00  0.00    +0.000 A 
ATOM      2  N   UNL     1       1.986   8.214  17.759  0.00  0.00    +0.000 NA
ATOM      3  C   UNL     1       1.217   8.984  18.546  0.00  0.00    +0.000 A 
ATOM      4  N   UNL     1       0.494   9.993  17.899  0.00  0.00    +0.000 N 
ATOM      5  N   UNL     1       1.073   8.780  19.855  0.00  0.00    +0.000 NA
ATOM      6  C   UNL     1       1.683   7.709  20.374  0.00  0.00    +0.000 A 
ATOM      7  C   UNL     1       2.441   6.821  19.640  0.00  0.00    +0.000 A 
ATOM      8  C   UNL     1       3.057   5.645  20.322  0.00  0.00    +0.000 C 
ATOM      9  H   UNL     1       0.625   9.869  16.904  0.00  0.00    +0.000 HD
ENDROOT
BRANCH   4  10
ATOM     10  C   UNL     1      -0.704  10.591  18.297  0.00  0.00    +0.000 A 
ATOM     11  C   UNL     1      -0.661  11.742  19.079  0.00  0.00    +0.000 A 
ATOM     12  C   UNL     1      -1.844  12.390  19.438  0.00  0.00    +0.000 A 
ATOM     13  C   UNL     1      -3.080  11.887  19.034  0.00  0.00    +0.000 A 
ATOM     14  N   UNL     1      -4.218  12.623  19.319  0.00  0.00    +0.000 N 
ATOM     15  C   UNL     1      -5.436  12.392  18.537  0.00  0.00    +0.000 C 
ATOM     16  C   UNL     1      -6.276  13.700  18.587  0.00  0.00    +0.000 C 
ATOM     17  N   UNL     1      -6.582  14.155  19.970  0.00  0.00    +0.000 NA
ATOM     18  C   UNL     1      -7.250  15.456  19.946  0.00  0.00    +0.000 C 
ATOM     19  C   UNL     1      -5.331  14.242  20.763  0.00  0.00    +0.000 C 
ATOM     20  C   UNL     1      -4.504  12.938  20.722  0.00  0.00    +0.000 C 
ATOM     21  N   UNL     1      -3.149  10.766  18.295  0.00  0.00    +0.000 NA
ATOM     22  C   UNL     1      -1.982  10.146  17.962  0.00  0.00    +0.000 A 
ENDBRANCH   4  10
BRANCH   1  23
ATOM     23  N   UNL     1       3.395   6.303  17.452  0.00  0.00    +0.000 N 
ATOM     24  H   UNL     1       3.053   5.347  17.544  0.00  0.00    +0.000 HD
BRANCH  23  30
ATOM     25  C   UNL     1       5.484   5.029  17.936  0.00  0.00    +0.000 A 
ATOM     26  C   UNL     1       6.885   5.039  18.109  0.00  0.00    +0.000 A 
ATOM     27  C   UNL     1       7.636   6.189  17.876  0.00  0.00    +0.000 A 
ATOM     28  C   UNL     1       6.995   7.352  17.477  0.00  0.00    +0.000 A 
ATOM     29  C   UNL     1       5.609   7.357  17.295  0.00  0.00    +0.000 A 
ATOM     30  C   UNL     1       4.826   6.199  17.491  0.00  0.00    +0.000 A 
BRANCH  25  33
ATOM     31  C   UNL     1       4.430   1.970  19.908  0.00  0.00    +0.000 C 
ATOM     32  N   UNL     1       5.195   3.095  19.430  0.00  0.00    +0.000 N 
ATOM     33  C   UNL     1       4.825   3.729  18.266  0.00  0.00    +0.000 C 
ATOM     34  O   UNL     1       3.948   3.285  17.529  0.00  0.00    +0.000 OA
ATOM     35  H   UNL     1       5.838   3.573  20.054  0.00  0.00    +0.000 HD
ENDBRANCH  25  33
ENDBRANCH  23  30
ENDBRANCH   1  23
TORSDOF 4
ENDMDL
MODEL 8
REMARK VINA RESULT:      -8.4      1.073      1.192
REMARK  Name = 
REMARK  7 active torsions:
REMARK  status: ('A' for Active; 'I' for Inactive)
REMARK    1  A    between atoms: C_1  and  N_2
REMARK    2  A    between atoms: C_3  and  C_5
REMARK    3  A    between atoms: C_10  and  N_11
REMARK    4  A    between atoms: N_11  and  C_12
REMARK    5  A    between atoms: N_15  and  C_16
REMARK    6  A    between atoms: N_23  and  C_24
REMARK    7  A    between atoms: C_31  and  C_32
REMARK                            x       y       z     vdW  Elec       q    Type
REMARK                         _______ _______ _______ _____ _____    ______ ____
ROOT
ATOM      1  C   UNL     1       2.571   7.075  19.643  0.00  0.00    +0.000 A 
ATOM      2  N   UNL     1       1.807   7.547  20.652  0.00  0.00    +0.000 NA
ATOM      3  C   UNL     1       1.093   8.668  20.458  0.00  0.00    +0.000 A 
ATOM      4  N   UNL     1       0.421   9.169  21.579  0.00  0.00    +0.000 N 
ATOM      5  N   UNL     1       1.065   9.327  19.300  0.00  0.00    +0.000 NA
ATOM      6  C   UNL     1       1.847   8.865  18.318  0.00  0.00    +0.000 A 
ATOM      7  C   UNL     1       2.666   7.761  18.439  0.00  0.00    +0.000 A 
ATOM      8  C   UNL     1       3.516   7.350  17.283  0.00  0.00    +0.000 C 
ATOM      9  H   UNL     1       0.703   8.614  22.375  0.00  0.00    +0.000 HD
ENDROOT
BRANCH   4  10
ATOM     10  C   UNL     1       0.044  10.488  21.845  0.00  0.00    +0.000 A 
ATOM     11  C   UNL     1      -1.003  10.729  22.730  0.00  0.00    +0.000 A 
ATOM     12  C   UNL     1      -1.357  12.039  23.056  0.00  0.00    +0.000 A 
ATOM     13  C   UNL     1      -0.681  13.120  22.490  0.00  0.00    +0.000 A 
ATOM     14  N   UNL     1      -0.992  14.396  22.927  0.00  0.00    +0.000 N 
ATOM     15  C   UNL     1      -0.026  15.480  22.725  0.00  0.00    +0.000 C 
ATOM     16  C   UNL     1      -0.296  16.553  23.816  0.00  0.00    +0.000 C 
ATOM     17  N   UNL     1      -1.697  17.053  23.822  0.00  0.00    +0.000 NA
ATOM     18  C   UNL     1      -1.917  17.952  24.954  0.00  0.00    +0.000 C 
ATOM     19  C   UNL     1      -2.642  15.912  23.889  0.00  0.00    +0.000 C 
ATOM     20  C   UNL     1      -2.380  14.852  22.797  0.00  0.00    +0.000 C 
ATOM     21  N   UNL     1       0.321  12.912  21.617  0.00  0.00    +0.000 NA
ATOM     22  C   UNL     1       0.644  11.626  21.308  0.00  0.00    +0.000 A 
ENDBRANCH   4  10
BRANCH   1  23
ATOM     23  N   UNL     1       3.370   5.911  19.870  0.00  0.00    +0.000 N 
ATOM     24  H   UNL     1       4.074   5.849  19.134  0.00  0.00    +0.000 HD
BRANCH  23  30
ATOM     25  C   UNL     1       2.931   3.627  18.970  0.00  0.00    +0.000 A 
ATOM     26  C   UNL     1       2.261   2.391  19.101  0.00  0.00    +0.000 A 
ATOM     27  C   UNL     1       1.495   2.099  20.228  0.00  0.00    +0.000 A 
ATOM     28  C   UNL     1       1.378   3.043  21.236  0.00  0.00    +0.000 A 
ATOM     29  C   UNL     1       2.041   4.269  21.124  0.00  0.00    +0.000 A 
ATOM     30  C   UNL     1       2.851   4.581  20.011  0.00  0.00    +0.000 A 
BRANCH  25  33
ATOM     31  C   UNL     1       5.826   3.895  16.539  0.00  0.00    +0.000 C 
ATOM     32  N   UNL     1       5.041   3.960  17.747  0.00  0.00    +0.000 N 
ATOM     33  C   UNL     1       3.675   3.798  17.686  0.00  0.00    +0.000 C 
ATOM     34  O   UNL     1       3.071   3.743  16.617  0.00  0.00    +0.000 OA
ATOM     35  H   UNL     1       5.495   3.877  18.652  0.00  0.00    +0.000 HD
ENDBRANCH  25  33
ENDBRANCH  23  30
ENDBRANCH   1  23
TORSDOF 4
ENDMDL
MODEL 9
REMARK VINA RESULT:      -8.4      3.627     11.125
REMARK  Name = 
REMARK  7 active torsions:
REMARK  status: ('A' for Active; 'I' for Inactive)
REMARK    1  A    between atoms: C_1  and  N_2
REMARK    2  A    between atoms: C_3  and  C_5
REMARK    3  A    between atoms: C_10  and  N_11
REMARK    4  A    between atoms: N_11  and  C_12
REMARK    5  A    between atoms: N_15  and  C_16
REMARK    6  A    between atoms: N_23  and  C_24
REMARK    7  A    between atoms: C_31  and  C_32
REMARK                            x       y       z     vdW  Elec       q    Type
REMARK                         _______ _______ _______ _____ _____    ______ ____
ROOT
ATOM      1  C   UNL     1      -2.443  12.275  19.530  0.00  0.00    +0.000 A 
ATOM      2  N   UNL     1      -1.160  11.939  19.787  0.00  0.00    +0.000 NA
ATOM      3  C   UNL     1      -0.587  10.960  19.068  0.00  0.00    +0.000 A 
ATOM      4  N   UNL     1       0.699  10.579  19.465  0.00  0.00    +0.000 N 
ATOM      5  N   UNL     1      -1.208  10.320  18.076  0.00  0.00    +0.000 NA
ATOM      6  C   UNL     1      -2.486  10.644  17.851  0.00  0.00    +0.000 A 
ATOM      7  C   UNL     1      -3.183  11.587  18.576  0.00  0.00    +0.000 A 
ATOM      8  C   UNL     1      -4.616  11.850  18.251  0.00  0.00    +0.000 C 
ATOM      9  H   UNL     1       0.911  11.074  20.321  0.00  0.00    +0.000 HD
ENDROOT
BRANCH   4  10
ATOM     10  C   UNL     1       1.330   9.344  19.290  0.00  0.00    +0.000 A 
ATOM     11  C   UNL     1       1.321   8.423  20.334  0.00  0.00    +0.000 A 
ATOM     12  C   UNL     1       1.893   7.162  20.160  0.00  0.00    +0.000 A 
ATOM     13  C   UNL     1       2.494   6.815  18.951  0.00  0.00    +0.000 A 
ATOM     14  N   UNL     1       2.949   5.518  18.787  0.00  0.00    +0.000 N 
ATOM     15  C   UNL     1       3.145   4.991  17.433  0.00  0.00    +0.000 C 
ATOM     16  C   UNL     1       3.008   3.445  17.511  0.00  0.00    +0.000 C 
ATOM     17  N   UNL     1       3.935   2.816  18.490  0.00  0.00    +0.000 NA
ATOM     18  C   UNL     1       3.658   1.385  18.613  0.00  0.00    +0.000 C 
ATOM     19  C   UNL     1       3.797   3.475  19.812  0.00  0.00    +0.000 C 
ATOM     20  C   UNL     1       3.946   5.010  19.735  0.00  0.00    +0.000 C 
ATOM     21  N   UNL     1       2.534   7.695  17.935  0.00  0.00    +0.000 NA
ATOM     22  C   UNL     1       1.976   8.923  18.129  0.00  0.00    +0.000 A 
ENDBRANCH   4  10
BRANCH   1  23
ATOM     23  N   UNL     1      -3.066  13.281  20.333  0.00  0.00    +0.000 N 
ATOM     24  H   UNL     1      -3.077  14.157  19.809  0.00  0.00    +0.000 HD
BRANCH  23  30
ATOM     25  C   UNL     1      -3.503  13.501  22.778  0.00  0.00    +0.000 A 
ATOM     26  C   UNL     1      -3.103  14.020  24.029  0.00  0.00    +0.000 A 
ATOM     27  C   UNL     1      -1.891  14.690  24.181  0.00  0.00    +0.000 A 
ATOM     28  C   UNL     1      -1.066  14.864  23.081  0.00  0.00    +0.000 A 
ATOM     29  C   UNL     1      -1.445  14.351  21.837  0.00  0.00    +0.000 A 
ATOM     30  C   UNL     1      -2.650  13.638  21.659  0.00  0.00    +0.000 A 
BRANCH  25  33
ATOM     31  C   UNL     1      -7.020  12.586  23.851  0.00  0.00    +0.000 C 
ATOM     32  N   UNL     1      -5.638  12.995  23.893  0.00  0.00    +0.000 N 
ATOM     33  C   UNL     1      -4.846  12.846  22.777  0.00  0.00    +0.000 C 
ATOM     34  O   UNL     1      -5.228  12.240  21.779  0.00  0.00    +0.000 OA
ATOM     35  H   UNL     1      -5.313  13.607  24.635  0.00  0.00    +0.000 HD
ENDBRANCH  25  33
ENDBRANCH  23  30
ENDBRANCH   1  23
TORSDOF 4
ENDMDL
