MODEL 1
REMARK VINA RESULT:      -7.3      0.000      0.000
REMARK  Name = 
REMARK  5 active torsions:
REMARK  status: ('A' for Active; 'I' for Inactive)
REMARK    1  A    between atoms: C_1  and  O_2
REMARK    2  A    between atoms: O_2  and  C_3
REMARK    3  A    between atoms: C_3  and  C_4
REMARK    4  A    between atoms: N_6  and  C_7
REMARK    5  A    between atoms: N_13  and  C_14
REMARK                            x       y       z     vdW  Elec       q    Type
REMARK                         _______ _______ _______ _____ _____    ______ ____
ROOT
ATOM      1  C   UNL     1       5.964   4.838  17.448  0.00  0.00    +0.000 C 
ATOM      2  C   UNL     1       4.945   4.165  18.366  0.00  0.00    +0.000 C 
ATOM      3  C   UNL     1       3.520   4.572  18.015  0.00  0.00    +0.000 C 
ATOM      4  N   UNL     1       3.375   6.027  18.038  0.00  0.00    +0.000 N 
ATOM      5  C   UNL     1       2.474   6.556  18.951  0.00  0.00    +0.000 C 
ATOM      6  O   UNL     1       1.872   5.810  19.721  0.00  0.00    +0.000 OA
ATOM      7  N   UNL     1       2.288   7.924  18.923  0.00  0.00    +0.000 N 
ATOM      8  C   UNL     1       4.267   6.735  17.120  0.00  0.00    +0.000 C 
ATOM      9  C   UNL     1       5.729   6.357  17.373  0.00  0.00    +0.000 C 
ATOM     10  H   UNL     1       2.546   8.399  18.075  0.00  0.00    +0.000 HD
ENDROOT
BRANCH   7  11
ATOM     11  C   UNL     1       1.442   8.645  19.806  0.00  0.00    +0.000 A 
ATOM     12  C   UNL     1       0.537   9.620  19.371  0.00  0.00    +0.000 A 
ATOM     13  C   UNL     1      -0.215  10.369  20.282  0.00  0.00    +0.000 A 
ATOM     14  C   UNL     1      -0.085  10.126  21.642  0.00  0.00    +0.000 A 
ATOM     15 BR   UNL     1      -1.073  11.164  22.873  0.00  0.00    +0.000 Br
ATOM     16  C   UNL     1       0.770   9.124  22.096  0.00  0.00    +0.000 A 
ATOM     17  C   UNL     1       1.525   8.378  21.178  0.00  0.00    +0.000 A 
ENDBRANCH   7  11
BRANCH   1  20
ATOM     18  C   UNL     1       6.838   4.629  15.134  0.00  0.00    +0.000 C 
ATOM     19  O   UNL     1       7.669   5.518  15.283  0.00  0.00    +0.000 OA
ATOM     20  N   UNL     1       5.986   4.205  16.132  0.00  0.00    +0.000 N 
ATOM     21  H   UNL     1       5.281   3.521  15.879  0.00  0.00    +0.000 HD
BRANCH  18  22
ATOM     22  C   UNL     1       6.643   3.905  13.800  0.00  0.00    +0.000 C 
BRANCH  22  24
ATOM     23  C   UNL     1       5.155   3.289  12.077  0.00  0.00    +0.000 C 
ATOM     24  O   UNL     1       5.299   3.952  13.330  0.00  0.00    +0.000 OA
ENDBRANCH  22  24
ENDBRANCH  18  22
ENDBRANCH   1  20
TORSDOF 4
ENDMDL
MODEL 2
REMARK VINA RESULT:      -7.1      0.877      1.341
REMARK  Name = 
REMARK  5 active torsions:
REMARK  status: ('A' for Active; 'I' for Inactive)
REMARK    1  A    between atoms: C_1  and  O_2
REMARK    2  A    between atoms: O_2  and  C_3
REMARK    3  A    between atoms: C_3  and  C_4
REMARK    4  A    between atoms: N_6  and  C_7
REMARK    5  A    between atoms: N_13  and  C_14
REMARK                            x       y       z     vdW  Elec       q    Type
REMARK                         _______ _______ _______ _____ _____    ______ ____
ROOT
ATOM      1  C   UNL     1       5.783   5.583  17.825  0.00  0.00    +0.000 C 
ATOM      2  C   UNL     1       5.106   5.009  19.069  0.00  0.00    +0.000 C 
ATOM      3  C   UNL     1       3.589   5.093  18.970  0.00  0.00    +0.000 C 
ATOM      4  N   UNL     1       3.160   6.469  18.720  0.00  0.00    +0.000 N 
ATOM      5  C   UNL     1       2.353   7.062  19.680  0.00  0.00    +0.000 C 
ATOM      6  O   UNL     1       2.065   6.446  20.705  0.00  0.00    +0.000 OA
ATOM      7  N   UNL     1       1.893   8.335  19.408  0.00  0.00    +0.000 N 
ATOM      8  C   UNL     1       3.708   7.056  17.497  0.00  0.00    +0.000 C 
ATOM      9  C   UNL     1       5.237   6.982  17.489  0.00  0.00    +0.000 C 
ATOM     10  H   UNL     1       1.891   8.620  18.444  0.00  0.00    +0.000 HD
ENDROOT
BRANCH   7  11
ATOM     11  C   UNL     1       1.095   9.113  20.288  0.00  0.00    +0.000 A 
ATOM     12  C   UNL     1       0.861   8.759  21.622  0.00  0.00    +0.000 A 
ATOM     13  C   UNL     1      -0.003   9.507  22.429  0.00  0.00    +0.000 A 
ATOM     14  C   UNL     1      -0.621  10.636  21.910  0.00  0.00    +0.000 A 
ATOM     15 BR   UNL     1      -1.817  11.623  22.990  0.00  0.00    +0.000 Br
ATOM     16  C   UNL     1      -0.363  11.038  20.601  0.00  0.00    +0.000 A 
ATOM     17  C   UNL     1       0.502  10.283  19.794  0.00  0.00    +0.000 A 
ENDBRANCH   7  11
BRANCH   1  20
ATOM     18  C   UNL     1       6.544   4.734  15.621  0.00  0.00    +0.000 C 
ATOM     19  O   UNL     1       7.468   5.537  15.542  0.00  0.00    +0.000 OA
ATOM     20  N   UNL     1       5.691   4.656  16.701  0.00  0.00    +0.000 N 
ATOM     21  H   UNL     1       4.910   4.012  16.628  0.00  0.00    +0.000 HD
BRANCH  18  22
ATOM     22  C   UNL     1       6.227   3.738  14.503  0.00  0.00    +0.000 C 
BRANCH  22  24
ATOM     23  C   UNL     1       6.132   3.380  12.174  0.00  0.00    +0.000 C 
ATOM     24  O   UNL     1       6.685   4.168  13.225  0.00  0.00    +0.000 OA
ENDBRANCH  22  24
ENDBRANCH  18  22
ENDBRANCH   1  20
TORSDOF 4
ENDMDL
MODEL 3
REMARK VINA RESULT:      -7.1      0.430      1.108
REMARK  Name = 
REMARK  5 active torsions:
REMARK  status: ('A' for Active; 'I' for Inactive)
REMARK    1  A    between atoms: C_1  and  O_2
REMARK    2  A    between atoms: O_2  and  C_3
REMARK    3  A    between atoms: C_3  and  C_4
REMARK    4  A    between atoms: N_6  and  C_7
REMARK    5  A    between atoms: N_13  and  C_14
REMARK                            x       y       z     vdW  Elec       q    Type
REMARK                         _______ _______ _______ _____ _____    ______ ____
ROOT
ATOM      1  C   UNL     1       5.832   4.717  16.934  0.00  0.00    +0.000 C 
ATOM      2  C   UNL     1       4.822   4.027  17.848  0.00  0.00    +0.000 C 
ATOM      3  C   UNL     1       3.408   4.540  17.610  0.00  0.00    +0.000 C 
ATOM      4  N   UNL     1       3.352   5.994  17.758  0.00  0.00    +0.000 N 
ATOM      5  C   UNL     1       2.530   6.494  18.758  0.00  0.00    +0.000 C 
ATOM      6  O   UNL     1       1.924   5.721  19.498  0.00  0.00    +0.000 OA
ATOM      7  N   UNL     1       2.426   7.868  18.851  0.00  0.00    +0.000 N 
ATOM      8  C   UNL     1       4.238   6.726  16.853  0.00  0.00    +0.000 C 
ATOM      9  C   UNL     1       5.685   6.247  16.995  0.00  0.00    +0.000 C 
ATOM     10  H   UNL     1       2.669   8.397  18.032  0.00  0.00    +0.000 HD
ENDROOT
BRANCH   7  11
ATOM     11  C   UNL     1       1.669   8.558  19.834  0.00  0.00    +0.000 A 
ATOM     12  C   UNL     1       1.638   8.178  21.181  0.00  0.00    +0.000 A 
ATOM     13  C   UNL     1       0.811   8.831  22.100  0.00  0.00    +0.000 A 
ATOM     14  C   UNL     1       0.024   9.895  21.679  0.00  0.00    +0.000 A 
ATOM     15 BR   UNL     1      -1.121  10.753  22.913  0.00  0.00    +0.000 Br
ATOM     16  C   UNL     1       0.078  10.326  20.355  0.00  0.00    +0.000 A 
ATOM     17  C   UNL     1       0.907   9.664  19.436  0.00  0.00    +0.000 A 
ENDBRANCH   7  11
BRANCH   1  20
ATOM     18  C   UNL     1       6.687   4.517  14.612  0.00  0.00    +0.000 C 
ATOM     19  O   UNL     1       7.676   5.208  14.833  0.00  0.00    +0.000 OA
ATOM     20  N   UNL     1       5.751   4.196  15.572  0.00  0.00    +0.000 N 
ATOM     21  H   UNL     1       4.928   3.688  15.264  0.00  0.00    +0.000 HD
BRANCH  18  22
ATOM     22  C   UNL     1       6.375   3.952  13.225  0.00  0.00    +0.000 C 
BRANCH  22  24
ATOM     23  C   UNL     1       4.613   3.343  11.781  0.00  0.00    +0.000 C 
ATOM     24  O   UNL     1       5.069   3.393  13.129  0.00  0.00    +0.000 OA
ENDBRANCH  22  24
ENDBRANCH  18  22
ENDBRANCH   1  20
TORSDOF 4
ENDMDL
MODEL 4
REMARK VINA RESULT:      -7.0      4.415      9.653
REMARK  Name = 
REMARK  5 active torsions:
REMARK  status: ('A' for Active; 'I' for Inactive)
REMARK    1  A    between atoms: C_1  and  O_2
REMARK    2  A    between atoms: O_2  and  C_3
REMARK    3  A    between atoms: C_3  and  C_4
REMARK    4  A    between atoms: N_6  and  C_7
REMARK    5  A    between atoms: N_13  and  C_14
REMARK                            x       y       z     vdW  Elec       q    Type
REMARK                         _______ _______ _______ _____ _____    ______ ____
ROOT
ATOM      1  C   UNL     1       0.542  11.187  21.411  0.00  0.00    +0.000 C 
ATOM      2  C   UNL     1       0.907  11.542  19.971  0.00  0.00    +0.000 C 
ATOM      3  C   UNL     1       0.482  10.450  18.999  0.00  0.00    +0.000 C 
ATOM      4  N   UNL     1       1.051   9.160  19.387  0.00  0.00    +0.000 N 
ATOM      5  C   UNL     1       1.909   8.551  18.482  0.00  0.00    +0.000 C 
ATOM      6  O   UNL     1       2.192   9.119  17.429  0.00  0.00    +0.000 OA
ATOM      7  N   UNL     1       2.389   7.302  18.821  0.00  0.00    +0.000 N 
ATOM      8  C   UNL     1       0.675   8.717  20.730  0.00  0.00    +0.000 C 
ATOM      9  C   UNL     1       1.031   9.775  21.777  0.00  0.00    +0.000 C 
ATOM     10  H   UNL     1       1.865   6.786  19.505  0.00  0.00    +0.000 HD
ENDROOT
BRANCH   7  11
ATOM     11  C   UNL     1       3.307   6.549  18.043  0.00  0.00    +0.000 A 
ATOM     12  C   UNL     1       4.386   7.125  17.363  0.00  0.00    +0.000 A 
ATOM     13  C   UNL     1       5.215   6.360  16.537  0.00  0.00    +0.000 A 
ATOM     14  C   UNL     1       4.983   4.997  16.405  0.00  0.00    +0.000 A 
ATOM     15 BR   UNL     1       6.080   3.971  15.259  0.00  0.00    +0.000 Br
ATOM     16  C   UNL     1       3.948   4.391  17.113  0.00  0.00    +0.000 A 
ATOM     17  C   UNL     1       3.117   5.165  17.939  0.00  0.00    +0.000 A 
ENDBRANCH   7  11
BRANCH   1  20
ATOM     18  C   UNL     1      -1.374  12.455  22.348  0.00  0.00    +0.000 C 
ATOM     19  O   UNL     1      -0.668  13.367  22.765  0.00  0.00    +0.000 OA
ATOM     20  N   UNL     1      -0.886  11.370  21.652  0.00  0.00    +0.000 N 
ATOM     21  H   UNL     1      -1.545  10.633  21.425  0.00  0.00    +0.000 HD
BRANCH  18  22
ATOM     22  C   UNL     1      -2.886  12.418  22.579  0.00  0.00    +0.000 C 
BRANCH  22  24
ATOM     23  C   UNL     1      -4.163  12.538  24.558  0.00  0.00    +0.000 C 
ATOM     24  O   UNL     1      -3.251  11.761  23.789  0.00  0.00    +0.000 OA
ENDBRANCH  22  24
ENDBRANCH  18  22
ENDBRANCH   1  20
TORSDOF 4
ENDMDL
MODEL 5
REMARK VINA RESULT:      -6.9      4.426      9.709
REMARK  Name = 
REMARK  5 active torsions:
REMARK  status: ('A' for Active; 'I' for Inactive)
REMARK    1  A    between atoms: C_1  and  O_2
REMARK    2  A    between atoms: O_2  and  C_3
REMARK    3  A    between atoms: C_3  and  C_4
REMARK    4  A    between atoms: N_6  and  C_7
REMARK    5  A    between atoms: N_13  and  C_14
REMARK                            x       y       z     vdW  Elec       q    Type
REMARK                         _______ _______ _______ _____ _____    ______ ____
ROOT
ATOM      1  C   UNL     1       0.531  11.371  21.345  0.00  0.00    +0.000 C 
ATOM      2  C   UNL     1       0.946  11.715  19.915  0.00  0.00    +0.000 C 
ATOM      3  C   UNL     1       0.478  10.656  18.926  0.00  0.00    +0.000 C 
ATOM      4  N   UNL     1       0.963   9.332  19.315  0.00  0.00    +0.000 N 
ATOM      5  C   UNL     1       1.802   8.681  18.423  0.00  0.00    +0.000 C 
ATOM      6  O   UNL     1       2.139   9.238  17.380  0.00  0.00    +0.000 OA
ATOM      7  N   UNL     1       2.202   7.403  18.762  0.00  0.00    +0.000 N 
ATOM      8  C   UNL     1       0.534   8.902  20.647  0.00  0.00    +0.000 C 
ATOM      9  C   UNL     1       0.930   9.931  21.709  0.00  0.00    +0.000 C 
ATOM     10  H   UNL     1       1.634   6.914  19.431  0.00  0.00    +0.000 HD
ENDROOT
BRANCH   7  11
ATOM     11  C   UNL     1       3.090   6.603  17.996  0.00  0.00    +0.000 A 
ATOM     12  C   UNL     1       2.937   5.219  17.849  0.00  0.00    +0.000 A 
ATOM     13  C   UNL     1       3.884   4.455  17.159  0.00  0.00    +0.000 A 
ATOM     14  C   UNL     1       4.983   5.078  16.586  0.00  0.00    +0.000 A 
ATOM     15 BR   UNL     1       6.281   4.040  15.687  0.00  0.00    +0.000 Br
ATOM     16  C   UNL     1       5.130   6.461  16.674  0.00  0.00    +0.000 A 
ATOM     17  C   UNL     1       4.179   7.223  17.370  0.00  0.00    +0.000 A 
ENDBRANCH   7  11
BRANCH   1  20
ATOM     18  C   UNL     1      -1.333  12.440  22.586  0.00  0.00    +0.000 C 
ATOM     19  O   UNL     1      -0.585  13.033  23.356  0.00  0.00    +0.000 OA
ATOM     20  N   UNL     1      -0.889  11.636  21.558  0.00  0.00    +0.000 N 
ATOM     21  H   UNL     1      -1.592  11.127  21.033  0.00  0.00    +0.000 HD
BRANCH  18  22
ATOM     22  C   UNL     1      -2.857  12.517  22.703  0.00  0.00    +0.000 C 
BRANCH  22  24
ATOM     23  C   UNL     1      -4.162  12.584  24.666  0.00  0.00    +0.000 C 
ATOM     24  O   UNL     1      -3.371  11.772  23.803  0.00  0.00    +0.000 OA
ENDBRANCH  22  24
ENDBRANCH  18  22
ENDBRANCH   1  20
TORSDOF 4
ENDMDL
MODEL 6
REMARK VINA RESULT:      -6.7      1.068      1.128
REMARK  Name = 
REMARK  5 active torsions:
REMARK  status: ('A' for Active; 'I' for Inactive)
REMARK    1  A    between atoms: C_1  and  O_2
REMARK    2  A    between atoms: O_2  and  C_3
REMARK    3  A    between atoms: C_3  and  C_4
REMARK    4  A    between atoms: N_6  and  C_7
REMARK    5  A    between atoms: N_13  and  C_14
REMARK                            x       y       z     vdW  Elec       q    Type
REMARK                         _______ _______ _______ _____ _____    ______ ____
ROOT
ATOM      1  C   UNL     1       5.721   5.795  18.097  0.00  0.00    +0.000 C 
ATOM      2  C   UNL     1       4.950   5.294  19.316  0.00  0.00    +0.000 C 
ATOM      3  C   UNL     1       3.445   5.359  19.094  0.00  0.00    +0.000 C 
ATOM      4  N   UNL     1       3.033   6.713  18.725  0.00  0.00    +0.000 N 
ATOM      5  C   UNL     1       2.150   7.357  19.579  0.00  0.00    +0.000 C 
ATOM      6  O   UNL     1       1.785   6.804  20.615  0.00  0.00    +0.000 OA
ATOM      7  N   UNL     1       1.709   8.607  19.193  0.00  0.00    +0.000 N 
ATOM      8  C   UNL     1       3.674   7.228  17.514  0.00  0.00    +0.000 C 
ATOM      9  C   UNL     1       5.199   7.166  17.632  0.00  0.00    +0.000 C 
ATOM     10  H   UNL     1       1.782   8.832  18.216  0.00  0.00    +0.000 HD
ENDROOT
BRANCH   7  11
ATOM     11  C   UNL     1       0.841   9.432  19.957  0.00  0.00    +0.000 A 
ATOM     12  C   UNL     1      -0.121  10.269  19.380  0.00  0.00    +0.000 A 
ATOM     13  C   UNL     1      -0.895  11.130  20.163  0.00  0.00    +0.000 A 
ATOM     14  C   UNL     1      -0.730  11.140  21.542  0.00  0.00    +0.000 A 
ATOM     15 BR   UNL     1      -1.750  12.331  22.595  0.00  0.00    +0.000 Br
ATOM     16  C   UNL     1       0.184  10.278  22.143  0.00  0.00    +0.000 A 
ATOM     17  C   UNL     1       0.962   9.418  21.352  0.00  0.00    +0.000 A 
ENDBRANCH   7  11
BRANCH   1  20
ATOM     18  C   UNL     1       6.584   4.882  15.956  0.00  0.00    +0.000 C 
ATOM     19  O   UNL     1       7.442   5.751  15.840  0.00  0.00    +0.000 OA
ATOM     20  N   UNL     1       5.721   4.799  17.029  0.00  0.00    +0.000 N 
ATOM     21  H   UNL     1       4.996   4.091  16.985  0.00  0.00    +0.000 HD
BRANCH  18  22
ATOM     22  C   UNL     1       6.365   3.800  14.897  0.00  0.00    +0.000 C 
BRANCH  22  24
ATOM     23  C   UNL     1       5.849   3.607  12.603  0.00  0.00    +0.000 C 
ATOM     24  O   UNL     1       6.675   4.239  13.577  0.00  0.00    +0.000 OA
ENDBRANCH  22  24
ENDBRANCH  18  22
ENDBRANCH   1  20
TORSDOF 4
ENDMDL
MODEL 7
REMARK VINA RESULT:      -6.7      1.036      1.112
REMARK  Name = 
REMARK  5 active torsions:
REMARK  status: ('A' for Active; 'I' for Inactive)
REMARK    1  A    between atoms: C_1  and  O_2
REMARK    2  A    between atoms: O_2  and  C_3
REMARK    3  A    between atoms: C_3  and  C_4
REMARK    4  A    between atoms: N_6  and  C_7
REMARK    5  A    between atoms: N_13  and  C_14
REMARK                            x       y       z     vdW  Elec       q    Type
REMARK                         _______ _______ _______ _____ _____    ______ ____
ROOT
ATOM      1  C   UNL     1       6.484   5.014  16.190  0.00  0.00    +0.000 C 
ATOM      2  C   UNL     1       5.690   4.234  17.237  0.00  0.00    +0.000 C 
ATOM      3  C   UNL     1       4.192   4.457  17.085  0.00  0.00    +0.000 C 
ATOM      4  N   UNL     1       3.872   5.884  17.131  0.00  0.00    +0.000 N 
ATOM      5  C   UNL     1       3.044   6.311  18.159  0.00  0.00    +0.000 C 
ATOM      6  O   UNL     1       2.650   5.508  19.002  0.00  0.00    +0.000 OA
ATOM      7  N   UNL     1       2.689   7.645  18.160  0.00  0.00    +0.000 N 
ATOM      8  C   UNL     1       4.537   6.683  16.101  0.00  0.00    +0.000 C 
ATOM      9  C   UNL     1       6.055   6.491  16.152  0.00  0.00    +0.000 C 
ATOM     10  H   UNL     1       2.769   8.136  17.286  0.00  0.00    +0.000 HD
ENDROOT
BRANCH   7  11
ATOM     11  C   UNL     1       1.887   8.269  19.152  0.00  0.00    +0.000 A 
ATOM     12  C   UNL     1       1.129   9.420  18.908  0.00  0.00    +0.000 A 
ATOM     13  C   UNL     1       0.423  10.054  19.936  0.00  0.00    +0.000 A 
ATOM     14  C   UNL     1       0.450   9.520  21.217  0.00  0.00    +0.000 A 
ATOM     15 BR   UNL     1      -0.474  10.398  22.613  0.00  0.00    +0.000 Br
ATOM     16  C   UNL     1       1.155   8.346  21.472  0.00  0.00    +0.000 A 
ATOM     17  C   UNL     1       1.865   7.716  20.439  0.00  0.00    +0.000 A 
ENDBRANCH   7  11
BRANCH   1  20
ATOM     18  C   UNL     1       7.198   4.767  13.826  0.00  0.00    +0.000 C 
ATOM     19  O   UNL     1       8.056   5.640  13.911  0.00  0.00    +0.000 OA
ATOM     20  N   UNL     1       6.406   4.370  14.883  0.00  0.00    +0.000 N 
ATOM     21  H   UNL     1       5.672   3.698  14.683  0.00  0.00    +0.000 HD
BRANCH  18  22
ATOM     22  C   UNL     1       6.900   4.036  12.515  0.00  0.00    +0.000 C 
BRANCH  22  24
ATOM     23  C   UNL     1       4.766   3.372  11.761  0.00  0.00    +0.000 C 
ATOM     24  O   UNL     1       5.853   3.078  12.634  0.00  0.00    +0.000 OA
ENDBRANCH  22  24
ENDBRANCH  18  22
ENDBRANCH   1  20
TORSDOF 4
ENDMDL
MODEL 8
REMARK VINA RESULT:      -6.2      3.553      4.626
REMARK  Name = 
REMARK  5 active torsions:
REMARK  status: ('A' for Active; 'I' for Inactive)
REMARK    1  A    between atoms: C_1  and  O_2
REMARK    2  A    between atoms: O_2  and  C_3
REMARK    3  A    between atoms: C_3  and  C_4
REMARK    4  A    between atoms: N_6  and  C_7
REMARK    5  A    between atoms: N_13  and  C_14
REMARK                            x       y       z     vdW  Elec       q    Type
REMARK                         _______ _______ _______ _____ _____    ______ ____
ROOT
ATOM      1  C   UNL     1       2.160   3.932  19.064  0.00  0.00    +0.000 C 
ATOM      2  C   UNL     1       2.587   4.992  18.050  0.00  0.00    +0.000 C 
ATOM      3  C   UNL     1       3.197   6.208  18.733  0.00  0.00    +0.000 C 
ATOM      4  N   UNL     1       2.277   6.763  19.725  0.00  0.00    +0.000 N 
ATOM      5  C   UNL     1       1.842   8.065  19.523  0.00  0.00    +0.000 C 
ATOM      6  O   UNL     1       2.199   8.682  18.521  0.00  0.00    +0.000 OA
ATOM      7  N   UNL     1       1.029   8.609  20.497  0.00  0.00    +0.000 N 
ATOM      8  C   UNL     1       1.889   5.823  20.777  0.00  0.00    +0.000 C 
ATOM      9  C   UNL     1       1.296   4.545  20.180  0.00  0.00    +0.000 C 
ATOM     10  H   UNL     1       1.063   8.182  21.406  0.00  0.00    +0.000 HD
ENDROOT
BRANCH   7  11
ATOM     11  C   UNL     1       0.455   9.907  20.441  0.00  0.00    +0.000 A 
ATOM     12  C   UNL     1       0.975  11.003  21.139  0.00  0.00    +0.000 A 
ATOM     13  C   UNL     1       0.329  12.243  21.127  0.00  0.00    +0.000 A 
ATOM     14  C   UNL     1      -0.836  12.403  20.389  0.00  0.00    +0.000 A 
ATOM     15 BR   UNL     1      -1.729  14.068  20.404  0.00  0.00    +0.000 Br
ATOM     16  C   UNL     1      -1.344  11.341  19.644  0.00  0.00    +0.000 A 
ATOM     17  C   UNL     1      -0.694  10.097  19.662  0.00  0.00    +0.000 A 
ENDBRANCH   7  11
BRANCH   1  20
ATOM     18  C   UNL     1       3.728   2.009  19.032  0.00  0.00    +0.000 C 
ATOM     19  O   UNL     1       3.202   1.495  18.049  0.00  0.00    +0.000 OA
ATOM     20  N   UNL     1       3.316   3.204  19.581  0.00  0.00    +0.000 N 
ATOM     21  H   UNL     1       3.766   3.497  20.441  0.00  0.00    +0.000 HD
BRANCH  18  22
ATOM     22  C   UNL     1       4.896   1.353  19.772  0.00  0.00    +0.000 C 
BRANCH  22  24
ATOM     23  C   UNL     1       5.703   0.778  21.912  0.00  0.00    +0.000 C 
ATOM     24  O   UNL     1       4.969   1.728  21.144  0.00  0.00    +0.000 OA
ENDBRANCH  22  24
ENDBRANCH  18  22
ENDBRANCH   1  20
TORSDOF 4
ENDMDL
MODEL 9
REMARK VINA RESULT:      -6.2      3.938      5.535
REMARK  Name = 
REMARK  5 active torsions:
REMARK  status: ('A' for Active; 'I' for Inactive)
REMARK    1  A    between atoms: C_1  and  O_2
REMARK    2  A    between atoms: O_2  and  C_3
REMARK    3  A    between atoms: C_3  and  C_4
REMARK    4  A    between atoms: N_6  and  C_7
REMARK    5  A    between atoms: N_13  and  C_14
REMARK                            x       y       z     vdW  Elec       q    Type
REMARK                         _______ _______ _______ _____ _____    ______ ____
ROOT
ATOM      1  C   UNL     1       2.725   6.957  19.129  0.00  0.00    +0.000 C 
ATOM      2  C   UNL     1       2.186   7.615  20.398  0.00  0.00    +0.000 C 
ATOM      3  C   UNL     1       0.927   8.425  20.117  0.00  0.00    +0.000 C 
ATOM      4  N   UNL     1       1.170   9.414  19.068  0.00  0.00    +0.000 N 
ATOM      5  C   UNL     1       1.015  10.749  19.413  0.00  0.00    +0.000 C 
ATOM      6  O   UNL     1       0.728  11.055  20.569  0.00  0.00    +0.000 OA
ATOM      7  N   UNL     1       1.177  11.677  18.403  0.00  0.00    +0.000 N 
ATOM      8  C   UNL     1       1.613   8.845  17.795  0.00  0.00    +0.000 C 
ATOM      9  C   UNL     1       2.859   7.977  17.986  0.00  0.00    +0.000 C 
ATOM     10  H   UNL     1       1.075  11.343  17.461  0.00  0.00    +0.000 HD
ENDROOT
BRANCH   7  11
ATOM     11  C   UNL     1       1.099  13.084  18.576  0.00  0.00    +0.000 A 
ATOM     12  C   UNL     1      -0.114  13.782  18.622  0.00  0.00    +0.000 A 
ATOM     13  C   UNL     1      -0.144  15.178  18.705  0.00  0.00    +0.000 A 
ATOM     14  C   UNL     1       1.048  15.887  18.770  0.00  0.00    +0.000 A 
ATOM     15 BR   UNL     1       1.006  17.775  18.844  0.00  0.00    +0.000 Br
ATOM     16  C   UNL     1       2.266  15.211  18.779  0.00  0.00    +0.000 A 
ATOM     17  C   UNL     1       2.291  13.811  18.692  0.00  0.00    +0.000 A 
ENDBRANCH   7  11
BRANCH   1  20
ATOM     18  C   UNL     1       2.073   4.576  19.384  0.00  0.00    +0.000 C 
ATOM     19  O   UNL     1       2.838   4.385  20.324  0.00  0.00    +0.000 OA
ATOM     20  N   UNL     1       1.923   5.795  18.758  0.00  0.00    +0.000 N 
ATOM     21  H   UNL     1       1.325   5.822  17.939  0.00  0.00    +0.000 HD
BRANCH  18  22
ATOM     22  C   UNL     1       1.212   3.459  18.789  0.00  0.00    +0.000 C 
BRANCH  22  24
ATOM     23  C   UNL     1       2.884   2.137  17.780  0.00  0.00    +0.000 C 
ATOM     24  O   UNL     1       1.730   2.945  17.566  0.00  0.00    +0.000 OA
ENDBRANCH  22  24
ENDBRANCH  18  22
ENDBRANCH   1  20
TORSDOF 4
ENDMDL
