MODEL 1
REMARK VINA RESULT:      -8.1      0.000      0.000
REMARK  Name = 
REMARK  7 active torsions:
REMARK  status: ('A' for Active; 'I' for Inactive)
REMARK    1  A    between atoms: C_2  and  O_3
REMARK    2  A    between atoms: C_2  and  C_4
REMARK    3  A    between atoms: C_8  and  N_9
REMARK    4  A    between atoms: C_13  and  C_15
REMARK    5  A    between atoms: C_15  and  O_16
REMARK    6  A    between atoms: O_16  and  C_17
REMARK    7  A    between atoms: C_21  and  C_22
REMARK                            x       y       z     vdW  Elec       q    Type
REMARK                         _______ _______ _______ _____ _____    ______ ____
ROOT
ATOM      1  N   UNL     1       2.519   7.196  18.920  0.00  0.00    +0.000 N 
ATOM      2  C   UNL     1       2.624   8.422  18.119  0.00  0.00    +0.000 C 
ATOM      3  C   UNL     1       1.359   9.269  18.318  0.00  0.00    +0.000 C 
ATOM      4  N   UNL     1       1.082   9.514  19.734  0.00  0.00    +0.000 N 
ATOM      5  C   UNL     1       0.840  10.763  20.288  0.00  0.00    +0.000 C 
ATOM      6  O   UNL     1       0.626  10.909  21.492  0.00  0.00    +0.000 OA
ATOM      7  C   UNL     1       1.032   8.294  20.563  0.00  0.00    +0.000 C 
ATOM      8  C   UNL     1       2.286   7.419  20.360  0.00  0.00    +0.000 C 
ENDROOT
BRANCH   1  13
ATOM      9  C   UNL     1       2.166   3.569  18.209  0.00  0.00    +0.000 A 
ATOM     10  C   UNL     1       3.182   3.374  17.273  0.00  0.00    +0.000 A 
ATOM     11  C   UNL     1       3.977   4.452  16.897  0.00  0.00    +0.000 A 
ATOM     12  C   UNL     1       3.744   5.717  17.441  0.00  0.00    +0.000 A 
ATOM     13  C   UNL     1       2.720   5.950  18.371  0.00  0.00    +0.000 A 
ATOM     14  C   UNL     1       1.935   4.846  18.736  0.00  0.00    +0.000 A 
BRANCH   9  16
ATOM     15  O   UNL     1       0.104   2.618  18.929  0.00  0.00    +0.000 OA
ATOM     16  C   UNL     1       1.279   2.464  18.655  0.00  0.00    +0.000 C 
BRANCH  16  17
ATOM     17  O   UNL     1       1.918   1.280  18.780  0.00  0.00    +0.000 OA
ATOM     18  H   UNL     1       1.375   0.496  18.573  0.00  0.00    +0.000 HD
ENDBRANCH  16  17
ENDBRANCH   9  16
ENDBRANCH   1  13
BRANCH   5  19
ATOM     19  C   UNL     1       0.822  11.973  19.339  0.00  0.00    +0.000 C 
BRANCH  19  20
ATOM     20  O   UNL     1      -0.281  12.826  19.612  0.00  0.00    +0.000 OA
BRANCH  20  21
ATOM     21  C   UNL     1      -1.514  12.418  19.169  0.00  0.00    +0.000 A 
ATOM     22  C   UNL     1      -2.581  12.685  20.028  0.00  0.00    +0.000 A 
ATOM     23  C   UNL     1      -3.888  12.329  19.685  0.00  0.00    +0.000 A 
ATOM     24  C   UNL     1      -4.137  11.691  18.471  0.00  0.00    +0.000 A 
ATOM     25  C   UNL     1      -3.084  11.405  17.595  0.00  0.00    +0.000 A 
ATOM     26  C   UNL     1      -1.774  11.777  17.956  0.00  0.00    +0.000 A 
BRANCH  25  27
ATOM     27  C   UNL     1      -3.334  10.699  16.285  0.00  0.00    +0.000 C 
ATOM     28  F   UNL     1      -2.534  11.128  15.270  0.00  0.00    +0.000 F 
ATOM     29  F   UNL     1      -3.135   9.354  16.374  0.00  0.00    +0.000 F 
ATOM     30  F   UNL     1      -4.613  10.857  15.847  0.00  0.00    +0.000 F 
ENDBRANCH  25  27
ENDBRANCH  20  21
ENDBRANCH  19  20
ENDBRANCH   5  19
TORSDOF 7
ENDMDL
MODEL 2
REMARK VINA RESULT:      -7.9      1.524      2.046
REMARK  Name = 
REMARK  7 active torsions:
REMARK  status: ('A' for Active; 'I' for Inactive)
REMARK    1  A    between atoms: C_2  and  O_3
REMARK    2  A    between atoms: C_2  and  C_4
REMARK    3  A    between atoms: C_8  and  N_9
REMARK    4  A    between atoms: C_13  and  C_15
REMARK    5  A    between atoms: C_15  and  O_16
REMARK    6  A    between atoms: O_16  and  C_17
REMARK    7  A    between atoms: C_21  and  C_22
REMARK                            x       y       z     vdW  Elec       q    Type
REMARK                         _______ _______ _______ _____ _____    ______ ____
ROOT
ATOM      1  N   UNL     1       2.395   7.312  18.970  0.00  0.00    +0.000 N 
ATOM      2  C   UNL     1       2.442   8.557  18.194  0.00  0.00    +0.000 C 
ATOM      3  C   UNL     1       1.175   9.379  18.474  0.00  0.00    +0.000 C 
ATOM      4  N   UNL     1       0.965   9.587  19.908  0.00  0.00    +0.000 N 
ATOM      5  C   UNL     1       0.731  10.818  20.502  0.00  0.00    +0.000 C 
ATOM      6  O   UNL     1       0.574  10.934  21.718  0.00  0.00    +0.000 OA
ATOM      7  C   UNL     1       0.974   8.347  20.709  0.00  0.00    +0.000 C 
ATOM      8  C   UNL     1       2.230   7.498  20.425  0.00  0.00    +0.000 C 
ENDROOT
BRANCH   1  13
ATOM      9  C   UNL     1       3.899   4.567  16.973  0.00  0.00    +0.000 A 
ATOM     10  C   UNL     1       2.945   3.560  17.131  0.00  0.00    +0.000 A 
ATOM     11  C   UNL     1       1.810   3.812  17.895  0.00  0.00    +0.000 A 
ATOM     12  C   UNL     1       1.640   5.055  18.508  0.00  0.00    +0.000 A 
ATOM     13  C   UNL     1       2.588   6.083  18.383  0.00  0.00    +0.000 A 
ATOM     14  C   UNL     1       3.722   5.804  17.606  0.00  0.00    +0.000 A 
BRANCH   9  16
ATOM     15  O   UNL     1       5.547   5.175  15.364  0.00  0.00    +0.000 OA
ATOM     16  C   UNL     1       5.135   4.367  16.174  0.00  0.00    +0.000 C 
BRANCH  16  17
ATOM     17  O   UNL     1       5.729   3.173  16.393  0.00  0.00    +0.000 OA
ATOM     18  H   UNL     1       6.303   2.860  15.669  0.00  0.00    +0.000 HD
ENDBRANCH  16  17
ENDBRANCH   9  16
ENDBRANCH   1  13
BRANCH   5  19
ATOM     19  C   UNL     1       0.648  12.049  19.584  0.00  0.00    +0.000 C 
BRANCH  19  20
ATOM     20  O   UNL     1      -0.502  12.832  19.874  0.00  0.00    +0.000 OA
BRANCH  20  21
ATOM     21  C   UNL     1      -1.693  12.424  19.327  0.00  0.00    +0.000 A 
ATOM     22  C   UNL     1      -2.831  12.699  20.087  0.00  0.00    +0.000 A 
ATOM     23  C   UNL     1      -4.103  12.344  19.633  0.00  0.00    +0.000 A 
ATOM     24  C   UNL     1      -4.247  11.700  18.406  0.00  0.00    +0.000 A 
ATOM     25  C   UNL     1      -3.122  11.405  17.628  0.00  0.00    +0.000 A 
ATOM     26  C   UNL     1      -1.847  11.776  18.100  0.00  0.00    +0.000 A 
BRANCH  25  27
ATOM     27  C   UNL     1      -3.257  10.691  16.305  0.00  0.00    +0.000 C 
ATOM     28  F   UNL     1      -2.538  11.261  15.298  0.00  0.00    +0.000 F 
ATOM     29  F   UNL     1      -2.845   9.394  16.371  0.00  0.00    +0.000 F 
ATOM     30  F   UNL     1      -4.546  10.650  15.868  0.00  0.00    +0.000 F 
ENDBRANCH  25  27
ENDBRANCH  20  21
ENDBRANCH  19  20
ENDBRANCH   5  19
TORSDOF 7
ENDMDL
MODEL 3
REMARK VINA RESULT:      -7.8      4.370      6.250
REMARK  Name = 
REMARK  7 active torsions:
REMARK  status: ('A' for Active; 'I' for Inactive)
REMARK    1  A    between atoms: C_2  and  O_3
REMARK    2  A    between atoms: C_2  and  C_4
REMARK    3  A    between atoms: C_8  and  N_9
REMARK    4  A    between atoms: C_13  and  C_15
REMARK    5  A    between atoms: C_15  and  O_16
REMARK    6  A    between atoms: O_16  and  C_17
REMARK    7  A    between atoms: C_21  and  C_22
REMARK                            x       y       z     vdW  Elec       q    Type
REMARK                         _______ _______ _______ _____ _____    ______ ____
ROOT
ATOM      1  N   UNL     1       5.436   4.658  15.936  0.00  0.00    +0.000 N 
ATOM      2  C   UNL     1       5.490   5.936  16.657  0.00  0.00    +0.000 C 
ATOM      3  C   UNL     1       4.080   6.305  17.142  0.00  0.00    +0.000 C 
ATOM      4  N   UNL     1       3.466   5.221  17.911  0.00  0.00    +0.000 N 
ATOM      5  C   UNL     1       2.890   5.368  19.164  0.00  0.00    +0.000 C 
ATOM      6  O   UNL     1       2.399   4.415  19.770  0.00  0.00    +0.000 OA
ATOM      7  C   UNL     1       3.458   3.915  17.221  0.00  0.00    +0.000 C 
ATOM      8  C   UNL     1       4.863   3.538  16.707  0.00  0.00    +0.000 C 
ENDROOT
BRANCH   1  13
ATOM      9  C   UNL     1       5.981   3.455  12.466  0.00  0.00    +0.000 A 
ATOM     10  C   UNL     1       7.119   4.178  12.101  0.00  0.00    +0.000 A 
ATOM     11  C   UNL     1       7.693   5.050  13.020  0.00  0.00    +0.000 A 
ATOM     12  C   UNL     1       7.124   5.210  14.285  0.00  0.00    +0.000 A 
ATOM     13  C   UNL     1       5.971   4.511  14.676  0.00  0.00    +0.000 A 
ATOM     14  C   UNL     1       5.413   3.636  13.733  0.00  0.00    +0.000 A 
BRANCH   9  16
ATOM     15  O   UNL     1       4.238   2.727  11.016  0.00  0.00    +0.000 OA
ATOM     16  C   UNL     1       5.315   2.508  11.535  0.00  0.00    +0.000 C 
BRANCH  16  17
ATOM     17  O   UNL     1       5.996   1.353  11.366  0.00  0.00    +0.000 OA
ATOM     18  H   UNL     1       6.961   1.425  11.482  0.00  0.00    +0.000 HD
ENDBRANCH  16  17
ENDBRANCH   9  16
ENDBRANCH   1  13
BRANCH   5  19
ATOM     19  C   UNL     1       2.860   6.780  19.773  0.00  0.00    +0.000 C 
BRANCH  19  20
ATOM     20  O   UNL     1       2.186   7.695  18.921  0.00  0.00    +0.000 OA
BRANCH  20  21
ATOM     21  C   UNL     1       1.471   8.702  19.521  0.00  0.00    +0.000 A 
ATOM     22  C   UNL     1       1.181   9.801  18.711  0.00  0.00    +0.000 A 
ATOM     23  C   UNL     1       0.450  10.884  19.202  0.00  0.00    +0.000 A 
ATOM     24  C   UNL     1       0.003  10.878  20.523  0.00  0.00    +0.000 A 
ATOM     25  C   UNL     1       0.287   9.793  21.358  0.00  0.00    +0.000 A 
ATOM     26  C   UNL     1       1.022   8.706  20.843  0.00  0.00    +0.000 A 
BRANCH  25  27
ATOM     27  C   UNL     1      -0.172   9.778  22.796  0.00  0.00    +0.000 C 
ATOM     28  F   UNL     1      -0.683  10.968  23.220  0.00  0.00    +0.000 F 
ATOM     29  F   UNL     1      -1.145   8.852  23.020  0.00  0.00    +0.000 F 
ATOM     30  F   UNL     1       0.836   9.475  23.659  0.00  0.00    +0.000 F 
ENDBRANCH  25  27
ENDBRANCH  20  21
ENDBRANCH  19  20
ENDBRANCH   5  19
TORSDOF 7
ENDMDL
MODEL 4
REMARK VINA RESULT:      -7.7      4.003      9.174
REMARK  Name = 
REMARK  7 active torsions:
REMARK  status: ('A' for Active; 'I' for Inactive)
REMARK    1  A    between atoms: C_2  and  O_3
REMARK    2  A    between atoms: C_2  and  C_4
REMARK    3  A    between atoms: C_8  and  N_9
REMARK    4  A    between atoms: C_13  and  C_15
REMARK    5  A    between atoms: C_15  and  O_16
REMARK    6  A    between atoms: O_16  and  C_17
REMARK    7  A    between atoms: C_21  and  C_22
REMARK                            x       y       z     vdW  Elec       q    Type
REMARK                         _______ _______ _______ _____ _____    ______ ____
ROOT
ATOM      1  N   UNL     1      -0.016  11.941  21.509  0.00  0.00    +0.000 N 
ATOM      2  C   UNL     1       0.385  10.573  21.859  0.00  0.00    +0.000 C 
ATOM      3  C   UNL     1       0.152   9.651  20.654  0.00  0.00    +0.000 C 
ATOM      4  N   UNL     1       0.798  10.161  19.443  0.00  0.00    +0.000 N 
ATOM      5  C   UNL     1       1.638   9.421  18.624  0.00  0.00    +0.000 C 
ATOM      6  O   UNL     1       2.164   9.909  17.623  0.00  0.00    +0.000 OA
ATOM      7  C   UNL     1       0.449  11.556  19.111  0.00  0.00    +0.000 C 
ATOM      8  C   UNL     1       0.657  12.495  20.317  0.00  0.00    +0.000 C 
ENDROOT
BRANCH   1  13
ATOM      9  C   UNL     1      -3.057  12.961  23.378  0.00  0.00    +0.000 A 
ATOM     10  C   UNL     1      -2.669  14.208  23.872  0.00  0.00    +0.000 A 
ATOM     11  C   UNL     1      -1.402  14.695  23.569  0.00  0.00    +0.000 A 
ATOM     12  C   UNL     1      -0.526  13.933  22.793  0.00  0.00    +0.000 A 
ATOM     13  C   UNL     1      -0.879  12.669  22.295  0.00  0.00    +0.000 A 
ATOM     14  C   UNL     1      -2.163  12.203  22.612  0.00  0.00    +0.000 A 
BRANCH   9  16
ATOM     15  O   UNL     1      -5.326  12.432  22.885  0.00  0.00    +0.000 OA
ATOM     16  C   UNL     1      -4.394  12.379  23.663  0.00  0.00    +0.000 C 
BRANCH  16  17
ATOM     17  O   UNL     1      -4.490  11.834  24.896  0.00  0.00    +0.000 OA
ATOM     18  H   UNL     1      -5.104  11.080  24.965  0.00  0.00    +0.000 HD
ENDBRANCH  16  17
ENDBRANCH   9  16
ENDBRANCH   1  13
BRANCH   5  19
ATOM     19  C   UNL     1       1.878   7.947  18.992  0.00  0.00    +0.000 C 
BRANCH  19  20
ATOM     20  O   UNL     1       2.942   7.393  18.232  0.00  0.00    +0.000 OA
BRANCH  20  21
ATOM     21  C   UNL     1       2.989   6.025  18.124  0.00  0.00    +0.000 A 
ATOM     22  C   UNL     1       3.993   5.521  17.296  0.00  0.00    +0.000 A 
ATOM     23  C   UNL     1       4.152   4.145  17.113  0.00  0.00    +0.000 A 
ATOM     24  C   UNL     1       3.295   3.256  17.760  0.00  0.00    +0.000 A 
ATOM     25  C   UNL     1       2.275   3.736  18.589  0.00  0.00    +0.000 A 
ATOM     26  C   UNL     1       2.135   5.127  18.766  0.00  0.00    +0.000 A 
BRANCH  25  27
ATOM     27  C   UNL     1       1.327   2.788  19.282  0.00  0.00    +0.000 C 
ATOM     28  F   UNL     1       1.935   1.968  20.185  0.00  0.00    +0.000 F 
ATOM     29  F   UNL     1       0.350   3.442  19.970  0.00  0.00    +0.000 F 
ATOM     30  F   UNL     1       0.682   1.969  18.407  0.00  0.00    +0.000 F 
ENDBRANCH  25  27
ENDBRANCH  20  21
ENDBRANCH  19  20
ENDBRANCH   5  19
TORSDOF 7
ENDMDL
MODEL 5
REMARK VINA RESULT:      -7.7      0.906      1.236
REMARK  Name = 
REMARK  7 active torsions:
REMARK  status: ('A' for Active; 'I' for Inactive)
REMARK    1  A    between atoms: C_2  and  O_3
REMARK    2  A    between atoms: C_2  and  C_4
REMARK    3  A    between atoms: C_8  and  N_9
REMARK    4  A    between atoms: C_13  and  C_15
REMARK    5  A    between atoms: C_15  and  O_16
REMARK    6  A    between atoms: O_16  and  C_17
REMARK    7  A    between atoms: C_21  and  C_22
REMARK                            x       y       z     vdW  Elec       q    Type
REMARK                         _______ _______ _______ _____ _____    ______ ____
ROOT
ATOM      1  N   UNL     1       2.194   7.835  19.064  0.00  0.00    +0.000 N 
ATOM      2  C   UNL     1       2.042   9.102  18.338  0.00  0.00    +0.000 C 
ATOM      3  C   UNL     1       0.627   9.653  18.567  0.00  0.00    +0.000 C 
ATOM      4  N   UNL     1       0.301   9.747  19.992  0.00  0.00    +0.000 N 
ATOM      5  C   UNL     1      -0.199  10.882  20.614  0.00  0.00    +0.000 C 
ATOM      6  O   UNL     1      -0.442  10.907  21.821  0.00  0.00    +0.000 OA
ATOM      7  C   UNL     1       0.506   8.495  20.746  0.00  0.00    +0.000 C 
ATOM      8  C   UNL     1       1.916   7.916  20.511  0.00  0.00    +0.000 C 
ENDROOT
BRANCH   1  13
ATOM      9  C   UNL     1       2.487   4.293  17.991  0.00  0.00    +0.000 A 
ATOM     10  C   UNL     1       3.643   4.339  17.209  0.00  0.00    +0.000 A 
ATOM     11  C   UNL     1       4.313   5.548  17.057  0.00  0.00    +0.000 A 
ATOM     12  C   UNL     1       3.821   6.704  17.667  0.00  0.00    +0.000 A 
ATOM     13  C   UNL     1       2.653   6.694  18.445  0.00  0.00    +0.000 A 
ATOM     14  C   UNL     1       1.998   5.462  18.586  0.00  0.00    +0.000 A 
BRANCH   9  16
ATOM     15  O   UNL     1       0.792   2.939  18.974  0.00  0.00    +0.000 OA
ATOM     16  C   UNL     1       1.720   3.037  18.195  0.00  0.00    +0.000 C 
BRANCH  16  17
ATOM     17  O   UNL     1       2.191   1.997  17.471  0.00  0.00    +0.000 OA
ATOM     18  H   UNL     1       1.863   1.122  17.750  0.00  0.00    +0.000 HD
ENDBRANCH  16  17
ENDBRANCH   9  16
ENDBRANCH   1  13
BRANCH   5  19
ATOM     19  C   UNL     1      -0.467  12.117  19.739  0.00  0.00    +0.000 C 
BRANCH  19  20
ATOM     20  O   UNL     1      -1.783  12.614  19.937  0.00  0.00    +0.000 OA
BRANCH  20  21
ATOM     21  C   UNL     1      -2.768  12.130  19.112  0.00  0.00    +0.000 A 
ATOM     22  C   UNL     1      -4.074  12.291  19.575  0.00  0.00    +0.000 A 
ATOM     23  C   UNL     1      -5.165  11.851  18.821  0.00  0.00    +0.000 A 
ATOM     24  C   UNL     1      -4.952  11.235  17.588  0.00  0.00    +0.000 A 
ATOM     25  C   UNL     1      -3.652  11.054  17.105  0.00  0.00    +0.000 A 
ATOM     26  C   UNL     1      -2.565  11.510  17.878  0.00  0.00    +0.000 A 
BRANCH  25  27
ATOM     27  C   UNL     1      -3.403  10.373  15.782  0.00  0.00    +0.000 C 
ATOM     28  F   UNL     1      -4.484  10.373  14.953  0.00  0.00    +0.000 F 
ATOM     29  F   UNL     1      -2.393  10.957  15.079  0.00  0.00    +0.000 F 
ATOM     30  F   UNL     1      -3.045   9.067  15.930  0.00  0.00    +0.000 F 
ENDBRANCH  25  27
ENDBRANCH  20  21
ENDBRANCH  19  20
ENDBRANCH   5  19
TORSDOF 7
ENDMDL
MODEL 6
REMARK VINA RESULT:      -7.7      4.090      5.843
REMARK  Name = 
REMARK  7 active torsions:
REMARK  status: ('A' for Active; 'I' for Inactive)
REMARK    1  A    between atoms: C_2  and  O_3
REMARK    2  A    between atoms: C_2  and  C_4
REMARK    3  A    between atoms: C_8  and  N_9
REMARK    4  A    between atoms: C_13  and  C_15
REMARK    5  A    between atoms: C_15  and  O_16
REMARK    6  A    between atoms: O_16  and  C_17
REMARK    7  A    between atoms: C_21  and  C_22
REMARK                            x       y       z     vdW  Elec       q    Type
REMARK                         _______ _______ _______ _____ _____    ______ ____
ROOT
ATOM      1  N   UNL     1       5.063   4.793  16.330  0.00  0.00    +0.000 N 
ATOM      2  C   UNL     1       5.244   5.994  17.154  0.00  0.00    +0.000 C 
ATOM      3  C   UNL     1       3.868   6.557  17.540  0.00  0.00    +0.000 C 
ATOM      4  N   UNL     1       3.016   5.540  18.160  0.00  0.00    +0.000 N 
ATOM      5  C   UNL     1       2.346   5.698  19.364  0.00  0.00    +0.000 C 
ATOM      6  O   UNL     1       1.652   4.800  19.844  0.00  0.00    +0.000 OA
ATOM      7  C   UNL     1       2.873   4.303  17.368  0.00  0.00    +0.000 C 
ATOM      8  C   UNL     1       4.246   3.734  16.953  0.00  0.00    +0.000 C 
ENDROOT
BRANCH   1  13
ATOM      9  C   UNL     1       5.795   3.693  12.860  0.00  0.00    +0.000 A 
ATOM     10  C   UNL     1       7.032   4.301  12.636  0.00  0.00    +0.000 A 
ATOM     11  C   UNL     1       7.609   5.062  13.647  0.00  0.00    +0.000 A 
ATOM     12  C   UNL     1       6.945   5.227  14.865  0.00  0.00    +0.000 A 
ATOM     13  C   UNL     1       5.694   4.644  15.115  0.00  0.00    +0.000 A 
ATOM     14  C   UNL     1       5.135   3.879  14.081  0.00  0.00    +0.000 A 
BRANCH   9  16
ATOM     15  O   UNL     1       4.092   3.201  11.270  0.00  0.00    +0.000 OA
ATOM     16  C   UNL     1       5.120   2.868  11.825  0.00  0.00    +0.000 C 
BRANCH  16  17
ATOM     17  O   UNL     1       5.731   1.683  11.601  0.00  0.00    +0.000 OA
ATOM     18  H   UNL     1       5.191   0.898  11.804  0.00  0.00    +0.000 HD
ENDBRANCH  16  17
ENDBRANCH   9  16
ENDBRANCH   1  13
BRANCH   5  19
ATOM     19  C   UNL     1       2.476   7.051  20.082  0.00  0.00    +0.000 C 
BRANCH  19  20
ATOM     20  O   UNL     1       1.295   7.367  20.806  0.00  0.00    +0.000 OA
BRANCH  20  21
ATOM     21  C   UNL     1       0.818   8.650  20.699  0.00  0.00    +0.000 A 
ATOM     22  C   UNL     1       1.147   9.317  19.519  0.00  0.00    +0.000 A 
ATOM     23  C   UNL     1       0.711  10.624  19.285  0.00  0.00    +0.000 A 
ATOM     24  C   UNL     1      -0.060  11.279  20.244  0.00  0.00    +0.000 A 
ATOM     25  C   UNL     1      -0.397  10.635  21.439  0.00  0.00    +0.000 A 
ATOM     26  C   UNL     1       0.047   9.315  21.654  0.00  0.00    +0.000 A 
BRANCH  25  27
ATOM     27  C   UNL     1      -1.215  11.337  22.495  0.00  0.00    +0.000 C 
ATOM     28  F   UNL     1      -1.535  10.544  23.557  0.00  0.00    +0.000 F 
ATOM     29  F   UNL     1      -0.572  12.418  23.016  0.00  0.00    +0.000 F 
ATOM     30  F   UNL     1      -2.397  11.805  22.009  0.00  0.00    +0.000 F 
ENDBRANCH  25  27
ENDBRANCH  20  21
ENDBRANCH  19  20
ENDBRANCH   5  19
TORSDOF 7
ENDMDL
MODEL 7
REMARK VINA RESULT:      -7.6      3.671      5.482
REMARK  Name = 
REMARK  7 active torsions:
REMARK  status: ('A' for Active; 'I' for Inactive)
REMARK    1  A    between atoms: C_2  and  O_3
REMARK    2  A    between atoms: C_2  and  C_4
REMARK    3  A    between atoms: C_8  and  N_9
REMARK    4  A    between atoms: C_13  and  C_15
REMARK    5  A    between atoms: C_15  and  O_16
REMARK    6  A    between atoms: O_16  and  C_17
REMARK    7  A    between atoms: C_21  and  C_22
REMARK                            x       y       z     vdW  Elec       q    Type
REMARK                         _______ _______ _______ _____ _____    ______ ____
ROOT
ATOM      1  N   UNL     1       5.199   4.882  16.100  0.00  0.00    +0.000 N 
ATOM      2  C   UNL     1       5.253   6.187  16.772  0.00  0.00    +0.000 C 
ATOM      3  C   UNL     1       3.830   6.619  17.156  0.00  0.00    +0.000 C 
ATOM      4  N   UNL     1       3.136   5.587  17.929  0.00  0.00    +0.000 N 
ATOM      5  C   UNL     1       2.493   5.804  19.139  0.00  0.00    +0.000 C 
ATOM      6  O   UNL     1       1.936   4.893  19.751  0.00  0.00    +0.000 OA
ATOM      7  C   UNL     1       3.126   4.255  17.292  0.00  0.00    +0.000 C 
ATOM      8  C   UNL     1       4.545   3.814  16.879  0.00  0.00    +0.000 C 
ENDROOT
BRANCH   1  13
ATOM      9  C   UNL     1       5.851   3.599  12.678  0.00  0.00    +0.000 A 
ATOM     10  C   UNL     1       7.084   4.189  12.395  0.00  0.00    +0.000 A 
ATOM     11  C   UNL     1       7.686   5.000  13.351  0.00  0.00    +0.000 A 
ATOM     12  C   UNL     1       7.050   5.232  14.573  0.00  0.00    +0.000 A 
ATOM     13  C   UNL     1       5.802   4.668  14.882  0.00  0.00    +0.000 A 
ATOM     14  C   UNL     1       5.219   3.852  13.901  0.00  0.00    +0.000 A 
BRANCH   9  16
ATOM     15  O   UNL     1       5.554   1.622  11.383  0.00  0.00    +0.000 OA
ATOM     16  C   UNL     1       5.151   2.723  11.703  0.00  0.00    +0.000 C 
BRANCH  16  17
ATOM     17  O   UNL     1       4.051   3.293  11.162  0.00  0.00    +0.000 OA
ATOM     18  H   UNL     1       3.586   3.921  11.745  0.00  0.00    +0.000 HD
ENDBRANCH  16  17
ENDBRANCH   9  16
ENDBRANCH   1  13
BRANCH   5  19
ATOM     19  C   UNL     1       2.474   7.240  19.689  0.00  0.00    +0.000 C 
BRANCH  19  20
ATOM     20  O   UNL     1       1.620   7.348  20.820  0.00  0.00    +0.000 OA
BRANCH  20  21
ATOM     21  C   UNL     1       0.890   8.504  20.947  0.00  0.00    +0.000 A 
ATOM     22  C   UNL     1       0.710   8.961  22.253  0.00  0.00    +0.000 A 
ATOM     23  C   UNL     1      -0.004  10.133  22.513  0.00  0.00    +0.000 A 
ATOM     24  C   UNL     1      -0.554  10.859  21.457  0.00  0.00    +0.000 A 
ATOM     25  C   UNL     1      -0.395  10.418  20.139  0.00  0.00    +0.000 A 
ATOM     26  C   UNL     1       0.334   9.236  19.897  0.00  0.00    +0.000 A 
BRANCH  25  27
ATOM     27  C   UNL     1      -0.999  11.181  18.986  0.00  0.00    +0.000 C 
ATOM     28  F   UNL     1      -2.336  11.406  19.118  0.00  0.00    +0.000 F 
ATOM     29  F   UNL     1      -0.428  12.407  18.820  0.00  0.00    +0.000 F 
ATOM     30  F   UNL     1      -0.843  10.534  17.798  0.00  0.00    +0.000 F 
ENDBRANCH  25  27
ENDBRANCH  20  21
ENDBRANCH  19  20
ENDBRANCH   5  19
TORSDOF 7
ENDMDL
MODEL 8
REMARK VINA RESULT:      -7.6      3.828      5.757
REMARK  Name = 
REMARK  7 active torsions:
REMARK  status: ('A' for Active; 'I' for Inactive)
REMARK    1  A    between atoms: C_2  and  O_3
REMARK    2  A    between atoms: C_2  and  C_4
REMARK    3  A    between atoms: C_8  and  N_9
REMARK    4  A    between atoms: C_13  and  C_15
REMARK    5  A    between atoms: C_15  and  O_16
REMARK    6  A    between atoms: O_16  and  C_17
REMARK    7  A    between atoms: C_21  and  C_22
REMARK                            x       y       z     vdW  Elec       q    Type
REMARK                         _______ _______ _______ _____ _____    ______ ____
ROOT
ATOM      1  N   UNL     1       5.240   4.679  16.298  0.00  0.00    +0.000 N 
ATOM      2  C   UNL     1       5.309   5.911  17.094  0.00  0.00    +0.000 C 
ATOM      3  C   UNL     1       3.891   6.323  17.516  0.00  0.00    +0.000 C 
ATOM      4  N   UNL     1       3.181   5.230  18.184  0.00  0.00    +0.000 N 
ATOM      5  C   UNL     1       2.537   5.338  19.408  0.00  0.00    +0.000 C 
ATOM      6  O   UNL     1       1.966   4.378  19.928  0.00  0.00    +0.000 OA
ATOM      7  C   UNL     1       3.154   3.967  17.420  0.00  0.00    +0.000 C 
ATOM      8  C   UNL     1       4.568   3.548  16.968  0.00  0.00    +0.000 C 
ENDROOT
BRANCH   1  13
ATOM      9  C   UNL     1       5.948   3.630  12.808  0.00  0.00    +0.000 A 
ATOM     10  C   UNL     1       7.129   4.328  12.547  0.00  0.00    +0.000 A 
ATOM     11  C   UNL     1       7.677   5.132  13.541  0.00  0.00    +0.000 A 
ATOM     12  C   UNL     1       7.040   5.250  14.778  0.00  0.00    +0.000 A 
ATOM     13  C   UNL     1       5.843   4.575  15.065  0.00  0.00    +0.000 A 
ATOM     14  C   UNL     1       5.313   3.769  14.048  0.00  0.00    +0.000 A 
BRANCH   9  16
ATOM     15  O   UNL     1       4.265   3.033  11.232  0.00  0.00    +0.000 OA
ATOM     16  C   UNL     1       5.307   2.756  11.793  0.00  0.00    +0.000 C 
BRANCH  16  17
ATOM     17  O   UNL     1       5.966   1.592  11.593  0.00  0.00    +0.000 OA
ATOM     18  H   UNL     1       5.437   0.887  11.175  0.00  0.00    +0.000 HD
ENDBRANCH  16  17
ENDBRANCH   9  16
ENDBRANCH   1  13
BRANCH   5  19
ATOM     19  C   UNL     1       2.536   6.713  20.095  0.00  0.00    +0.000 C 
BRANCH  19  20
ATOM     20  O   UNL     1       1.332   6.926  20.820  0.00  0.00    +0.000 OA
BRANCH  20  21
ATOM     21  C   UNL     1       0.884   8.219  20.924  0.00  0.00    +0.000 A 
ATOM     22  C   UNL     1       0.103   8.497  22.047  0.00  0.00    +0.000 A 
ATOM     23  C   UNL     1      -0.403   9.779  22.273  0.00  0.00    +0.000 A 
ATOM     24  C   UNL     1      -0.134  10.801  21.363  0.00  0.00    +0.000 A 
ATOM     25  C   UNL     1       0.638  10.547  20.225  0.00  0.00    +0.000 A 
ATOM     26  C   UNL     1       1.145   9.248  20.018  0.00  0.00    +0.000 A 
BRANCH  25  27
ATOM     27  C   UNL     1       0.923  11.637  19.220  0.00  0.00    +0.000 C 
ATOM     28  F   UNL     1       1.735  11.243  18.200  0.00  0.00    +0.000 F 
ATOM     29  F   UNL     1      -0.211  12.111  18.633  0.00  0.00    +0.000 F 
ATOM     30  F   UNL     1       1.529  12.717  19.786  0.00  0.00    +0.000 F 
ENDBRANCH  25  27
ENDBRANCH  20  21
ENDBRANCH  19  20
ENDBRANCH   5  19
TORSDOF 7
ENDMDL
MODEL 9
REMARK VINA RESULT:      -7.5      4.461      9.402
REMARK  Name = 
REMARK  7 active torsions:
REMARK  status: ('A' for Active; 'I' for Inactive)
REMARK    1  A    between atoms: C_2  and  O_3
REMARK    2  A    between atoms: C_2  and  C_4
REMARK    3  A    between atoms: C_8  and  N_9
REMARK    4  A    between atoms: C_13  and  C_15
REMARK    5  A    between atoms: C_15  and  O_16
REMARK    6  A    between atoms: O_16  and  C_17
REMARK    7  A    between atoms: C_21  and  C_22
REMARK                            x       y       z     vdW  Elec       q    Type
REMARK                         _______ _______ _______ _____ _____    ______ ____
ROOT
ATOM      1  N   UNL     1       1.760   7.004  20.008  0.00  0.00    +0.000 N 
ATOM      2  C   UNL     1       2.727   6.891  18.910  0.00  0.00    +0.000 C 
ATOM      3  C   UNL     1       3.906   6.015  19.360  0.00  0.00    +0.000 C 
ATOM      4  N   UNL     1       3.458   4.724  19.886  0.00  0.00    +0.000 N 
ATOM      5  C   UNL     1       3.948   3.492  19.479  0.00  0.00    +0.000 C 
ATOM      6  O   UNL     1       3.523   2.436  19.948  0.00  0.00    +0.000 OA
ATOM      7  C   UNL     1       2.440   4.822  20.950  0.00  0.00    +0.000 C 
ATOM      8  C   UNL     1       1.258   5.716  20.524  0.00  0.00    +0.000 C 
ENDROOT
BRANCH   1  13
ATOM      9  C   UNL     1       0.588  10.527  20.000  0.00  0.00    +0.000 A 
ATOM     10  C   UNL     1       0.393  10.754  21.364  0.00  0.00    +0.000 A 
ATOM     11  C   UNL     1       0.663   9.732  22.268  0.00  0.00    +0.000 A 
ATOM     12  C   UNL     1       1.107   8.490  21.810  0.00  0.00    +0.000 A 
ATOM     13  C   UNL     1       1.296   8.225  20.444  0.00  0.00    +0.000 A 
ATOM     14  C   UNL     1       1.020   9.272  19.554  0.00  0.00    +0.000 A 
BRANCH   9  16
ATOM     15  O   UNL     1       0.567  12.750  19.144  0.00  0.00    +0.000 OA
ATOM     16  C   UNL     1       0.318  11.572  18.979  0.00  0.00    +0.000 C 
BRANCH  16  17
ATOM     17  O   UNL     1      -0.284  11.093  17.867  0.00  0.00    +0.000 OA
ATOM     18  H   UNL     1      -0.376  10.123  17.835  0.00  0.00    +0.000 HD
ENDBRANCH  16  17
ENDBRANCH   9  16
ENDBRANCH   1  13
BRANCH   5  19
ATOM     19  C   UNL     1       5.072   3.482  18.429  0.00  0.00    +0.000 C 
BRANCH  19  20
ATOM     20  O   UNL     1       4.546   3.397  17.111  0.00  0.00    +0.000 OA
BRANCH  20  21
ATOM     21  C   UNL     1       5.348   3.833  16.086  0.00  0.00    +0.000 A 
ATOM     22  C   UNL     1       6.344   4.741  16.447  0.00  0.00    +0.000 A 
ATOM     23  C   UNL     1       7.233   5.250  15.497  0.00  0.00    +0.000 A 
ATOM     24  C   UNL     1       7.125   4.854  14.165  0.00  0.00    +0.000 A 
ATOM     25  C   UNL     1       6.130   3.951  13.775  0.00  0.00    +0.000 A 
ATOM     26  C   UNL     1       5.247   3.444  14.750  0.00  0.00    +0.000 A 
BRANCH  25  27
ATOM     27  C   UNL     1       5.988   3.526  12.334  0.00  0.00    +0.000 C 
ATOM     28  F   UNL     1       4.770   3.814  11.796  0.00  0.00    +0.000 F 
ATOM     29  F   UNL     1       6.905   4.123  11.524  0.00  0.00    +0.000 F 
ATOM     30  F   UNL     1       6.162   2.186  12.170  0.00  0.00    +0.000 F 
ENDBRANCH  25  27
ENDBRANCH  20  21
ENDBRANCH  19  20
ENDBRANCH   5  19
TORSDOF 7
ENDMDL
