MODEL 1
REMARK VINA RESULT:      -8.6      0.000      0.000
REMARK  Name = 
REMARK  9 active torsions:
REMARK  status: ('A' for Active; 'I' for Inactive)
REMARK    1  A    between atoms: C_1  and  C_2
REMARK    2  A    between atoms: C_2  and  C_3
REMARK    3  A    between atoms: C_2  and  C_4
REMARK    4  A    between atoms: C_7  and  S_8
REMARK    5  A    between atoms: S_8  and  O_11
REMARK    6  A    between atoms: O_11  and  C_12
REMARK    7  A    between atoms: C_13  and  C_14
REMARK    8  A    between atoms: C_20  and  C_21
REMARK    9  A    between atoms: C_30  and  C_31
REMARK                            x       y       z     vdW  Elec       q    Type
REMARK                         _______ _______ _______ _____ _____    ______ ____
ROOT
ATOM      1  C   UNL     1      -1.773  11.970  19.391  0.00  0.00    +0.000 A 
ATOM      2  C   UNL     1      -2.634  12.618  20.336  0.00  0.00    +0.000 A 
ATOM      3  C   UNL     1      -3.950  12.570  19.829  0.00  0.00    +0.000 A 
ATOM      4  N   UNL     1      -3.869  11.959  18.568  0.00  0.00    +0.000 N 
ATOM      5  C   UNL     1      -4.891  11.699  17.633  0.00  0.00    +0.000 A 
ATOM      6  C   UNL     1      -4.606  11.200  16.420  0.00  0.00    +0.000 A 
ATOM      7  C   UNL     1      -3.230  10.866  16.118  0.00  0.00    +0.000 A 
ATOM      8  C   UNL     1      -2.263  11.035  17.022  0.00  0.00    +0.000 A 
ATOM      9  C   UNL     1      -2.536  11.621  18.297  0.00  0.00    +0.000 A 
ENDROOT
BRANCH   2  10
ATOM     10  C   UNL     1      -2.229  13.253  21.603  0.00  0.00    +0.000 A 
ATOM     11  C   UNL     1      -1.285  14.290  21.636  0.00  0.00    +0.000 A 
ATOM     12  C   UNL     1      -0.946  14.924  22.835  0.00  0.00    +0.000 A 
ATOM     13  C   UNL     1      -1.481  14.472  24.035  0.00  0.00    +0.000 A 
ATOM     14  C   UNL     1      -2.374  13.404  24.033  0.00  0.00    +0.000 A 
ATOM     15  C   UNL     1      -2.762  12.814  22.824  0.00  0.00    +0.000 A 
ENDBRANCH   2  10
BRANCH   3  16
ATOM     16  C   UNL     1      -5.230  13.064  20.419  0.00  0.00    +0.000 A 
ATOM     17  C   UNL     1      -6.120  12.208  21.091  0.00  0.00    +0.000 A 
ATOM     18  C   UNL     1      -7.341  12.670  21.596  0.00  0.00    +0.000 A 
ATOM     19  C   UNL     1      -7.742  13.979  21.356  0.00  0.00    +0.000 A 
ATOM     20  C   UNL     1      -6.894  14.839  20.666  0.00  0.00    +0.000 A 
ATOM     21  C   UNL     1      -5.631  14.398  20.249  0.00  0.00    +0.000 A 
ENDBRANCH   3  16
BRANCH   7  22
ATOM     22  C   UNL     1      -2.901  10.240  14.772  0.00  0.00    +0.000 C 
ATOM     23  N   UNL     1      -2.629   9.721  13.657  0.00  0.00    +0.000 NA
ENDBRANCH   7  22
BRANCH   1  24
ATOM     24  O   UNL     1      -0.434  11.802  19.562  0.00  0.00    +0.000 OA
BRANCH  24  25
ATOM     25  S   UNL     1       0.213  10.811  20.681  0.00  0.00    +0.000 S 
ATOM     26  O   UNL     1      -0.867  10.169  21.409  0.00  0.00    +0.000 OA
ATOM     27  O   UNL     1       1.293  11.500  21.369  0.00  0.00    +0.000 OA
BRANCH  25  31
ATOM     28  C   UNL     1       2.451   7.468  18.537  0.00  0.00    +0.000 A 
ATOM     29  C   UNL     1       2.054   8.616  17.830  0.00  0.00    +0.000 A 
ATOM     30  C   UNL     1       1.343   9.635  18.459  0.00  0.00    +0.000 A 
ATOM     31  C   UNL     1       1.030   9.500  19.810  0.00  0.00    +0.000 A 
ATOM     32  C   UNL     1       1.416   8.365  20.534  0.00  0.00    +0.000 A 
ATOM     33  C   UNL     1       2.122   7.355  19.897  0.00  0.00    +0.000 A 
BRANCH  28  35
ATOM     34  C   UNL     1       4.497   6.901  17.165  0.00  0.00    +0.000 C 
ATOM     35  C   UNL     1       3.224   6.370  17.833  0.00  0.00    +0.000 C 
ATOM     36  C   UNL     1       3.546   5.231  18.804  0.00  0.00    +0.000 C 
ENDBRANCH  28  35
ENDBRANCH  25  31
ENDBRANCH  24  25
ENDBRANCH   1  24
TORSDOF 7
ENDMDL
MODEL 2
REMARK VINA RESULT:      -8.6      0.368      1.204
REMARK  Name = 
REMARK  9 active torsions:
REMARK  status: ('A' for Active; 'I' for Inactive)
REMARK    1  A    between atoms: C_1  and  C_2
REMARK    2  A    between atoms: C_2  and  C_3
REMARK    3  A    between atoms: C_2  and  C_4
REMARK    4  A    between atoms: C_7  and  S_8
REMARK    5  A    between atoms: S_8  and  O_11
REMARK    6  A    between atoms: O_11  and  C_12
REMARK    7  A    between atoms: C_13  and  C_14
REMARK    8  A    between atoms: C_20  and  C_21
REMARK    9  A    between atoms: C_30  and  C_31
REMARK                            x       y       z     vdW  Elec       q    Type
REMARK                         _______ _______ _______ _____ _____    ______ ____
ROOT
ATOM      1  C   UNL     1      -1.728  11.911  19.331  0.00  0.00    +0.000 A 
ATOM      2  C   UNL     1      -2.579  12.581  20.271  0.00  0.00    +0.000 A 
ATOM      3  C   UNL     1      -3.893  12.558  19.758  0.00  0.00    +0.000 A 
ATOM      4  N   UNL     1      -3.820  11.942  18.499  0.00  0.00    +0.000 N 
ATOM      5  C   UNL     1      -4.844  11.700  17.561  0.00  0.00    +0.000 A 
ATOM      6  C   UNL     1      -4.565  11.191  16.351  0.00  0.00    +0.000 A 
ATOM      7  C   UNL     1      -3.195  10.826  16.056  0.00  0.00    +0.000 A 
ATOM      8  C   UNL     1      -2.228  10.978  16.963  0.00  0.00    +0.000 A 
ATOM      9  C   UNL     1      -2.494  11.574  18.235  0.00  0.00    +0.000 A 
ENDROOT
BRANCH   2  10
ATOM     10  C   UNL     1      -2.165  13.211  21.537  0.00  0.00    +0.000 A 
ATOM     11  C   UNL     1      -2.656  12.766  22.773  0.00  0.00    +0.000 A 
ATOM     12  C   UNL     1      -2.217  13.333  23.973  0.00  0.00    +0.000 A 
ATOM     13  C   UNL     1      -1.344  14.414  23.953  0.00  0.00    +0.000 A 
ATOM     14  C   UNL     1      -0.890  14.910  22.734  0.00  0.00    +0.000 A 
ATOM     15  C   UNL     1      -1.280  14.299  21.537  0.00  0.00    +0.000 A 
ENDBRANCH   2  10
BRANCH   3  16
ATOM     16  C   UNL     1      -5.164  13.082  20.341  0.00  0.00    +0.000 A 
ATOM     17  C   UNL     1      -6.036  12.266  21.083  0.00  0.00    +0.000 A 
ATOM     18  C   UNL     1      -7.250  12.752  21.582  0.00  0.00    +0.000 A 
ATOM     19  C   UNL     1      -7.664  14.041  21.268  0.00  0.00    +0.000 A 
ATOM     20  C   UNL     1      -6.836  14.861  20.509  0.00  0.00    +0.000 A 
ATOM     21  C   UNL     1      -5.578  14.401  20.095  0.00  0.00    +0.000 A 
ENDBRANCH   3  16
BRANCH   7  22
ATOM     22  C   UNL     1      -2.874  10.189  14.714  0.00  0.00    +0.000 C 
ATOM     23  N   UNL     1      -2.608   9.660  13.601  0.00  0.00    +0.000 NA
ENDBRANCH   7  22
BRANCH   1  24
ATOM     24  O   UNL     1      -0.394  11.714  19.508  0.00  0.00    +0.000 OA
BRANCH  24  25
ATOM     25  S   UNL     1       0.230  10.767  20.677  0.00  0.00    +0.000 S 
ATOM     26  O   UNL     1      -0.864  10.117  21.377  0.00  0.00    +0.000 OA
ATOM     27  O   UNL     1       1.265  11.497  21.391  0.00  0.00    +0.000 OA
BRANCH  25  31
ATOM     28  C   UNL     1       2.351   7.356  18.521  0.00  0.00    +0.000 A 
ATOM     29  C   UNL     1       2.131   7.284  19.906  0.00  0.00    +0.000 A 
ATOM     30  C   UNL     1       1.512   8.329  20.590  0.00  0.00    +0.000 A 
ATOM     31  C   UNL     1       1.110   9.454  19.873  0.00  0.00    +0.000 A 
ATOM     32  C   UNL     1       1.318   9.547  18.492  0.00  0.00    +0.000 A 
ATOM     33  C   UNL     1       1.938   8.502  17.821  0.00  0.00    +0.000 A 
BRANCH  28  35
ATOM     34  C   UNL     1       4.441   5.949  18.326  0.00  0.00    +0.000 C 
ATOM     35  C   UNL     1       3.027   6.209  17.796  0.00  0.00    +0.000 C 
ATOM     36  C   UNL     1       2.169   4.944  17.873  0.00  0.00    +0.000 C 
ENDBRANCH  28  35
ENDBRANCH  25  31
ENDBRANCH  24  25
ENDBRANCH   1  24
TORSDOF 7
ENDMDL
MODEL 3
REMARK VINA RESULT:      -8.6      0.385      1.215
REMARK  Name = 
REMARK  9 active torsions:
REMARK  status: ('A' for Active; 'I' for Inactive)
REMARK    1  A    between atoms: C_1  and  C_2
REMARK    2  A    between atoms: C_2  and  C_3
REMARK    3  A    between atoms: C_2  and  C_4
REMARK    4  A    between atoms: C_7  and  S_8
REMARK    5  A    between atoms: S_8  and  O_11
REMARK    6  A    between atoms: O_11  and  C_12
REMARK    7  A    between atoms: C_13  and  C_14
REMARK    8  A    between atoms: C_20  and  C_21
REMARK    9  A    between atoms: C_30  and  C_31
REMARK                            x       y       z     vdW  Elec       q    Type
REMARK                         _______ _______ _______ _____ _____    ______ ____
ROOT
ATOM      1  C   UNL     1      -1.698  11.989  19.373  0.00  0.00    +0.000 A 
ATOM      2  C   UNL     1      -2.547  12.650  20.321  0.00  0.00    +0.000 A 
ATOM      3  C   UNL     1      -3.867  12.606  19.825  0.00  0.00    +0.000 A 
ATOM      4  N   UNL     1      -3.801  11.984  18.568  0.00  0.00    +0.000 N 
ATOM      5  C   UNL     1      -4.833  11.723  17.645  0.00  0.00    +0.000 A 
ATOM      6  C   UNL     1      -4.562  11.213  16.433  0.00  0.00    +0.000 A 
ATOM      7  C   UNL     1      -3.190  10.867  16.122  0.00  0.00    +0.000 A 
ATOM      8  C   UNL     1      -2.214  11.038  17.016  0.00  0.00    +0.000 A 
ATOM      9  C   UNL     1      -2.473  11.636  18.289  0.00  0.00    +0.000 A 
ENDROOT
BRANCH   2  10
ATOM     10  C   UNL     1      -2.127  13.292  21.579  0.00  0.00    +0.000 A 
ATOM     11  C   UNL     1      -2.648  12.892  22.818  0.00  0.00    +0.000 A 
ATOM     12  C   UNL     1      -2.205  13.469  24.011  0.00  0.00    +0.000 A 
ATOM     13  C   UNL     1      -1.293  14.517  23.980  0.00  0.00    +0.000 A 
ATOM     14  C   UNL     1      -0.806  14.970  22.757  0.00  0.00    +0.000 A 
ATOM     15  C   UNL     1      -1.203  14.348  21.568  0.00  0.00    +0.000 A 
ENDBRANCH   2  10
BRANCH   3  16
ATOM     16  C   UNL     1      -5.139  13.112  20.423  0.00  0.00    +0.000 A 
ATOM     17  C   UNL     1      -5.475  14.477  20.412  0.00  0.00    +0.000 A 
ATOM     18  C   UNL     1      -6.644  14.950  21.020  0.00  0.00    +0.000 A 
ATOM     19  C   UNL     1      -7.456  14.078  21.737  0.00  0.00    +0.000 A 
ATOM     20  C   UNL     1      -7.130  12.727  21.790  0.00  0.00    +0.000 A 
ATOM     21  C   UNL     1      -6.012  12.244  21.097  0.00  0.00    +0.000 A 
ENDBRANCH   3  16
BRANCH   7  22
ATOM     22  C   UNL     1      -2.877  10.229  14.779  0.00  0.00    +0.000 C 
ATOM     23  N   UNL     1      -2.617   9.699  13.665  0.00  0.00    +0.000 NA
ENDBRANCH   7  22
BRANCH   1  24
ATOM     24  O   UNL     1      -0.359  11.814  19.534  0.00  0.00    +0.000 OA
BRANCH  24  25
ATOM     25  S   UNL     1       0.293  10.851  20.674  0.00  0.00    +0.000 S 
ATOM     26  O   UNL     1      -0.782  10.279  21.465  0.00  0.00    +0.000 OA
ATOM     27  O   UNL     1       1.418  11.530  21.296  0.00  0.00    +0.000 OA
BRANCH  25  31
ATOM     28  C   UNL     1       2.345   7.345  18.605  0.00  0.00    +0.000 A 
ATOM     29  C   UNL     1       1.925   8.456  17.856  0.00  0.00    +0.000 A 
ATOM     30  C   UNL     1       1.269   9.525  18.464  0.00  0.00    +0.000 A 
ATOM     31  C   UNL     1       1.035   9.475  19.837  0.00  0.00    +0.000 A 
ATOM     32  C   UNL     1       1.445   8.378  20.603  0.00  0.00    +0.000 A 
ATOM     33  C   UNL     1       2.096   7.318  19.987  0.00  0.00    +0.000 A 
BRANCH  28  35
ATOM     34  C   UNL     1       4.394   5.865  18.597  0.00  0.00    +0.000 C 
ATOM     35  C   UNL     1       3.056   6.192  17.924  0.00  0.00    +0.000 C 
ATOM     36  C   UNL     1       2.152   4.959  17.869  0.00  0.00    +0.000 C 
ENDBRANCH  28  35
ENDBRANCH  25  31
ENDBRANCH  24  25
ENDBRANCH   1  24
TORSDOF 7
ENDMDL
MODEL 4
REMARK VINA RESULT:      -8.5      0.152      1.147
REMARK  Name = 
REMARK  9 active torsions:
REMARK  status: ('A' for Active; 'I' for Inactive)
REMARK    1  A    between atoms: C_1  and  C_2
REMARK    2  A    between atoms: C_2  and  C_3
REMARK    3  A    between atoms: C_2  and  C_4
REMARK    4  A    between atoms: C_7  and  S_8
REMARK    5  A    between atoms: S_8  and  O_11
REMARK    6  A    between atoms: O_11  and  C_12
REMARK    7  A    between atoms: C_13  and  C_14
REMARK    8  A    between atoms: C_20  and  C_21
REMARK    9  A    between atoms: C_30  and  C_31
REMARK                            x       y       z     vdW  Elec       q    Type
REMARK                         _______ _______ _______ _____ _____    ______ ____
ROOT
ATOM      1  C   UNL     1      -1.778  11.858  19.291  0.00  0.00    +0.000 A 
ATOM      2  C   UNL     1      -2.633  12.526  20.229  0.00  0.00    +0.000 A 
ATOM      3  C   UNL     1      -3.943  12.515  19.705  0.00  0.00    +0.000 A 
ATOM      4  N   UNL     1      -3.863  11.908  18.442  0.00  0.00    +0.000 N 
ATOM      5  C   UNL     1      -4.880  11.680  17.494  0.00  0.00    +0.000 A 
ATOM      6  C   UNL     1      -4.593  11.179  16.281  0.00  0.00    +0.000 A 
ATOM      7  C   UNL     1      -3.223  10.809  15.995  0.00  0.00    +0.000 A 
ATOM      8  C   UNL     1      -2.263  10.948  16.912  0.00  0.00    +0.000 A 
ATOM      9  C   UNL     1      -2.537  11.535  18.186  0.00  0.00    +0.000 A 
ENDROOT
BRANCH   2  10
ATOM     10  C   UNL     1      -2.227  13.143  21.504  0.00  0.00    +0.000 A 
ATOM     11  C   UNL     1      -1.334  14.224  21.545  0.00  0.00    +0.000 A 
ATOM     12  C   UNL     1      -0.996  14.839  22.753  0.00  0.00    +0.000 A 
ATOM     13  C   UNL     1      -1.477  14.328  23.953  0.00  0.00    +0.000 A 
ATOM     14  C   UNL     1      -2.317  13.218  23.940  0.00  0.00    +0.000 A 
ATOM     15  C   UNL     1      -2.707  12.644  22.724  0.00  0.00    +0.000 A 
ENDBRANCH   2  10
BRANCH   3  16
ATOM     16  C   UNL     1      -5.216  13.041  20.282  0.00  0.00    +0.000 A 
ATOM     17  C   UNL     1      -5.608  14.382  20.126  0.00  0.00    +0.000 A 
ATOM     18  C   UNL     1      -6.776  14.879  20.714  0.00  0.00    +0.000 A 
ATOM     19  C   UNL     1      -7.532  14.067  21.552  0.00  0.00    +0.000 A 
ATOM     20  C   UNL     1      -7.151  12.744  21.750  0.00  0.00    +0.000 A 
ATOM     21  C   UNL     1      -6.035  12.225  21.080  0.00  0.00    +0.000 A 
ENDBRANCH   3  16
BRANCH   7  22
ATOM     22  C   UNL     1      -2.894  10.181  14.651  0.00  0.00    +0.000 C 
ATOM     23  N   UNL     1      -2.622   9.660  13.536  0.00  0.00    +0.000 NA
ENDBRANCH   7  22
BRANCH   1  24
ATOM     24  O   UNL     1      -0.447  11.653  19.478  0.00  0.00    +0.000 OA
BRANCH  24  25
ATOM     25  S   UNL     1       0.162  10.702  20.652  0.00  0.00    +0.000 S 
ATOM     26  O   UNL     1      -0.936   9.997  21.291  0.00  0.00    +0.000 OA
ATOM     27  O   UNL     1       1.137  11.453  21.425  0.00  0.00    +0.000 OA
BRANCH  25  31
ATOM     28  C   UNL     1       2.501   7.426  18.512  0.00  0.00    +0.000 A 
ATOM     29  C   UNL     1       2.192   7.294  19.877  0.00  0.00    +0.000 A 
ATOM     30  C   UNL     1       1.504   8.297  20.557  0.00  0.00    +0.000 A 
ATOM     31  C   UNL     1       1.124   9.441  19.859  0.00  0.00    +0.000 A 
ATOM     32  C   UNL     1       1.420   9.593  18.499  0.00  0.00    +0.000 A 
ATOM     33  C   UNL     1       2.107   8.589  17.831  0.00  0.00    +0.000 A 
BRANCH  28  35
ATOM     34  C   UNL     1       4.451   6.863  17.007  0.00  0.00    +0.000 C 
ATOM     35  C   UNL     1       3.250   6.323  17.791  0.00  0.00    +0.000 C 
ATOM     36  C   UNL     1       3.680   5.232  18.775  0.00  0.00    +0.000 C 
ENDBRANCH  28  35
ENDBRANCH  25  31
ENDBRANCH  24  25
ENDBRANCH   1  24
TORSDOF 7
ENDMDL
MODEL 5
REMARK VINA RESULT:      -8.3      0.357      1.046
REMARK  Name = 
REMARK  9 active torsions:
REMARK  status: ('A' for Active; 'I' for Inactive)
REMARK    1  A    between atoms: C_1  and  C_2
REMARK    2  A    between atoms: C_2  and  C_3
REMARK    3  A    between atoms: C_2  and  C_4
REMARK    4  A    between atoms: C_7  and  S_8
REMARK    5  A    between atoms: S_8  and  O_11
REMARK    6  A    between atoms: O_11  and  C_12
REMARK    7  A    between atoms: C_13  and  C_14
REMARK    8  A    between atoms: C_20  and  C_21
REMARK    9  A    between atoms: C_30  and  C_31
REMARK                            x       y       z     vdW  Elec       q    Type
REMARK                         _______ _______ _______ _____ _____    ______ ____
ROOT
ATOM      1  C   UNL     1      -1.855  11.913  19.425  0.00  0.00    +0.000 A 
ATOM      2  C   UNL     1      -2.724  12.587  20.345  0.00  0.00    +0.000 A 
ATOM      3  C   UNL     1      -4.025  12.577  19.799  0.00  0.00    +0.000 A 
ATOM      4  N   UNL     1      -3.925  11.964  18.540  0.00  0.00    +0.000 N 
ATOM      5  C   UNL     1      -4.927  11.735  17.576  0.00  0.00    +0.000 A 
ATOM      6  C   UNL     1      -4.621  11.228  16.371  0.00  0.00    +0.000 A 
ATOM      7  C   UNL     1      -3.247  10.853  16.110  0.00  0.00    +0.000 A 
ATOM      8  C   UNL     1      -2.302  10.993  17.042  0.00  0.00    +0.000 A 
ATOM      9  C   UNL     1      -2.596  11.587  18.308  0.00  0.00    +0.000 A 
ENDROOT
BRANCH   2  10
ATOM     10  C   UNL     1      -2.337  13.209  21.624  0.00  0.00    +0.000 A 
ATOM     11  C   UNL     1      -1.391  14.243  21.681  0.00  0.00    +0.000 A 
ATOM     12  C   UNL     1      -1.069  14.865  22.890  0.00  0.00    +0.000 A 
ATOM     13  C   UNL     1      -1.625  14.405  24.078  0.00  0.00    +0.000 A 
ATOM     14  C   UNL     1      -2.521  13.341  24.052  0.00  0.00    +0.000 A 
ATOM     15  C   UNL     1      -2.892  12.762  22.832  0.00  0.00    +0.000 A 
ENDBRANCH   2  10
BRANCH   3  16
ATOM     16  C   UNL     1      -5.306  13.109  20.352  0.00  0.00    +0.000 A 
ATOM     17  C   UNL     1      -6.208  12.295  21.060  0.00  0.00    +0.000 A 
ATOM     18  C   UNL     1      -7.430  12.790  21.530  0.00  0.00    +0.000 A 
ATOM     19  C   UNL     1      -7.820  14.088  21.218  0.00  0.00    +0.000 A 
ATOM     20  C   UNL     1      -6.961  14.905  20.492  0.00  0.00    +0.000 A 
ATOM     21  C   UNL     1      -5.697  14.436  20.109  0.00  0.00    +0.000 A 
ENDBRANCH   3  16
BRANCH   7  22
ATOM     22  C   UNL     1      -2.898  10.217  14.774  0.00  0.00    +0.000 C 
ATOM     23  N   UNL     1      -2.608   9.691  13.666  0.00  0.00    +0.000 NA
ENDBRANCH   7  22
BRANCH   1  24
ATOM     24  O   UNL     1      -0.527  11.705  19.634  0.00  0.00    +0.000 OA
BRANCH  24  25
ATOM     25  S   UNL     1       0.062  10.821  20.869  0.00  0.00    +0.000 S 
ATOM     26  O   UNL     1      -1.049  10.168  21.540  0.00  0.00    +0.000 OA
ATOM     27  O   UNL     1       1.040  11.606  21.603  0.00  0.00    +0.000 OA
BRANCH  25  31
ATOM     28  C   UNL     1       2.379   7.398  18.947  0.00  0.00    +0.000 A 
ATOM     29  C   UNL     1       2.031   7.336  20.307  0.00  0.00    +0.000 A 
ATOM     30  C   UNL     1       1.349   8.385  20.921  0.00  0.00    +0.000 A 
ATOM     31  C   UNL     1       1.015   9.503  20.161  0.00  0.00    +0.000 A 
ATOM     32  C   UNL     1       1.351   9.586  18.805  0.00  0.00    +0.000 A 
ATOM     33  C   UNL     1       2.032   8.537  18.203  0.00  0.00    +0.000 A 
BRANCH  28  35
ATOM     34  C   UNL     1       2.167   5.157  17.798  0.00  0.00    +0.000 C 
ATOM     35  C   UNL     1       3.122   6.246  18.298  0.00  0.00    +0.000 C 
ATOM     36  C   UNL     1       4.019   6.754  17.167  0.00  0.00    +0.000 C 
ENDBRANCH  28  35
ENDBRANCH  25  31
ENDBRANCH  24  25
ENDBRANCH   1  24
TORSDOF 7
ENDMDL
MODEL 6
REMARK VINA RESULT:      -7.6      3.335      6.624
REMARK  Name = 
REMARK  9 active torsions:
REMARK  status: ('A' for Active; 'I' for Inactive)
REMARK    1  A    between atoms: C_1  and  C_2
REMARK    2  A    between atoms: C_2  and  C_3
REMARK    3  A    between atoms: C_2  and  C_4
REMARK    4  A    between atoms: C_7  and  S_8
REMARK    5  A    between atoms: S_8  and  O_11
REMARK    6  A    between atoms: O_11  and  C_12
REMARK    7  A    between atoms: C_13  and  C_14
REMARK    8  A    between atoms: C_20  and  C_21
REMARK    9  A    between atoms: C_30  and  C_31
REMARK                            x       y       z     vdW  Elec       q    Type
REMARK                         _______ _______ _______ _____ _____    ______ ____
ROOT
ATOM      1  C   UNL     1      -2.416  13.248  21.466  0.00  0.00    +0.000 A 
ATOM      2  C   UNL     1      -1.959  12.667  20.237  0.00  0.00    +0.000 A 
ATOM      3  C   UNL     1      -3.082  12.153  19.556  0.00  0.00    +0.000 A 
ATOM      4  N   UNL     1      -4.189  12.366  20.394  0.00  0.00    +0.000 N 
ATOM      5  C   UNL     1      -5.538  12.011  20.198  0.00  0.00    +0.000 A 
ATOM      6  C   UNL     1      -6.448  12.199  21.167  0.00  0.00    +0.000 A 
ATOM      7  C   UNL     1      -6.026  12.843  22.393  0.00  0.00    +0.000 A 
ATOM      8  C   UNL     1      -4.767  13.254  22.561  0.00  0.00    +0.000 A 
ATOM      9  C   UNL     1      -3.771  13.008  21.566  0.00  0.00    +0.000 A 
ENDROOT
BRANCH   2  10
ATOM     10  C   UNL     1      -0.564  12.587  19.769  0.00  0.00    +0.000 A 
ATOM     11  C   UNL     1      -0.153  13.197  18.575  0.00  0.00    +0.000 A 
ATOM     12  C   UNL     1       1.182  13.162  18.165  0.00  0.00    +0.000 A 
ATOM     13  C   UNL     1       2.117  12.443  18.900  0.00  0.00    +0.000 A 
ATOM     14  C   UNL     1       1.720  11.780  20.058  0.00  0.00    +0.000 A 
ATOM     15  C   UNL     1       0.395  11.870  20.501  0.00  0.00    +0.000 A 
ENDBRANCH   2  10
BRANCH   3  16
ATOM     16  C   UNL     1      -3.178  11.478  18.227  0.00  0.00    +0.000 A 
ATOM     17  C   UNL     1      -4.145  11.842  17.274  0.00  0.00    +0.000 A 
ATOM     18  C   UNL     1      -4.260  11.170  16.052  0.00  0.00    +0.000 A 
ATOM     19  C   UNL     1      -3.472  10.054  15.796  0.00  0.00    +0.000 A 
ATOM     20  C   UNL     1      -2.528   9.652  16.735  0.00  0.00    +0.000 A 
ATOM     21  C   UNL     1      -2.350  10.388  17.914  0.00  0.00    +0.000 A 
ENDBRANCH   3  16
BRANCH   7  22
ATOM     22  C   UNL     1      -7.058  13.122  23.473  0.00  0.00    +0.000 C 
ATOM     23  N   UNL     1      -7.914  13.353  24.369  0.00  0.00    +0.000 NA
ENDBRANCH   7  22
BRANCH   1  24
ATOM     24  O   UNL     1      -1.610  13.867  22.369  0.00  0.00    +0.000 OA
BRANCH  24  25
ATOM     25  S   UNL     1      -1.348  15.475  22.389  0.00  0.00    +0.000 S 
ATOM     26  O   UNL     1      -0.969  15.865  23.735  0.00  0.00    +0.000 OA
ATOM     27  O   UNL     1      -2.421  16.148  21.675  0.00  0.00    +0.000 OA
BRANCH  25  31
ATOM     28  C   UNL     1       2.275  16.170  19.711  0.00  0.00    +0.000 A 
ATOM     29  C   UNL     1       2.421  15.486  20.930  0.00  0.00    +0.000 A 
ATOM     30  C   UNL     1       1.332  15.290  21.777  0.00  0.00    +0.000 A 
ATOM     31  C   UNL     1       0.087  15.784  21.395  0.00  0.00    +0.000 A 
ATOM     32  C   UNL     1      -0.082  16.467  20.185  0.00  0.00    +0.000 A 
ATOM     33  C   UNL     1       1.010  16.659  19.349  0.00  0.00    +0.000 A 
BRANCH  28  35
ATOM     34  C   UNL     1       4.410  15.161  18.810  0.00  0.00    +0.000 C 
ATOM     35  C   UNL     1       3.473  16.373  18.804  0.00  0.00    +0.000 C 
ATOM     36  C   UNL     1       3.018  16.711  17.381  0.00  0.00    +0.000 C 
ENDBRANCH  28  35
ENDBRANCH  25  31
ENDBRANCH  24  25
ENDBRANCH   1  24
TORSDOF 7
ENDMDL
MODEL 7
REMARK VINA RESULT:      -7.5      3.771      8.121
REMARK  Name = 
REMARK  9 active torsions:
REMARK  status: ('A' for Active; 'I' for Inactive)
REMARK    1  A    between atoms: C_1  and  C_2
REMARK    2  A    between atoms: C_2  and  C_3
REMARK    3  A    between atoms: C_2  and  C_4
REMARK    4  A    between atoms: C_7  and  S_8
REMARK    5  A    between atoms: S_8  and  O_11
REMARK    6  A    between atoms: O_11  and  C_12
REMARK    7  A    between atoms: C_13  and  C_14
REMARK    8  A    between atoms: C_20  and  C_21
REMARK    9  A    between atoms: C_30  and  C_31
REMARK                            x       y       z     vdW  Elec       q    Type
REMARK                         _______ _______ _______ _____ _____    ______ ____
ROOT
ATOM      1  C   UNL     1       1.043  13.935  21.356  0.00  0.00    +0.000 A 
ATOM      2  C   UNL     1      -0.094  13.173  20.928  0.00  0.00    +0.000 A 
ATOM      3  C   UNL     1       0.205  12.621  19.664  0.00  0.00    +0.000 A 
ATOM      4  N   UNL     1       1.477  13.099  19.311  0.00  0.00    +0.000 N 
ATOM      5  C   UNL     1       2.221  12.873  18.135  0.00  0.00    +0.000 A 
ATOM      6  C   UNL     1       3.385  13.508  17.924  0.00  0.00    +0.000 A 
ATOM      7  C   UNL     1       3.896  14.376  18.964  0.00  0.00    +0.000 A 
ATOM      8  C   UNL     1       3.239  14.539  20.114  0.00  0.00    +0.000 A 
ATOM      9  C   UNL     1       1.969  13.919  20.334  0.00  0.00    +0.000 A 
ENDROOT
BRANCH   2  10
ATOM     10  C   UNL     1      -1.365  13.009  21.654  0.00  0.00    +0.000 A 
ATOM     11  C   UNL     1      -1.490  12.109  22.723  0.00  0.00    +0.000 A 
ATOM     12  C   UNL     1      -2.684  11.999  23.442  0.00  0.00    +0.000 A 
ATOM     13  C   UNL     1      -3.802  12.725  23.049  0.00  0.00    +0.000 A 
ATOM     14  C   UNL     1      -3.717  13.579  21.953  0.00  0.00    +0.000 A 
ATOM     15  C   UNL     1      -2.503  13.737  21.275  0.00  0.00    +0.000 A 
ENDBRANCH   2  10
BRANCH   3  16
ATOM     16  C   UNL     1      -0.607  11.726  18.787  0.00  0.00    +0.000 A 
ATOM     17  C   UNL     1      -0.262  10.381  18.571  0.00  0.00    +0.000 A 
ATOM     18  C   UNL     1      -1.000   9.564  17.706  0.00  0.00    +0.000 A 
ATOM     19  C   UNL     1      -2.044  10.102  16.963  0.00  0.00    +0.000 A 
ATOM     20  C   UNL     1      -2.387  11.439  17.133  0.00  0.00    +0.000 A 
ATOM     21  C   UNL     1      -1.708  12.227  18.073  0.00  0.00    +0.000 A 
ENDBRANCH   3  16
BRANCH   7  22
ATOM     22  C   UNL     1       5.243  15.051  18.766  0.00  0.00    +0.000 C 
ATOM     23  N   UNL     1       6.361  15.610  18.602  0.00  0.00    +0.000 NA
ENDBRANCH   7  22
BRANCH   1  24
ATOM     24  O   UNL     1       1.126  14.587  22.546  0.00  0.00    +0.000 OA
BRANCH  24  25
ATOM     25  S   UNL     1       0.834  16.181  22.722  0.00  0.00    +0.000 S 
ATOM     26  O   UNL     1       0.800  16.792  21.405  0.00  0.00    +0.000 OA
ATOM     27  O   UNL     1       1.671  16.710  23.787  0.00  0.00    +0.000 OA
BRANCH  25  31
ATOM     28  C   UNL     1      -3.433  16.437  24.305  0.00  0.00    +0.000 A 
ATOM     29  C   UNL     1      -3.055  17.182  23.176  0.00  0.00    +0.000 A 
ATOM     30  C   UNL     1      -1.748  17.142  22.694  0.00  0.00    +0.000 A 
ATOM     31  C   UNL     1      -0.815  16.344  23.353  0.00  0.00    +0.000 A 
ATOM     32  C   UNL     1      -1.169  15.593  24.479  0.00  0.00    +0.000 A 
ATOM     33  C   UNL     1      -2.473  15.642  24.952  0.00  0.00    +0.000 A 
BRANCH  28  35
ATOM     34  C   UNL     1      -5.226  17.888  25.338  0.00  0.00    +0.000 C 
ATOM     35  C   UNL     1      -4.860  16.496  24.814  0.00  0.00    +0.000 C 
ATOM     36  C   UNL     1      -5.838  16.041  23.728  0.00  0.00    +0.000 C 
ENDBRANCH  28  35
ENDBRANCH  25  31
ENDBRANCH  24  25
ENDBRANCH   1  24
TORSDOF 7
ENDMDL
MODEL 8
REMARK VINA RESULT:      -7.5      3.475      6.659
REMARK  Name = 
REMARK  9 active torsions:
REMARK  status: ('A' for Active; 'I' for Inactive)
REMARK    1  A    between atoms: C_1  and  C_2
REMARK    2  A    between atoms: C_2  and  C_3
REMARK    3  A    between atoms: C_2  and  C_4
REMARK    4  A    between atoms: C_7  and  S_8
REMARK    5  A    between atoms: S_8  and  O_11
REMARK    6  A    between atoms: O_11  and  C_12
REMARK    7  A    between atoms: C_13  and  C_14
REMARK    8  A    between atoms: C_20  and  C_21
REMARK    9  A    between atoms: C_30  and  C_31
REMARK                            x       y       z     vdW  Elec       q    Type
REMARK                         _______ _______ _______ _____ _____    ______ ____
ROOT
ATOM      1  C   UNL     1      -2.527  13.524  21.448  0.00  0.00    +0.000 A 
ATOM      2  C   UNL     1      -2.080  12.881  20.247  0.00  0.00    +0.000 A 
ATOM      3  C   UNL     1      -3.195  12.258  19.648  0.00  0.00    +0.000 A 
ATOM      4  N   UNL     1      -4.281  12.468  20.511  0.00  0.00    +0.000 N 
ATOM      5  C   UNL     1      -5.614  12.025  20.394  0.00  0.00    +0.000 A 
ATOM      6  C   UNL     1      -6.499  12.232  21.383  0.00  0.00    +0.000 A 
ATOM      7  C   UNL     1      -6.072  12.986  22.543  0.00  0.00    +0.000 A 
ATOM      8  C   UNL     1      -4.834  13.478  22.631  0.00  0.00    +0.000 A 
ATOM      9  C   UNL     1      -3.861  13.217  21.618  0.00  0.00    +0.000 A 
ENDROOT
BRANCH   2  10
ATOM     10  C   UNL     1      -0.700  12.845  19.731  0.00  0.00    +0.000 A 
ATOM     11  C   UNL     1      -0.301  13.638  18.645  0.00  0.00    +0.000 A 
ATOM     12  C   UNL     1       1.023  13.639  18.196  0.00  0.00    +0.000 A 
ATOM     13  C   UNL     1       1.953  12.781  18.771  0.00  0.00    +0.000 A 
ATOM     14  C   UNL     1       1.564  11.943  19.812  0.00  0.00    +0.000 A 
ATOM     15  C   UNL     1       0.254  11.991  20.303  0.00  0.00    +0.000 A 
ENDBRANCH   2  10
BRANCH   3  16
ATOM     16  C   UNL     1      -3.297  11.483  18.375  0.00  0.00    +0.000 A 
ATOM     17  C   UNL     1      -2.410  10.438  18.064  0.00  0.00    +0.000 A 
ATOM     18  C   UNL     1      -2.481   9.752  16.846  0.00  0.00    +0.000 A 
ATOM     19  C   UNL     1      -3.383  10.161  15.870  0.00  0.00    +0.000 A 
ATOM     20  C   UNL     1      -4.252  11.213  16.139  0.00  0.00    +0.000 A 
ATOM     21  C   UNL     1      -4.242  11.832  17.396  0.00  0.00    +0.000 A 
ENDBRANCH   3  16
BRANCH   7  22
ATOM     22  C   UNL     1      -7.080  13.285  23.640  0.00  0.00    +0.000 C 
ATOM     23  N   UNL     1      -7.916  13.532  24.551  0.00  0.00    +0.000 NA
ENDBRANCH   7  22
BRANCH   1  24
ATOM     24  O   UNL     1      -1.727  14.251  22.273  0.00  0.00    +0.000 OA
BRANCH  24  25
ATOM     25  S   UNL     1      -1.362  15.819  22.021  0.00  0.00    +0.000 S 
ATOM     26  O   UNL     1      -1.292  16.489  23.307  0.00  0.00    +0.000 OA
ATOM     27  O   UNL     1      -2.178  16.336  20.935  0.00  0.00    +0.000 OA
BRANCH  25  31
ATOM     28  C   UNL     1       2.938  16.022  20.520  0.00  0.00    +0.000 A 
ATOM     29  C   UNL     1       1.953  16.842  19.946  0.00  0.00    +0.000 A 
ATOM     30  C   UNL     1       0.626  16.774  20.369  0.00  0.00    +0.000 A 
ATOM     31  C   UNL     1       0.290  15.874  21.378  0.00  0.00    +0.000 A 
ATOM     32  C   UNL     1       1.255  15.048  21.965  0.00  0.00    +0.000 A 
ATOM     33  C   UNL     1       2.573  15.122  21.535  0.00  0.00    +0.000 A 
BRANCH  28  35
ATOM     34  C   UNL     1       4.523  15.681  18.582  0.00  0.00    +0.000 C 
ATOM     35  C   UNL     1       4.375  16.111  20.045  0.00  0.00    +0.000 C 
ATOM     36  C   UNL     1       4.928  17.521  20.264  0.00  0.00    +0.000 C 
ENDBRANCH  28  35
ENDBRANCH  25  31
ENDBRANCH  24  25
ENDBRANCH   1  24
TORSDOF 7
ENDMDL
MODEL 9
REMARK VINA RESULT:      -7.4      0.867      1.702
REMARK  Name = 
REMARK  9 active torsions:
REMARK  status: ('A' for Active; 'I' for Inactive)
REMARK    1  A    between atoms: C_1  and  C_2
REMARK    2  A    between atoms: C_2  and  C_3
REMARK    3  A    between atoms: C_2  and  C_4
REMARK    4  A    between atoms: C_7  and  S_8
REMARK    5  A    between atoms: S_8  and  O_11
REMARK    6  A    between atoms: O_11  and  C_12
REMARK    7  A    between atoms: C_13  and  C_14
REMARK    8  A    between atoms: C_20  and  C_21
REMARK    9  A    between atoms: C_30  and  C_31
REMARK                            x       y       z     vdW  Elec       q    Type
REMARK                         _______ _______ _______ _____ _____    ______ ____
ROOT
ATOM      1  C   UNL     1      -2.443  11.814  20.180  0.00  0.00    +0.000 A 
ATOM      2  C   UNL     1      -3.309  12.690  20.914  0.00  0.00    +0.000 A 
ATOM      3  C   UNL     1      -4.454  12.929  20.125  0.00  0.00    +0.000 A 
ATOM      4  N   UNL     1      -4.248  12.259  18.909  0.00  0.00    +0.000 N 
ATOM      5  C   UNL     1      -5.074  12.204  17.769  0.00  0.00    +0.000 A 
ATOM      6  C   UNL     1      -4.659  11.596  16.646  0.00  0.00    +0.000 A 
ATOM      7  C   UNL     1      -3.372  10.934  16.656  0.00  0.00    +0.000 A 
ATOM      8  C   UNL     1      -2.613  10.912  17.754  0.00  0.00    +0.000 A 
ATOM      9  C   UNL     1      -3.010  11.604  18.940  0.00  0.00    +0.000 A 
ENDROOT
BRANCH   2  10
ATOM     10  C   UNL     1      -3.050  13.270  22.244  0.00  0.00    +0.000 A 
ATOM     11  C   UNL     1      -3.792  12.884  23.370  0.00  0.00    +0.000 A 
ATOM     12  C   UNL     1      -3.504  13.398  24.638  0.00  0.00    +0.000 A 
ATOM     13  C   UNL     1      -2.524  14.372  24.788  0.00  0.00    +0.000 A 
ATOM     14  C   UNL     1      -1.816  14.812  23.673  0.00  0.00    +0.000 A 
ATOM     15  C   UNL     1      -2.061  14.250  22.416  0.00  0.00    +0.000 A 
ENDBRANCH   2  10
BRANCH   3  16
ATOM     16  C   UNL     1      -5.675  13.738  20.419  0.00  0.00    +0.000 A 
ATOM     17  C   UNL     1      -5.770  15.097  20.075  0.00  0.00    +0.000 A 
ATOM     18  C   UNL     1      -6.897  15.860  20.401  0.00  0.00    +0.000 A 
ATOM     19  C   UNL     1      -7.917  15.302  21.164  0.00  0.00    +0.000 A 
ATOM     20  C   UNL     1      -7.835  13.968  21.545  0.00  0.00    +0.000 A 
ATOM     21  C   UNL     1      -6.750  13.182  21.133  0.00  0.00    +0.000 A 
ENDBRANCH   3  16
BRANCH   7  22
ATOM     22  C   UNL     1      -2.917  10.186  15.413  0.00  0.00    +0.000 C 
ATOM     23  N   UNL     1      -2.540   9.567  14.382  0.00  0.00    +0.000 NA
ENDBRANCH   7  22
BRANCH   1  24
ATOM     24  O   UNL     1      -1.254  11.344  20.643  0.00  0.00    +0.000 OA
BRANCH  24  25
ATOM     25  S   UNL     1       0.184  11.713  19.972  0.00  0.00    +0.000 S 
ATOM     26  O   UNL     1       1.049  12.257  21.004  0.00  0.00    +0.000 OA
ATOM     27  O   UNL     1      -0.034  12.410  18.715  0.00  0.00    +0.000 OA
BRANCH  25  31
ATOM     28  C   UNL     1       2.265   7.820  18.836  0.00  0.00    +0.000 A 
ATOM     29  C   UNL     1       2.100   8.835  17.879  0.00  0.00    +0.000 A 
ATOM     30  C   UNL     1       1.440  10.021  18.197  0.00  0.00    +0.000 A 
ATOM     31  C   UNL     1       0.943  10.186  19.488  0.00  0.00    +0.000 A 
ATOM     32  C   UNL     1       1.096   9.188  20.458  0.00  0.00    +0.000 A 
ATOM     33  C   UNL     1       1.754   8.010  20.130  0.00  0.00    +0.000 A 
BRANCH  28  35
ATOM     34  C   UNL     1       2.025   5.477  17.919  0.00  0.00    +0.000 C 
ATOM     35  C   UNL     1       2.985   6.537  18.469  0.00  0.00    +0.000 C 
ATOM     36  C   UNL     1       4.118   6.821  17.479  0.00  0.00    +0.000 C 
ENDBRANCH  28  35
ENDBRANCH  25  31
ENDBRANCH  24  25
ENDBRANCH   1  24
TORSDOF 7
ENDMDL
