MODEL 1
REMARK VINA RESULT:      -8.3      0.000      0.000
REMARK  Name = 
REMARK  9 active torsions:
REMARK  status: ('A' for Active; 'I' for Inactive)
REMARK    1  A    between atoms: C_1  and  C_2
REMARK    2  A    between atoms: C_2  and  C_3
REMARK    3  A    between atoms: C_3  and  N_4
REMARK    4  A    between atoms: C_5  and  C_7
REMARK    5  A    between atoms: C_11  and  C_13
REMARK    6  A    between atoms: N_20  and  C_21
REMARK    7  A    between atoms: C_21  and  C_22
REMARK    8  A    between atoms: C_25  and  O_26
REMARK    9  A    between atoms: O_26  and  C_27
REMARK                            x       y       z     vdW  Elec       q    Type
REMARK                         _______ _______ _______ _____ _____    ______ ____
ROOT
ATOM      1  C   UNL     1       1.374   8.904  19.621  0.00  0.00    +0.000 A 
ATOM      2  C   UNL     1       1.281   8.306  20.874  0.00  0.00    +0.000 A 
ATOM      3  C   UNL     1       0.560   9.186  21.707  0.00  0.00    +0.000 A 
ATOM      4  S   UNL     1       0.091   9.306  23.365  0.00  0.00    +0.000 S 
ATOM      5  C   UNL     1      -0.785  10.736  22.997  0.00  0.00    +0.000 A 
ATOM      6  C   UNL     1      -0.723  11.118  21.671  0.00  0.00    +0.000 A 
ATOM      7  C   UNL     1       0.106  10.215  20.944  0.00  0.00    +0.000 A 
ATOM      8  N   UNL     1       0.581  10.049  19.651  0.00  0.00    +0.000 N 
ENDROOT
BRANCH   1  13
ATOM      9  C   UNL     1       3.414   4.298  18.608  0.00  0.00    +0.000 C 
ATOM     10  C   UNL     1       3.205   5.069  17.293  0.00  0.00    +0.000 C 
ATOM     11  C   UNL     1       3.432   6.580  17.425  0.00  0.00    +0.000 C 
ATOM     12  N   UNL     1       2.724   7.132  18.577  0.00  0.00    +0.000 N 
ATOM     13  C   UNL     1       2.105   8.389  18.463  0.00  0.00    +0.000 C 
ATOM     14  O   UNL     1       2.150   9.019  17.406  0.00  0.00    +0.000 OA
ATOM     15  C   UNL     1       3.074   6.477  19.838  0.00  0.00    +0.000 C 
ATOM     16  C   UNL     1       2.708   4.996  19.775  0.00  0.00    +0.000 C 
BRANCH   9  18
ATOM     17  N   UNL     1       5.740   4.830  18.127  0.00  0.00    +0.000 N 
ATOM     18  C   UNL     1       4.891   4.099  18.923  0.00  0.00    +0.000 C 
ATOM     19  O   UNL     1       5.294   3.345  19.804  0.00  0.00    +0.000 OA
ATOM     20  H   UNL     1       5.379   5.343  17.334  0.00  0.00    +0.000 HD
BRANCH  17  21
ATOM     21  C   UNL     1       7.168   4.791  18.342  0.00  0.00    +0.000 C 
BRANCH  21  23
ATOM     22  C   UNL     1       7.363   7.137  17.518  0.00  0.00    +0.000 C 
ATOM     23  C   UNL     1       7.743   6.172  18.627  0.00  0.00    +0.000 C 
ENDBRANCH  21  23
ENDBRANCH  17  21
ENDBRANCH   9  18
ENDBRANCH   1  13
BRANCH   8  24
ATOM     24  C   UNL     1       0.169  10.913  18.549  0.00  0.00    +0.000 C 
BRANCH  24  25
ATOM     25  C   UNL     1      -1.312  10.871  18.244  0.00  0.00    +0.000 A 
ATOM     26  C   UNL     1      -2.161  11.885  18.704  0.00  0.00    +0.000 A 
ATOM     27  C   UNL     1      -3.509  11.914  18.323  0.00  0.00    +0.000 A 
ATOM     28  C   UNL     1      -4.032  10.939  17.473  0.00  0.00    +0.000 A 
ATOM     29  C   UNL     1      -3.213   9.889  17.064  0.00  0.00    +0.000 A 
ATOM     30  C   UNL     1      -1.862   9.862  17.439  0.00  0.00    +0.000 A 
BRANCH  28  31
ATOM     31  O   UNL     1      -5.349  11.084  17.136  0.00  0.00    +0.000 OA
ATOM     32  C   UNL     1      -6.274  10.992  18.218  0.00  0.00    +0.000 C 
ENDBRANCH  28  31
ENDBRANCH  24  25
ENDBRANCH   8  24
TORSDOF 7
ENDMDL
MODEL 2
REMARK VINA RESULT:      -8.0      3.500      6.137
REMARK  Name = 
REMARK  9 active torsions:
REMARK  status: ('A' for Active; 'I' for Inactive)
REMARK    1  A    between atoms: C_1  and  C_2
REMARK    2  A    between atoms: C_2  and  C_3
REMARK    3  A    between atoms: C_3  and  N_4
REMARK    4  A    between atoms: C_5  and  C_7
REMARK    5  A    between atoms: C_11  and  C_13
REMARK    6  A    between atoms: N_20  and  C_21
REMARK    7  A    between atoms: C_21  and  C_22
REMARK    8  A    between atoms: C_25  and  O_26
REMARK    9  A    between atoms: O_26  and  C_27
REMARK                            x       y       z     vdW  Elec       q    Type
REMARK                         _______ _______ _______ _____ _____    ______ ____
ROOT
ATOM      1  C   UNL     1       4.603   4.307  19.467  0.00  0.00    +0.000 A 
ATOM      2  C   UNL     1       4.433   3.200  20.292  0.00  0.00    +0.000 A 
ATOM      3  C   UNL     1       3.055   3.094  20.574  0.00  0.00    +0.000 A 
ATOM      4  S   UNL     1       2.005   2.135  21.555  0.00  0.00    +0.000 S 
ATOM      5  C   UNL     1       0.656   2.962  20.890  0.00  0.00    +0.000 A 
ATOM      6  C   UNL     1       0.981   3.933  19.964  0.00  0.00    +0.000 A 
ATOM      7  C   UNL     1       2.398   4.019  19.828  0.00  0.00    +0.000 A 
ATOM      8  N   UNL     1       3.333   4.764  19.124  0.00  0.00    +0.000 N 
ENDROOT
BRANCH   1  13
ATOM      9  C   UNL     1       6.148   5.849  14.815  0.00  0.00    +0.000 C 
ATOM     10  C   UNL     1       7.057   6.468  15.892  0.00  0.00    +0.000 C 
ATOM     11  C   UNL     1       7.301   5.546  17.092  0.00  0.00    +0.000 C 
ATOM     12  N   UNL     1       6.055   4.979  17.598  0.00  0.00    +0.000 N 
ATOM     13  C   UNL     1       5.875   4.848  18.986  0.00  0.00    +0.000 C 
ATOM     14  O   UNL     1       6.751   5.211  19.770  0.00  0.00    +0.000 OA
ATOM     15  C   UNL     1       5.294   4.255  16.578  0.00  0.00    +0.000 C 
ATOM     16  C   UNL     1       4.910   5.203  15.444  0.00  0.00    +0.000 C 
BRANCH   9  18
ATOM     17  N   UNL     1       6.073   3.988  13.248  0.00  0.00    +0.000 N 
ATOM     18  C   UNL     1       6.893   4.839  13.951  0.00  0.00    +0.000 C 
ATOM     19  O   UNL     1       8.117   4.780  13.891  0.00  0.00    +0.000 OA
ATOM     20  H   UNL     1       5.076   3.986  13.418  0.00  0.00    +0.000 HD
BRANCH  17  21
ATOM     21  C   UNL     1       6.630   3.012  12.341  0.00  0.00    +0.000 C 
BRANCH  21  23
ATOM     22  C   UNL     1       4.335   3.181  11.378  0.00  0.00    +0.000 C 
ATOM     23  C   UNL     1       5.552   2.287  11.546  0.00  0.00    +0.000 C 
ENDBRANCH  21  23
ENDBRANCH  17  21
ENDBRANCH   9  18
ENDBRANCH   1  13
BRANCH   8  24
ATOM     24  C   UNL     1       2.950   5.758  18.125  0.00  0.00    +0.000 C 
BRANCH  24  25
ATOM     25  C   UNL     1       2.398   7.042  18.703  0.00  0.00    +0.000 A 
ATOM     26  C   UNL     1       2.097   8.126  17.869  0.00  0.00    +0.000 A 
ATOM     27  C   UNL     1       1.475   9.271  18.383  0.00  0.00    +0.000 A 
ATOM     28  C   UNL     1       1.135   9.353  19.733  0.00  0.00    +0.000 A 
ATOM     29  C   UNL     1       1.489   8.309  20.584  0.00  0.00    +0.000 A 
ATOM     30  C   UNL     1       2.106   7.160  20.071  0.00  0.00    +0.000 A 
BRANCH  28  31
ATOM     31  O   UNL     1       0.497  10.499  20.120  0.00  0.00    +0.000 OA
ATOM     32  C   UNL     1       0.727  10.905  21.468  0.00  0.00    +0.000 C 
ENDBRANCH  28  31
ENDBRANCH  24  25
ENDBRANCH   8  24
TORSDOF 7
ENDMDL
MODEL 3
REMARK VINA RESULT:      -7.9      2.304      3.518
REMARK  Name = 
REMARK  9 active torsions:
REMARK  status: ('A' for Active; 'I' for Inactive)
REMARK    1  A    between atoms: C_1  and  C_2
REMARK    2  A    between atoms: C_2  and  C_3
REMARK    3  A    between atoms: C_3  and  N_4
REMARK    4  A    between atoms: C_5  and  C_7
REMARK    5  A    between atoms: C_11  and  C_13
REMARK    6  A    between atoms: N_20  and  C_21
REMARK    7  A    between atoms: C_21  and  C_22
REMARK    8  A    between atoms: C_25  and  O_26
REMARK    9  A    between atoms: O_26  and  C_27
REMARK                            x       y       z     vdW  Elec       q    Type
REMARK                         _______ _______ _______ _____ _____    ______ ____
ROOT
ATOM      1  C   UNL     1       1.355   8.933  19.585  0.00  0.00    +0.000 A 
ATOM      2  C   UNL     1       1.252   8.329  20.835  0.00  0.00    +0.000 A 
ATOM      3  C   UNL     1       0.525   9.206  21.666  0.00  0.00    +0.000 A 
ATOM      4  S   UNL     1       0.043   9.318  23.322  0.00  0.00    +0.000 S 
ATOM      5  C   UNL     1      -0.827  10.752  22.954  0.00  0.00    +0.000 A 
ATOM      6  C   UNL     1      -0.754  11.140  21.631  0.00  0.00    +0.000 A 
ATOM      7  C   UNL     1       0.079  10.239  20.905  0.00  0.00    +0.000 A 
ATOM      8  N   UNL     1       0.564  10.079  19.616  0.00  0.00    +0.000 N 
ENDROOT
BRANCH   1  13
ATOM      9  C   UNL     1       3.450   4.348  18.591  0.00  0.00    +0.000 C 
ATOM     10  C   UNL     1       3.234   5.113  17.273  0.00  0.00    +0.000 C 
ATOM     11  C   UNL     1       3.443   6.627  17.401  0.00  0.00    +0.000 C 
ATOM     12  N   UNL     1       2.727   7.174  18.549  0.00  0.00    +0.000 N 
ATOM     13  C   UNL     1       2.094   8.423  18.430  0.00  0.00    +0.000 C 
ATOM     14  O   UNL     1       2.134   9.050  17.371  0.00  0.00    +0.000 OA
ATOM     15  C   UNL     1       3.082   6.527  19.814  0.00  0.00    +0.000 C 
ATOM     16  C   UNL     1       2.734   5.042  19.755  0.00  0.00    +0.000 C 
BRANCH   9  18
ATOM     17  N   UNL     1       5.776   4.766  18.009  0.00  0.00    +0.000 N 
ATOM     18  C   UNL     1       4.929   4.166  18.910  0.00  0.00    +0.000 C 
ATOM     19  O   UNL     1       5.333   3.534  19.881  0.00  0.00    +0.000 OA
ATOM     20  H   UNL     1       5.410   5.171  17.157  0.00  0.00    +0.000 HD
BRANCH  17  21
ATOM     21  C   UNL     1       7.206   4.730  18.206  0.00  0.00    +0.000 C 
BRANCH  21  23
ATOM     22  C   UNL     1       7.485   7.152  17.679  0.00  0.00    +0.000 C 
ATOM     23  C   UNL     1       7.750   6.063  18.704  0.00  0.00    +0.000 C 
ENDBRANCH  21  23
ENDBRANCH  17  21
ENDBRANCH   9  18
ENDBRANCH   1  13
BRANCH   8  24
ATOM     24  C   UNL     1       0.162  10.949  18.515  0.00  0.00    +0.000 C 
BRANCH  24  25
ATOM     25  C   UNL     1       0.851  12.296  18.501  0.00  0.00    +0.000 A 
ATOM     26  C   UNL     1       0.120  13.471  18.718  0.00  0.00    +0.000 A 
ATOM     27  C   UNL     1       0.771  14.707  18.825  0.00  0.00    +0.000 A 
ATOM     28  C   UNL     1       2.160  14.793  18.726  0.00  0.00    +0.000 A 
ATOM     29  C   UNL     1       2.890  13.641  18.445  0.00  0.00    +0.000 A 
ATOM     30  C   UNL     1       2.241  12.402  18.343  0.00  0.00    +0.000 A 
BRANCH  28  31
ATOM     31  O   UNL     1       2.694  16.042  18.883  0.00  0.00    +0.000 OA
ATOM     32  C   UNL     1       2.919  16.770  17.678  0.00  0.00    +0.000 C 
ENDBRANCH  28  31
ENDBRANCH  24  25
ENDBRANCH   8  24
TORSDOF 7
ENDMDL
MODEL 4
REMARK VINA RESULT:      -7.9      4.455      8.301
REMARK  Name = 
REMARK  9 active torsions:
REMARK  status: ('A' for Active; 'I' for Inactive)
REMARK    1  A    between atoms: C_1  and  C_2
REMARK    2  A    between atoms: C_2  and  C_3
REMARK    3  A    between atoms: C_3  and  N_4
REMARK    4  A    between atoms: C_5  and  C_7
REMARK    5  A    between atoms: C_11  and  C_13
REMARK    6  A    between atoms: N_20  and  C_21
REMARK    7  A    between atoms: C_21  and  C_22
REMARK    8  A    between atoms: C_25  and  O_26
REMARK    9  A    between atoms: O_26  and  C_27
REMARK                            x       y       z     vdW  Elec       q    Type
REMARK                         _______ _______ _______ _____ _____    ______ ____
ROOT
ATOM      1  C   UNL     1      -0.194  11.983  19.696  0.00  0.00    +0.000 A 
ATOM      2  C   UNL     1      -1.571  12.076  19.873  0.00  0.00    +0.000 A 
ATOM      3  C   UNL     1      -2.180  11.372  18.814  0.00  0.00    +0.000 A 
ATOM      4  S   UNL     1      -3.768  11.072  18.203  0.00  0.00    +0.000 S 
ATOM      5  C   UNL     1      -3.094  10.040  17.007  0.00  0.00    +0.000 A 
ATOM      6  C   UNL     1      -1.719   9.928  17.059  0.00  0.00    +0.000 A 
ATOM      7  C   UNL     1      -1.203  10.752  18.102  0.00  0.00    +0.000 A 
ATOM      8  N   UNL     1       0.026  11.100  18.641  0.00  0.00    +0.000 N 
ENDROOT
BRANCH   1  13
ATOM      9  C   UNL     1       1.770  16.730  19.626  0.00  0.00    +0.000 C 
ATOM     10  C   UNL     1       2.041  16.081  20.995  0.00  0.00    +0.000 C 
ATOM     11  C   UNL     1       2.307  14.572  20.916  0.00  0.00    +0.000 C 
ATOM     12  N   UNL     1       1.305  13.890  20.103  0.00  0.00    +0.000 N 
ATOM     13  C   UNL     1       0.835  12.630  20.511  0.00  0.00    +0.000 C 
ATOM     14  O   UNL     1       1.254  12.105  21.542  0.00  0.00    +0.000 OA
ATOM     15  C   UNL     1       1.192  14.434  18.749  0.00  0.00    +0.000 C 
ATOM     16  C   UNL     1       0.774  15.901  18.809  0.00  0.00    +0.000 C 
BRANCH   9  18
ATOM     17  N   UNL     1       4.204  16.752  19.562  0.00  0.00    +0.000 N 
ATOM     18  C   UNL     1       3.054  16.949  18.835  0.00  0.00    +0.000 C 
ATOM     19  O   UNL     1       3.066  17.280  17.653  0.00  0.00    +0.000 OA
ATOM     20  H   UNL     1       4.155  16.601  20.562  0.00  0.00    +0.000 HD
BRANCH  17  21
ATOM     21  C   UNL     1       5.500  16.866  18.936  0.00  0.00    +0.000 C 
BRANCH  21  23
ATOM     22  C   UNL     1       7.280  15.345  18.076  0.00  0.00    +0.000 C 
ATOM     23  C   UNL     1       6.404  15.687  19.270  0.00  0.00    +0.000 C 
ENDBRANCH  21  23
ENDBRANCH  17  21
ENDBRANCH   9  18
ENDBRANCH   1  13
BRANCH   8  24
ATOM     24  C   UNL     1       1.278  10.500  18.190  0.00  0.00    +0.000 C 
BRANCH  24  25
ATOM     25  C   UNL     1       1.544   9.119  18.748  0.00  0.00    +0.000 A 
ATOM     26  C   UNL     1       2.154   8.137  17.957  0.00  0.00    +0.000 A 
ATOM     27  C   UNL     1       2.511   6.899  18.506  0.00  0.00    +0.000 A 
ATOM     28  C   UNL     1       2.274   6.620  19.853  0.00  0.00    +0.000 A 
ATOM     29  C   UNL     1       1.608   7.564  20.631  0.00  0.00    +0.000 A 
ATOM     30  C   UNL     1       1.256   8.806  20.086  0.00  0.00    +0.000 A 
BRANCH  28  31
ATOM     31  O   UNL     1       2.696   5.396  20.293  0.00  0.00    +0.000 OA
ATOM     32  C   UNL     1       2.781   4.381  19.295  0.00  0.00    +0.000 C 
ENDBRANCH  28  31
ENDBRANCH  24  25
ENDBRANCH   8  24
TORSDOF 7
ENDMDL
MODEL 5
REMARK VINA RESULT:      -7.7      4.649      8.270
REMARK  Name = 
REMARK  9 active torsions:
REMARK  status: ('A' for Active; 'I' for Inactive)
REMARK    1  A    between atoms: C_1  and  C_2
REMARK    2  A    between atoms: C_2  and  C_3
REMARK    3  A    between atoms: C_3  and  N_4
REMARK    4  A    between atoms: C_5  and  C_7
REMARK    5  A    between atoms: C_11  and  C_13
REMARK    6  A    between atoms: N_20  and  C_21
REMARK    7  A    between atoms: C_21  and  C_22
REMARK    8  A    between atoms: C_25  and  O_26
REMARK    9  A    between atoms: O_26  and  C_27
REMARK                            x       y       z     vdW  Elec       q    Type
REMARK                         _______ _______ _______ _____ _____    ______ ____
ROOT
ATOM      1  C   UNL     1      -0.038  11.754  19.627  0.00  0.00    +0.000 A 
ATOM      2  C   UNL     1      -1.410  11.848  19.840  0.00  0.00    +0.000 A 
ATOM      3  C   UNL     1      -2.047  11.180  18.774  0.00  0.00    +0.000 A 
ATOM      4  S   UNL     1      -3.651  10.907  18.193  0.00  0.00    +0.000 S 
ATOM      5  C   UNL     1      -3.012   9.910  16.950  0.00  0.00    +0.000 A 
ATOM      6  C   UNL     1      -1.637   9.790  16.964  0.00  0.00    +0.000 A 
ATOM      7  C   UNL     1      -1.092  10.578  18.020  0.00  0.00    +0.000 A 
ATOM      8  N   UNL     1       0.152  10.904  18.540  0.00  0.00    +0.000 N 
ENDROOT
BRANCH   1  13
ATOM      9  C   UNL     1       2.030  16.458  19.580  0.00  0.00    +0.000 C 
ATOM     10  C   UNL     1       2.300  15.789  20.940  0.00  0.00    +0.000 C 
ATOM     11  C   UNL     1       2.533  14.276  20.844  0.00  0.00    +0.000 C 
ATOM     12  N   UNL     1       1.507  13.624  20.036  0.00  0.00    +0.000 N 
ATOM     13  C   UNL     1       1.014  12.370  20.436  0.00  0.00    +0.000 C 
ATOM     14  O   UNL     1       1.433  11.827  21.458  0.00  0.00    +0.000 OA
ATOM     15  C   UNL     1       1.391  14.183  18.687  0.00  0.00    +0.000 C 
ATOM     16  C   UNL     1       1.007  15.658  18.767  0.00  0.00    +0.000 C 
BRANCH   9  18
ATOM     17  N   UNL     1       4.429  16.867  19.546  0.00  0.00    +0.000 N 
ATOM     18  C   UNL     1       3.309  16.656  18.777  0.00  0.00    +0.000 C 
ATOM     19  O   UNL     1       3.341  16.638  17.550  0.00  0.00    +0.000 OA
ATOM     20  H   UNL     1       4.343  16.998  20.545  0.00  0.00    +0.000 HD
BRANCH  17  21
ATOM     21  C   UNL     1       5.727  17.015  18.931  0.00  0.00    +0.000 C 
BRANCH  21  23
ATOM     22  C   UNL     1       8.150  17.467  19.314  0.00  0.00    +0.000 C 
ATOM     23  C   UNL     1       6.751  17.612  19.888  0.00  0.00    +0.000 C 
ENDBRANCH  21  23
ENDBRANCH  17  21
ENDBRANCH   9  18
ENDBRANCH   1  13
BRANCH   8  24
ATOM     24  C   UNL     1       1.389  10.312  18.040  0.00  0.00    +0.000 C 
BRANCH  24  25
ATOM     25  C   UNL     1       1.758   8.997  18.688  0.00  0.00    +0.000 A 
ATOM     26  C   UNL     1       1.362   8.716  20.002  0.00  0.00    +0.000 A 
ATOM     27  C   UNL     1       1.597   7.454  20.564  0.00  0.00    +0.000 A 
ATOM     28  C   UNL     1       2.223   6.449  19.826  0.00  0.00    +0.000 A 
ATOM     29  C   UNL     1       2.680   6.738  18.542  0.00  0.00    +0.000 A 
ATOM     30  C   UNL     1       2.440   7.998  17.976  0.00  0.00    +0.000 A 
BRANCH  28  31
ATOM     31  O   UNL     1       2.368   5.245  20.458  0.00  0.00    +0.000 OA
ATOM     32  C   UNL     1       1.192   4.442  20.528  0.00  0.00    +0.000 C 
ENDBRANCH  28  31
ENDBRANCH  24  25
ENDBRANCH   8  24
TORSDOF 7
ENDMDL
MODEL 6
REMARK VINA RESULT:      -7.7      4.240      8.578
REMARK  Name = 
REMARK  9 active torsions:
REMARK  status: ('A' for Active; 'I' for Inactive)
REMARK    1  A    between atoms: C_1  and  C_2
REMARK    2  A    between atoms: C_2  and  C_3
REMARK    3  A    between atoms: C_3  and  N_4
REMARK    4  A    between atoms: C_5  and  C_7
REMARK    5  A    between atoms: C_11  and  C_13
REMARK    6  A    between atoms: N_20  and  C_21
REMARK    7  A    between atoms: C_21  and  C_22
REMARK    8  A    between atoms: C_25  and  O_26
REMARK    9  A    between atoms: O_26  and  C_27
REMARK                            x       y       z     vdW  Elec       q    Type
REMARK                         _______ _______ _______ _____ _____    ______ ____
ROOT
ATOM      1  C   UNL     1      -0.971  12.167  19.862  0.00  0.00    +0.000 A 
ATOM      2  C   UNL     1      -2.358  12.051  19.837  0.00  0.00    +0.000 A 
ATOM      3  C   UNL     1      -2.696  11.305  18.689  0.00  0.00    +0.000 A 
ATOM      4  S   UNL     1      -4.117  10.798  17.847  0.00  0.00    +0.000 S 
ATOM      5  C   UNL     1      -3.133   9.921  16.748  0.00  0.00    +0.000 A 
ATOM      6  C   UNL     1      -1.778  10.009  16.999  0.00  0.00    +0.000 A 
ATOM      7  C   UNL     1      -1.546  10.860  18.118  0.00  0.00    +0.000 A 
ATOM      8  N   UNL     1      -0.473  11.365  18.838  0.00  0.00    +0.000 N 
ENDROOT
BRANCH   1  13
ATOM      9  C   UNL     1       0.598  17.059  19.937  0.00  0.00    +0.000 C 
ATOM     10  C   UNL     1       0.639  16.483  21.363  0.00  0.00    +0.000 C 
ATOM     11  C   UNL     1       1.031  15.001  21.415  0.00  0.00    +0.000 C 
ATOM     12  N   UNL     1       0.266  14.208  20.457  0.00  0.00    +0.000 N 
ATOM     13  C   UNL     1      -0.179  12.927  20.828  0.00  0.00    +0.000 C 
ATOM     14  O   UNL     1       0.066  12.476  21.948  0.00  0.00    +0.000 OA
ATOM     15  C   UNL     1       0.384  14.692  19.081  0.00  0.00    +0.000 C 
ATOM     16  C   UNL     1      -0.148  16.120  18.983  0.00  0.00    +0.000 C 
BRANCH   9  18
ATOM     17  N   UNL     1       2.377  16.557  18.352  0.00  0.00    +0.000 N 
ATOM     18  C   UNL     1       1.993  17.358  19.402  0.00  0.00    +0.000 C 
ATOM     19  O   UNL     1       2.719  18.230  19.870  0.00  0.00    +0.000 OA
ATOM     20  H   UNL     1       1.804  15.771  18.075  0.00  0.00    +0.000 HD
BRANCH  17  21
ATOM     21  C   UNL     1       3.650  16.757  17.701  0.00  0.00    +0.000 C 
BRANCH  21  23
ATOM     22  C   UNL     1       3.845  14.434  18.588  0.00  0.00    +0.000 C 
ATOM     23  C   UNL     1       4.545  15.528  17.802  0.00  0.00    +0.000 C 
ENDBRANCH  21  23
ENDBRANCH  17  21
ENDBRANCH   9  18
ENDBRANCH   1  13
BRANCH   8  24
ATOM     24  C   UNL     1       0.906  10.971  18.566  0.00  0.00    +0.000 C 
BRANCH  24  25
ATOM     25  C   UNL     1       1.249   9.563  18.998  0.00  0.00    +0.000 A 
ATOM     26  C   UNL     1       1.898   8.687  18.119  0.00  0.00    +0.000 A 
ATOM     27  C   UNL     1       2.324   7.425  18.554  0.00  0.00    +0.000 A 
ATOM     28  C   UNL     1       2.118   7.017  19.872  0.00  0.00    +0.000 A 
ATOM     29  C   UNL     1       1.415   7.853  20.736  0.00  0.00    +0.000 A 
ATOM     30  C   UNL     1       0.993   9.118  20.305  0.00  0.00    +0.000 A 
BRANCH  28  31
ATOM     31  O   UNL     1       2.607   5.782  20.198  0.00  0.00    +0.000 OA
ATOM     32  C   UNL     1       3.791   5.388  19.508  0.00  0.00    +0.000 C 
ENDBRANCH  28  31
ENDBRANCH  24  25
ENDBRANCH   8  24
TORSDOF 7
ENDMDL
MODEL 7
REMARK VINA RESULT:      -7.6      3.535      6.152
REMARK  Name = 
REMARK  9 active torsions:
REMARK  status: ('A' for Active; 'I' for Inactive)
REMARK    1  A    between atoms: C_1  and  C_2
REMARK    2  A    between atoms: C_2  and  C_3
REMARK    3  A    between atoms: C_3  and  N_4
REMARK    4  A    between atoms: C_5  and  C_7
REMARK    5  A    between atoms: C_11  and  C_13
REMARK    6  A    between atoms: N_20  and  C_21
REMARK    7  A    between atoms: C_21  and  C_22
REMARK    8  A    between atoms: C_25  and  O_26
REMARK    9  A    between atoms: O_26  and  C_27
REMARK                            x       y       z     vdW  Elec       q    Type
REMARK                         _______ _______ _______ _____ _____    ______ ____
ROOT
ATOM      1  C   UNL     1       4.597   4.327  19.466  0.00  0.00    +0.000 A 
ATOM      2  C   UNL     1       4.452   3.199  20.268  0.00  0.00    +0.000 A 
ATOM      3  C   UNL     1       3.079   3.065  20.560  0.00  0.00    +0.000 A 
ATOM      4  S   UNL     1       2.053   2.068  21.529  0.00  0.00    +0.000 S 
ATOM      5  C   UNL     1       0.685   2.888  20.894  0.00  0.00    +0.000 A 
ATOM      6  C   UNL     1       0.986   3.884  19.987  0.00  0.00    +0.000 A 
ATOM      7  C   UNL     1       2.400   3.996  19.840  0.00  0.00    +0.000 A 
ATOM      8  N   UNL     1       3.316   4.771  19.145  0.00  0.00    +0.000 N 
ENDROOT
BRANCH   1  13
ATOM      9  C   UNL     1       6.132   5.843  14.803  0.00  0.00    +0.000 C 
ATOM     10  C   UNL     1       7.013   6.506  15.876  0.00  0.00    +0.000 C 
ATOM     11  C   UNL     1       7.275   5.610  17.093  0.00  0.00    +0.000 C 
ATOM     12  N   UNL     1       6.042   5.014  17.598  0.00  0.00    +0.000 N 
ATOM     13  C   UNL     1       5.855   4.899  18.987  0.00  0.00    +0.000 C 
ATOM     14  O   UNL     1       6.714   5.301  19.772  0.00  0.00    +0.000 OA
ATOM     15  C   UNL     1       5.312   4.251  16.584  0.00  0.00    +0.000 C 
ATOM     16  C   UNL     1       4.908   5.169  15.433  0.00  0.00    +0.000 C 
BRANCH   9  18
ATOM     17  N   UNL     1       6.132   4.079  13.125  0.00  0.00    +0.000 N 
ATOM     18  C   UNL     1       6.913   4.843  13.960  0.00  0.00    +0.000 C 
ATOM     19  O   UNL     1       8.132   4.719  14.024  0.00  0.00    +0.000 OA
ATOM     20  H   UNL     1       5.124   4.123  13.190  0.00  0.00    +0.000 HD
BRANCH  17  21
ATOM     21  C   UNL     1       6.734   3.125  12.223  0.00  0.00    +0.000 C 
BRANCH  21  23
ATOM     22  C   UNL     1       6.373   0.958  11.043  0.00  0.00    +0.000 C 
ATOM     23  C   UNL     1       5.699   2.205  11.588  0.00  0.00    +0.000 C 
ENDBRANCH  21  23
ENDBRANCH  17  21
ENDBRANCH   9  18
ENDBRANCH   1  13
BRANCH   8  24
ATOM     24  C   UNL     1       2.909   5.781  18.172  0.00  0.00    +0.000 C 
BRANCH  24  25
ATOM     25  C   UNL     1       2.264   7.007  18.779  0.00  0.00    +0.000 A 
ATOM     26  C   UNL     1       2.028   7.078  20.158  0.00  0.00    +0.000 A 
ATOM     27  C   UNL     1       1.543   8.257  20.739  0.00  0.00    +0.000 A 
ATOM     28  C   UNL     1       1.293   9.386  19.959  0.00  0.00    +0.000 A 
ATOM     29  C   UNL     1       1.461   9.306  18.579  0.00  0.00    +0.000 A 
ATOM     30  C   UNL     1       1.952   8.130  17.996  0.00  0.00    +0.000 A 
BRANCH  28  31
ATOM     31  O   UNL     1       0.857  10.493  20.634  0.00  0.00    +0.000 OA
ATOM     32  C   UNL     1      -0.514  10.833  20.438  0.00  0.00    +0.000 C 
ENDBRANCH  28  31
ENDBRANCH  24  25
ENDBRANCH   8  24
TORSDOF 7
ENDMDL
MODEL 8
REMARK VINA RESULT:      -7.6      3.100      8.979
REMARK  Name = 
REMARK  9 active torsions:
REMARK  status: ('A' for Active; 'I' for Inactive)
REMARK    1  A    between atoms: C_1  and  C_2
REMARK    2  A    between atoms: C_2  and  C_3
REMARK    3  A    between atoms: C_3  and  N_4
REMARK    4  A    between atoms: C_5  and  C_7
REMARK    5  A    between atoms: C_11  and  C_13
REMARK    6  A    between atoms: N_20  and  C_21
REMARK    7  A    between atoms: C_21  and  C_22
REMARK    8  A    between atoms: C_25  and  O_26
REMARK    9  A    between atoms: O_26  and  C_27
REMARK                            x       y       z     vdW  Elec       q    Type
REMARK                         _______ _______ _______ _____ _____    ______ ____
ROOT
ATOM      1  C   UNL     1       2.435   6.399  19.364  0.00  0.00    +0.000 A 
ATOM      2  C   UNL     1       1.661   5.499  20.091  0.00  0.00    +0.000 A 
ATOM      3  C   UNL     1       2.411   4.312  20.222  0.00  0.00    +0.000 A 
ATOM      4  S   UNL     1       2.204   2.713  20.844  0.00  0.00    +0.000 S 
ATOM      5  C   UNL     1       3.845   2.374  20.469  0.00  0.00    +0.000 A 
ATOM      6  C   UNL     1       4.527   3.424  19.890  0.00  0.00    +0.000 A 
ATOM      7  C   UNL     1       3.652   4.536  19.718  0.00  0.00    +0.000 A 
ATOM      8  N   UNL     1       3.693   5.823  19.201  0.00  0.00    +0.000 N 
ENDROOT
BRANCH   1  13
ATOM      9  C   UNL     1       0.998  10.603  21.945  0.00  0.00    +0.000 C 
ATOM     10  C   UNL     1       1.457  10.998  20.530  0.00  0.00    +0.000 C 
ATOM     11  C   UNL     1       1.105   9.959  19.458  0.00  0.00    +0.000 C 
ATOM     12  N   UNL     1       1.487   8.611  19.870  0.00  0.00    +0.000 N 
ATOM     13  C   UNL     1       2.031   7.732  18.917  0.00  0.00    +0.000 C 
ATOM     14  O   UNL     1       2.192   8.090  17.751  0.00  0.00    +0.000 OA
ATOM     15  C   UNL     1       0.896   8.209  21.148  0.00  0.00    +0.000 C 
ATOM     16  C   UNL     1       1.364   9.148  22.256  0.00  0.00    +0.000 C 
BRANCH   9  18
ATOM     17  N   UNL     1      -1.010  11.868  21.405  0.00  0.00    +0.000 N 
ATOM     18  C   UNL     1      -0.495  10.830  22.144  0.00  0.00    +0.000 C 
ATOM     19  O   UNL     1      -1.181  10.153  22.904  0.00  0.00    +0.000 OA
ATOM     20  H   UNL     1      -0.393  12.480  20.887  0.00  0.00    +0.000 HD
BRANCH  17  21
ATOM     21  C   UNL     1      -2.422  12.171  21.444  0.00  0.00    +0.000 C 
BRANCH  21  23
ATOM     22  C   UNL     1      -3.355  12.784  23.675  0.00  0.00    +0.000 C 
ATOM     23  C   UNL     1      -2.737  13.319  22.394  0.00  0.00    +0.000 C 
ENDBRANCH  21  23
ENDBRANCH  17  21
ENDBRANCH   9  18
ENDBRANCH   1  13
BRANCH   8  24
ATOM     24  C   UNL     1       4.924   6.427  18.701  0.00  0.00    +0.000 C 
BRANCH  24  25
ATOM     25  C   UNL     1       5.450   5.804  17.427  0.00  0.00    +0.000 A 
ATOM     26  C   UNL     1       4.827   6.061  16.199  0.00  0.00    +0.000 A 
ATOM     27  C   UNL     1       5.382   5.584  15.004  0.00  0.00    +0.000 A 
ATOM     28  C   UNL     1       6.569   4.851  15.010  0.00  0.00    +0.000 A 
ATOM     29  C   UNL     1       7.161   4.534  16.230  0.00  0.00    +0.000 A 
ATOM     30  C   UNL     1       6.611   5.015  17.426  0.00  0.00    +0.000 A 
BRANCH  28  31
ATOM     31  O   UNL     1       7.041   4.468  13.785  0.00  0.00    +0.000 OA
ATOM     32  C   UNL     1       6.152   3.668  13.008  0.00  0.00    +0.000 C 
ENDBRANCH  28  31
ENDBRANCH  24  25
ENDBRANCH   8  24
TORSDOF 7
ENDMDL
MODEL 9
REMARK VINA RESULT:      -7.6      2.814      8.734
REMARK  Name = 
REMARK  9 active torsions:
REMARK  status: ('A' for Active; 'I' for Inactive)
REMARK    1  A    between atoms: C_1  and  C_2
REMARK    2  A    between atoms: C_2  and  C_3
REMARK    3  A    between atoms: C_3  and  N_4
REMARK    4  A    between atoms: C_5  and  C_7
REMARK    5  A    between atoms: C_11  and  C_13
REMARK    6  A    between atoms: N_20  and  C_21
REMARK    7  A    between atoms: C_21  and  C_22
REMARK    8  A    between atoms: C_25  and  O_26
REMARK    9  A    between atoms: O_26  and  C_27
REMARK                            x       y       z     vdW  Elec       q    Type
REMARK                         _______ _______ _______ _____ _____    ______ ____
ROOT
ATOM      1  C   UNL     1       2.743   6.519  18.845  0.00  0.00    +0.000 A 
ATOM      2  C   UNL     1       1.860   5.825  19.665  0.00  0.00    +0.000 A 
ATOM      3  C   UNL     1       2.471   4.598  19.998  0.00  0.00    +0.000 A 
ATOM      4  S   UNL     1       2.076   3.141  20.837  0.00  0.00    +0.000 S 
ATOM      5  C   UNL     1       3.678   2.579  20.580  0.00  0.00    +0.000 A 
ATOM      6  C   UNL     1       4.484   3.453  19.880  0.00  0.00    +0.000 A 
ATOM      7  C   UNL     1       3.740   4.613  19.514  0.00  0.00    +0.000 A 
ATOM      8  N   UNL     1       3.934   5.796  18.817  0.00  0.00    +0.000 N 
ENDROOT
BRANCH   1  13
ATOM      9  C   UNL     1       0.911  10.980  20.617  0.00  0.00    +0.000 C 
ATOM     10  C   UNL     1       1.691  11.225  19.314  0.00  0.00    +0.000 C 
ATOM     11  C   UNL     1       1.554  10.088  18.294  0.00  0.00    +0.000 C 
ATOM     12  N   UNL     1       1.785   8.783  18.908  0.00  0.00    +0.000 N 
ATOM     13  C   UNL     1       2.498   7.806  18.193  0.00  0.00    +0.000 C 
ATOM     14  O   UNL     1       2.931   8.043  17.065  0.00  0.00    +0.000 OA
ATOM     15  C   UNL     1       0.907   8.519  20.050  0.00  0.00    +0.000 C 
ATOM     16  C   UNL     1       1.144   9.560  21.141  0.00  0.00    +0.000 C 
BRANCH   9  18
ATOM     17  N   UNL     1      -0.948  11.595  19.170  0.00  0.00    +0.000 N 
ATOM     18  C   UNL     1      -0.580  11.245  20.448  0.00  0.00    +0.000 C 
ATOM     19  O   UNL     1      -1.386  11.163  21.370  0.00  0.00    +0.000 OA
ATOM     20  H   UNL     1      -0.242  11.772  18.467  0.00  0.00    +0.000 HD
BRANCH  17  21
ATOM     21  C   UNL     1      -2.335  11.822  18.839  0.00  0.00    +0.000 C 
BRANCH  21  23
ATOM     22  C   UNL     1      -2.117   9.957  17.196  0.00  0.00    +0.000 C 
ATOM     23  C   UNL     1      -2.673  11.351  17.430  0.00  0.00    +0.000 C 
ENDBRANCH  21  23
ENDBRANCH  17  21
ENDBRANCH   9  18
ENDBRANCH   1  13
BRANCH   8  24
ATOM     24  C   UNL     1       5.234   6.186  18.281  0.00  0.00    +0.000 C 
BRANCH  24  25
ATOM     25  C   UNL     1       5.558   5.584  16.931  0.00  0.00    +0.000 A 
ATOM     26  C   UNL     1       6.843   5.708  16.387  0.00  0.00    +0.000 A 
ATOM     27  C   UNL     1       7.180   5.052  15.196  0.00  0.00    +0.000 A 
ATOM     28  C   UNL     1       6.246   4.256  14.531  0.00  0.00    +0.000 A 
ATOM     29  C   UNL     1       4.947   4.180  15.028  0.00  0.00    +0.000 A 
ATOM     30  C   UNL     1       4.610   4.830  16.222  0.00  0.00    +0.000 A 
BRANCH  28  31
ATOM     31  O   UNL     1       6.692   3.632  13.399  0.00  0.00    +0.000 OA
ATOM     32  C   UNL     1       5.703   3.393  12.399  0.00  0.00    +0.000 C 
ENDBRANCH  28  31
ENDBRANCH  24  25
ENDBRANCH   8  24
TORSDOF 7
ENDMDL
