MODEL 1
REMARK VINA RESULT:      -5.4      0.000      0.000
REMARK  Name = 
REMARK  8 active torsions:
REMARK  status: ('A' for Active; 'I' for Inactive)
REMARK    1  A    between atoms: C_1  and  O_2
REMARK    2  A    between atoms: O_2  and  C_3
REMARK    3  A    between atoms: C_7  and  O_8
REMARK    4  A    between atoms: O_8  and  C_9
REMARK    5  A    between atoms: C_10  and  O_11
REMARK    6  A    between atoms: O_11  and  C_12
REMARK    7  A    between atoms: C_13  and  O_14
REMARK    8  A    between atoms: O_14  and  C_15
REMARK                            x       y       z     vdW  Elec       q    Type
REMARK                         _______ _______ _______ _____ _____    ______ ____
ROOT
ATOM      1  C   UNL     1       3.825   3.511  19.325  0.00  0.00    +0.000 C 
ATOM      2  O   UNL     1       5.242   3.707  19.483  0.00  0.00    +0.000 OA
ATOM      3  C   UNL     1       5.769   4.892  19.094  0.00  0.00    +0.000 C 
ATOM      4  O   UNL     1       6.935   5.184  19.358  0.00  0.00    +0.000 OA
ATOM      5  C   UNL     1       4.866   5.821  18.283  0.00  0.00    +0.000 C 
ATOM      6  C   UNL     1       3.532   6.034  19.045  0.00  0.00    +0.000 C 
ATOM      7  C   UNL     1       3.103   4.772  19.849  0.00  0.00    +0.000 C 
ENDROOT
BRANCH   1   9
ATOM      8  C   UNL     1       2.788   1.948  17.874  0.00  0.00    +0.000 C 
ATOM      9  O   UNL     1       3.466   3.188  17.987  0.00  0.00    +0.000 OA
ENDBRANCH   1   9
BRANCH   5  10
ATOM     10  O   UNL     1       4.619   5.383  16.948  0.00  0.00    +0.000 OA
ATOM     11  C   UNL     1       5.310   6.119  15.953  0.00  0.00    +0.000 C 
ENDBRANCH   5  10
BRANCH   6  12
ATOM     12  O   UNL     1       2.462   6.490  18.198  0.00  0.00    +0.000 OA
ATOM     13  C   UNL     1       2.339   7.901  18.115  0.00  0.00    +0.000 C 
ENDBRANCH   6  12
BRANCH   7  14
ATOM     14  O   UNL     1       1.691   4.550  19.960  0.00  0.00    +0.000 OA
ATOM     15  C   UNL     1       1.337   3.567  20.923  0.00  0.00    +0.000 C 
ENDBRANCH   7  14
TORSDOF 4
ENDMDL
MODEL 2
REMARK VINA RESULT:      -5.2      2.435      3.529
REMARK  Name = 
REMARK  8 active torsions:
REMARK  status: ('A' for Active; 'I' for Inactive)
REMARK    1  A    between atoms: C_1  and  O_2
REMARK    2  A    between atoms: O_2  and  C_3
REMARK    3  A    between atoms: C_7  and  O_8
REMARK    4  A    between atoms: O_8  and  C_9
REMARK    5  A    between atoms: C_10  and  O_11
REMARK    6  A    between atoms: O_11  and  C_12
REMARK    7  A    between atoms: C_13  and  O_14
REMARK    8  A    between atoms: O_14  and  C_15
REMARK                            x       y       z     vdW  Elec       q    Type
REMARK                         _______ _______ _______ _____ _____    ______ ____
ROOT
ATOM      1  C   UNL     1       6.755   4.361  16.479  0.00  0.00    +0.000 C 
ATOM      2  O   UNL     1       7.790   4.431  17.476  0.00  0.00    +0.000 OA
ATOM      3  C   UNL     1       7.685   5.376  18.440  0.00  0.00    +0.000 C 
ATOM      4  O   UNL     1       8.441   5.377  19.411  0.00  0.00    +0.000 OA
ATOM      5  C   UNL     1       6.618   6.452  18.243  0.00  0.00    +0.000 C 
ATOM      6  C   UNL     1       5.248   5.775  17.982  0.00  0.00    +0.000 C 
ATOM      7  C   UNL     1       5.389   4.438  17.197  0.00  0.00    +0.000 C 
ENDROOT
BRANCH   1   9
ATOM      8  C   UNL     1       6.950   4.814  14.160  0.00  0.00    +0.000 C 
ATOM      9  O   UNL     1       6.903   5.353  15.471  0.00  0.00    +0.000 OA
ENDBRANCH   1   9
BRANCH   5  10
ATOM     10  O   UNL     1       6.918   7.396  17.216  0.00  0.00    +0.000 OA
ATOM     11  C   UNL     1       7.834   8.407  17.600  0.00  0.00    +0.000 C 
ENDBRANCH   5  10
BRANCH   6  12
ATOM     12  O   UNL     1       4.298   6.647  17.341  0.00  0.00    +0.000 OA
ATOM     13  C   UNL     1       3.175   6.982  18.141  0.00  0.00    +0.000 C 
ENDBRANCH   6  12
BRANCH   7  14
ATOM     14  O   UNL     1       4.316   4.120  16.301  0.00  0.00    +0.000 OA
ATOM     15  C   UNL     1       3.233   3.440  16.918  0.00  0.00    +0.000 C 
ENDBRANCH   7  14
TORSDOF 4
ENDMDL
MODEL 3
REMARK VINA RESULT:      -5.2      1.739      4.128
REMARK  Name = 
REMARK  8 active torsions:
REMARK  status: ('A' for Active; 'I' for Inactive)
REMARK    1  A    between atoms: C_1  and  O_2
REMARK    2  A    between atoms: O_2  and  C_3
REMARK    3  A    between atoms: C_7  and  O_8
REMARK    4  A    between atoms: O_8  and  C_9
REMARK    5  A    between atoms: C_10  and  O_11
REMARK    6  A    between atoms: O_11  and  C_12
REMARK    7  A    between atoms: C_13  and  O_14
REMARK    8  A    between atoms: O_14  and  C_15
REMARK                            x       y       z     vdW  Elec       q    Type
REMARK                         _______ _______ _______ _____ _____    ______ ____
ROOT
ATOM      1  C   UNL     1       3.733   2.887  18.039  0.00  0.00    +0.000 C 
ATOM      2  O   UNL     1       2.515   2.125  18.137  0.00  0.00    +0.000 OA
ATOM      3  C   UNL     1       1.393   2.765  18.541  0.00  0.00    +0.000 C 
ATOM      4  O   UNL     1       0.294   2.216  18.481  0.00  0.00    +0.000 OA
ATOM      5  C   UNL     1       1.563   4.174  19.107  0.00  0.00    +0.000 C 
ATOM      6  C   UNL     1       2.359   5.041  18.097  0.00  0.00    +0.000 C 
ATOM      7  C   UNL     1       3.415   4.212  17.310  0.00  0.00    +0.000 C 
ENDROOT
BRANCH   1   9
ATOM      8  C   UNL     1       4.652   1.880  19.979  0.00  0.00    +0.000 C 
ATOM      9  O   UNL     1       4.349   3.090  19.304  0.00  0.00    +0.000 OA
ENDBRANCH   1   9
BRANCH   5  10
ATOM     10  O   UNL     1       2.170   4.220  20.398  0.00  0.00    +0.000 OA
ATOM     11  C   UNL     1       1.547   3.393  21.367  0.00  0.00    +0.000 C 
ENDBRANCH   5  10
BRANCH   6  12
ATOM     12  O   UNL     1       2.964   6.200  18.699  0.00  0.00    +0.000 OA
ATOM     13  C   UNL     1       2.461   7.439  18.225  0.00  0.00    +0.000 C 
ENDBRANCH   6  12
BRANCH   7  14
ATOM     14  O   UNL     1       4.617   4.905  16.951  0.00  0.00    +0.000 OA
ATOM     15  C   UNL     1       5.492   4.150  16.125  0.00  0.00    +0.000 C 
ENDBRANCH   7  14
TORSDOF 4
ENDMDL
MODEL 4
REMARK VINA RESULT:      -5.1      1.838      4.373
REMARK  Name = 
REMARK  8 active torsions:
REMARK  status: ('A' for Active; 'I' for Inactive)
REMARK    1  A    between atoms: C_1  and  O_2
REMARK    2  A    between atoms: O_2  and  C_3
REMARK    3  A    between atoms: C_7  and  O_8
REMARK    4  A    between atoms: O_8  and  C_9
REMARK    5  A    between atoms: C_10  and  O_11
REMARK    6  A    between atoms: O_11  and  C_12
REMARK    7  A    between atoms: C_13  and  O_14
REMARK    8  A    between atoms: O_14  and  C_15
REMARK                            x       y       z     vdW  Elec       q    Type
REMARK                         _______ _______ _______ _____ _____    ______ ____
ROOT
ATOM      1  C   UNL     1       5.006   6.062  18.500  0.00  0.00    +0.000 C 
ATOM      2  O   UNL     1       4.853   4.996  19.455  0.00  0.00    +0.000 OA
ATOM      3  C   UNL     1       4.808   3.725  18.992  0.00  0.00    +0.000 C 
ATOM      4  O   UNL     1       4.850   2.767  19.762  0.00  0.00    +0.000 OA
ATOM      5  C   UNL     1       4.662   3.542  17.481  0.00  0.00    +0.000 C 
ATOM      6  C   UNL     1       5.766   4.356  16.756  0.00  0.00    +0.000 C 
ATOM      7  C   UNL     1       6.127   5.667  17.513  0.00  0.00    +0.000 C 
ENDROOT
BRANCH   1   9
ATOM      8  C   UNL     1       2.781   6.847  18.733  0.00  0.00    +0.000 C 
ATOM      9  O   UNL     1       3.785   6.384  17.845  0.00  0.00    +0.000 OA
ENDBRANCH   1   9
BRANCH   5  10
ATOM     10  O   UNL     1       3.373   3.877  16.970  0.00  0.00    +0.000 OA
ATOM     11  C   UNL     1       2.304   3.156  17.561  0.00  0.00    +0.000 C 
ENDBRANCH   5  10
BRANCH   6  12
ATOM     12  O   UNL     1       5.455   4.630  15.378  0.00  0.00    +0.000 OA
ATOM     13  C   UNL     1       6.299   3.974  14.444  0.00  0.00    +0.000 C 
ENDBRANCH   6  12
BRANCH   7  14
ATOM     14  O   UNL     1       6.509   6.780  16.694  0.00  0.00    +0.000 OA
ATOM     15  C   UNL     1       7.374   7.701  17.341  0.00  0.00    +0.000 C 
ENDBRANCH   7  14
TORSDOF 4
ENDMDL
MODEL 5
REMARK VINA RESULT:      -5.0      1.640      3.485
REMARK  Name = 
REMARK  8 active torsions:
REMARK  status: ('A' for Active; 'I' for Inactive)
REMARK    1  A    between atoms: C_1  and  O_2
REMARK    2  A    between atoms: O_2  and  C_3
REMARK    3  A    between atoms: C_7  and  O_8
REMARK    4  A    between atoms: O_8  and  C_9
REMARK    5  A    between atoms: C_10  and  O_11
REMARK    6  A    between atoms: O_11  and  C_12
REMARK    7  A    between atoms: C_13  and  O_14
REMARK    8  A    between atoms: O_14  and  C_15
REMARK                            x       y       z     vdW  Elec       q    Type
REMARK                         _______ _______ _______ _____ _____    ______ ____
ROOT
ATOM      1  C   UNL     1       5.377   5.840  18.731  0.00  0.00    +0.000 C 
ATOM      2  O   UNL     1       5.491   6.697  17.580  0.00  0.00    +0.000 OA
ATOM      3  C   UNL     1       5.110   6.205  16.377  0.00  0.00    +0.000 C 
ATOM      4  O   UNL     1       5.023   6.935  15.392  0.00  0.00    +0.000 OA
ATOM      5  C   UNL     1       4.835   4.703  16.298  0.00  0.00    +0.000 C 
ATOM      6  C   UNL     1       3.823   4.307  17.403  0.00  0.00    +0.000 C 
ATOM      7  C   UNL     1       3.988   5.164  18.692  0.00  0.00    +0.000 C 
ENDROOT
BRANCH   1   9
ATOM      8  C   UNL     1       7.709   5.513  19.006  0.00  0.00    +0.000 C 
ATOM      9  O   UNL     1       6.442   4.903  18.819  0.00  0.00    +0.000 OA
ENDBRANCH   1   9
BRANCH   5  10
ATOM     10  O   UNL     1       6.004   3.887  16.370  0.00  0.00    +0.000 OA
ATOM     11  C   UNL     1       7.020   4.238  15.446  0.00  0.00    +0.000 C 
ENDBRANCH   5  10
BRANCH   6  12
ATOM     12  O   UNL     1       3.847   2.902  17.717  0.00  0.00    +0.000 OA
ATOM     13  C   UNL     1       2.584   2.260  17.634  0.00  0.00    +0.000 C 
ENDBRANCH   6  12
BRANCH   7  14
ATOM     14  O   UNL     1       3.703   4.499  19.929  0.00  0.00    +0.000 OA
ATOM     15  C   UNL     1       2.447   4.848  20.494  0.00  0.00    +0.000 C 
ENDBRANCH   7  14
TORSDOF 4
ENDMDL
MODEL 6
REMARK VINA RESULT:      -5.0      1.531      4.390
REMARK  Name = 
REMARK  8 active torsions:
REMARK  status: ('A' for Active; 'I' for Inactive)
REMARK    1  A    between atoms: C_1  and  O_2
REMARK    2  A    between atoms: O_2  and  C_3
REMARK    3  A    between atoms: C_7  and  O_8
REMARK    4  A    between atoms: O_8  and  C_9
REMARK    5  A    between atoms: C_10  and  O_11
REMARK    6  A    between atoms: O_11  and  C_12
REMARK    7  A    between atoms: C_13  and  O_14
REMARK    8  A    between atoms: O_14  and  C_15
REMARK                            x       y       z     vdW  Elec       q    Type
REMARK                         _______ _______ _______ _____ _____    ______ ____
ROOT
ATOM      1  C   UNL     1       5.568   5.625  17.480  0.00  0.00    +0.000 C 
ATOM      2  O   UNL     1       4.301   6.290  17.320  0.00  0.00    +0.000 OA
ATOM      3  C   UNL     1       3.213   5.739  17.907  0.00  0.00    +0.000 C 
ATOM      4  O   UNL     1       2.142   6.344  17.952  0.00  0.00    +0.000 OA
ATOM      5  C   UNL     1       3.368   4.327  18.470  0.00  0.00    +0.000 C 
ATOM      6  C   UNL     1       4.591   4.286  19.424  0.00  0.00    +0.000 C 
ATOM      7  C   UNL     1       5.728   5.246  18.969  0.00  0.00    +0.000 C 
ENDROOT
BRANCH   1   9
ATOM      8  C   UNL     1       6.862   4.587  15.787  0.00  0.00    +0.000 C 
ATOM      9  O   UNL     1       5.710   4.510  16.610  0.00  0.00    +0.000 OA
ENDBRANCH   1   9
BRANCH   5  10
ATOM     10  O   UNL     1       3.469   3.306  17.478  0.00  0.00    +0.000 OA
ATOM     11  C   UNL     1       2.434   2.339  17.526  0.00  0.00    +0.000 C 
ENDBRANCH   5  10
BRANCH   6  12
ATOM     12  O   UNL     1       5.098   2.956  19.637  0.00  0.00    +0.000 OA
ATOM     13  C   UNL     1       4.399   2.211  20.622  0.00  0.00    +0.000 C 
ENDBRANCH   6  12
BRANCH   7  14
ATOM     14  O   UNL     1       7.065   4.812  19.250  0.00  0.00    +0.000 OA
ATOM     15  C   UNL     1       8.025   5.860  19.235  0.00  0.00    +0.000 C 
ENDBRANCH   7  14
TORSDOF 4
ENDMDL
MODEL 7
REMARK VINA RESULT:      -4.9      1.980      3.873
REMARK  Name = 
REMARK  8 active torsions:
REMARK  status: ('A' for Active; 'I' for Inactive)
REMARK    1  A    between atoms: C_1  and  O_2
REMARK    2  A    between atoms: O_2  and  C_3
REMARK    3  A    between atoms: C_7  and  O_8
REMARK    4  A    between atoms: O_8  and  C_9
REMARK    5  A    between atoms: C_10  and  O_11
REMARK    6  A    between atoms: O_11  and  C_12
REMARK    7  A    between atoms: C_13  and  O_14
REMARK    8  A    between atoms: O_14  and  C_15
REMARK                            x       y       z     vdW  Elec       q    Type
REMARK                         _______ _______ _______ _____ _____    ______ ____
ROOT
ATOM      1  C   UNL     1       4.567   5.137  17.105  0.00  0.00    +0.000 C 
ATOM      2  O   UNL     1       5.282   5.206  15.857  0.00  0.00    +0.000 OA
ATOM      3  C   UNL     1       6.610   5.466  15.897  0.00  0.00    +0.000 C 
ATOM      4  O   UNL     1       7.305   5.370  14.886  0.00  0.00    +0.000 OA
ATOM      5  C   UNL     1       7.188   5.922  17.236  0.00  0.00    +0.000 C 
ATOM      6  C   UNL     1       6.792   4.906  18.339  0.00  0.00    +0.000 C 
ATOM      7  C   UNL     1       5.392   4.275  18.086  0.00  0.00    +0.000 C 
ENDROOT
BRANCH   1   9
ATOM      8  C   UNL     1       2.908   6.552  18.034  0.00  0.00    +0.000 C 
ATOM      9  O   UNL     1       4.260   6.423  17.627  0.00  0.00    +0.000 OA
ENDBRANCH   1   9
BRANCH   5  10
ATOM     10  O   UNL     1       6.818   7.247  17.616  0.00  0.00    +0.000 OA
ATOM     11  C   UNL     1       7.888   8.177  17.611  0.00  0.00    +0.000 C 
ENDBRANCH   5  10
BRANCH   6  12
ATOM     12  O   UNL     1       6.876   5.451  19.668  0.00  0.00    +0.000 OA
ATOM     13  C   UNL     1       8.190   5.505  20.200  0.00  0.00    +0.000 C 
ENDBRANCH   6  12
BRANCH   7  14
ATOM     14  O   UNL     1       4.629   3.952  19.256  0.00  0.00    +0.000 OA
ATOM     15  C   UNL     1       4.074   2.644  19.238  0.00  0.00    +0.000 C 
ENDBRANCH   7  14
TORSDOF 4
ENDMDL
MODEL 8
REMARK VINA RESULT:      -4.8      1.514      4.231
REMARK  Name = 
REMARK  8 active torsions:
REMARK  status: ('A' for Active; 'I' for Inactive)
REMARK    1  A    between atoms: C_1  and  O_2
REMARK    2  A    between atoms: O_2  and  C_3
REMARK    3  A    between atoms: C_7  and  O_8
REMARK    4  A    between atoms: O_8  and  C_9
REMARK    5  A    between atoms: C_10  and  O_11
REMARK    6  A    between atoms: O_11  and  C_12
REMARK    7  A    between atoms: C_13  and  O_14
REMARK    8  A    between atoms: O_14  and  C_15
REMARK                            x       y       z     vdW  Elec       q    Type
REMARK                         _______ _______ _______ _____ _____    ______ ____
ROOT
ATOM      1  C   UNL     1       5.218   5.868  17.359  0.00  0.00    +0.000 C 
ATOM      2  O   UNL     1       4.249   6.920  17.524  0.00  0.00    +0.000 OA
ATOM      3  C   UNL     1       3.167   6.675  18.301  0.00  0.00    +0.000 C 
ATOM      4  O   UNL     1       2.396   7.580  18.617  0.00  0.00    +0.000 OA
ATOM      5  C   UNL     1       2.932   5.226  18.727  0.00  0.00    +0.000 C 
ATOM      6  C   UNL     1       4.222   4.668  19.384  0.00  0.00    +0.000 C 
ATOM      7  C   UNL     1       5.513   5.264  18.750  0.00  0.00    +0.000 C 
ENDROOT
BRANCH   1   9
ATOM      8  C   UNL     1       5.546   4.938  15.204  0.00  0.00    +0.000 C 
ATOM      9  O   UNL     1       4.805   4.892  16.412  0.00  0.00    +0.000 OA
ENDBRANCH   1   9
BRANCH   5  10
ATOM     10  O   UNL     1       2.492   4.368  17.675  0.00  0.00    +0.000 OA
ATOM     11  C   UNL     1       1.180   3.858  17.847  0.00  0.00    +0.000 C 
ENDBRANCH   5  10
BRANCH   6  12
ATOM     12  O   UNL     1       4.274   3.230  19.397  0.00  0.00    +0.000 OA
ATOM     13  C   UNL     1       3.542   2.625  20.451  0.00  0.00    +0.000 C 
ENDBRANCH   6  12
BRANCH   7  14
ATOM     14  O   UNL     1       6.649   4.390  18.703  0.00  0.00    +0.000 OA
ATOM     15  C   UNL     1       7.818   4.995  18.170  0.00  0.00    +0.000 C 
ENDBRANCH   7  14
TORSDOF 4
ENDMDL
MODEL 9
REMARK VINA RESULT:      -4.8      1.737      3.798
REMARK  Name = 
REMARK  8 active torsions:
REMARK  status: ('A' for Active; 'I' for Inactive)
REMARK    1  A    between atoms: C_1  and  O_2
REMARK    2  A    between atoms: O_2  and  C_3
REMARK    3  A    between atoms: C_7  and  O_8
REMARK    4  A    between atoms: O_8  and  C_9
REMARK    5  A    between atoms: C_10  and  O_11
REMARK    6  A    between atoms: O_11  and  C_12
REMARK    7  A    between atoms: C_13  and  O_14
REMARK    8  A    between atoms: O_14  and  C_15
REMARK                            x       y       z     vdW  Elec       q    Type
REMARK                         _______ _______ _______ _____ _____    ______ ____
ROOT
ATOM      1  C   UNL     1       2.763   2.713  19.804  0.00  0.00    +0.000 C 
ATOM      2  O   UNL     1       1.727   2.935  18.831  0.00  0.00    +0.000 OA
ATOM      3  C   UNL     1       1.782   4.064  18.086  0.00  0.00    +0.000 C 
ATOM      4  O   UNL     1       1.029   4.229  17.128  0.00  0.00    +0.000 OA
ATOM      5  C   UNL     1       2.788   5.131  18.518  0.00  0.00    +0.000 C 
ATOM      6  C   UNL     1       4.193   4.488  18.650  0.00  0.00    +0.000 C 
ATOM      7  C   UNL     1       4.124   3.011  19.136  0.00  0.00    +0.000 C 
ENDROOT
BRANCH   1   9
ATOM      8  C   UNL     1       1.522   2.943  21.811  0.00  0.00    +0.000 C 
ATOM      9  O   UNL     1       2.559   3.462  20.995  0.00  0.00    +0.000 OA
ENDBRANCH   1   9
BRANCH   5  10
ATOM     10  O   UNL     1       2.435   5.822  19.716  0.00  0.00    +0.000 OA
ATOM     11  C   UNL     1       2.258   7.219  19.555  0.00  0.00    +0.000 C 
ENDBRANCH   5  10
BRANCH   6  12
ATOM     12  O   UNL     1       5.092   5.256  19.472  0.00  0.00    +0.000 OA
ATOM     13  C   UNL     1       6.310   5.610  18.837  0.00  0.00    +0.000 C 
ENDBRANCH   6  12
BRANCH   7  14
ATOM     14  O   UNL     1       5.211   2.570  19.960  0.00  0.00    +0.000 OA
ATOM     15  C   UNL     1       4.957   1.352  20.645  0.00  0.00    +0.000 C 
ENDBRANCH   7  14
TORSDOF 4
ENDMDL
