MODEL 1
REMARK VINA RESULT:      -7.7      0.000      0.000
REMARK  Name = 
REMARK  10 active torsions:
REMARK  status: ('A' for Active; 'I' for Inactive)
REMARK    1  A    between atoms: C_1  and  C_2
REMARK    2  A    between atoms: C_2  and  C_3
REMARK    3  A    between atoms: C_3  and  N_4
REMARK    4  A    between atoms: C_5  and  C_7
REMARK    5  A    between atoms: C_7  and  C_8
REMARK    6  A    between atoms: C_7  and  N_19
REMARK    7  A    between atoms: C_8  and  C_9
REMARK    8  A    between atoms: C_12  and  C_13
REMARK    9  A    between atoms: C_20  and  C_22
REMARK   10  A    between atoms: C_25  and  C_26
REMARK                            x       y       z     vdW  Elec       q    Type
REMARK                         _______ _______ _______ _____ _____    ______ ____
ROOT
ATOM      1  C   UNL     1       4.966   4.604  18.565  0.00  0.00    +0.000 C 
ENDROOT
BRANCH   1   3
ATOM      2  N   UNL     1       3.434   2.711  19.048  0.00  0.00    +0.000 N 
ATOM      3  C   UNL     1       4.015   3.487  18.064  0.00  0.00    +0.000 C 
ATOM      4  O   UNL     1       3.733   3.369  16.871  0.00  0.00    +0.000 OA
ATOM      5  H   UNL     1       3.821   2.731  19.981  0.00  0.00    +0.000 HD
BRANCH   2   6
ATOM      6  C   UNL     1       2.463   1.678  18.751  0.00  0.00    +0.000 C 
BRANCH   6   8
ATOM      7  C   UNL     1       0.731   3.036  20.012  0.00  0.00    +0.000 C 
ATOM      8  C   UNL     1       1.040   2.234  18.755  0.00  0.00    +0.000 C 
ENDBRANCH   6   8
ENDBRANCH   2   6
ENDBRANCH   1   3
BRANCH   1   9
ATOM      9  N   UNL     1       4.205   5.859  18.575  0.00  0.00    +0.000 N 
ATOM     10  C   UNL     1       3.195   6.101  19.473  0.00  0.00    +0.000 C 
ATOM     11  O   UNL     1       2.883   5.310  20.356  0.00  0.00    +0.000 OA
ATOM     12  H   UNL     1       4.325   6.440  17.752  0.00  0.00    +0.000 HD
BRANCH  10  13
ATOM     13  C   UNL     1       2.444   7.380  19.327  0.00  0.00    +0.000 A 
ATOM     14  C   UNL     1       2.512   8.040  18.092  0.00  0.00    +0.000 A 
ATOM     15  C   UNL     1       1.872   9.267  17.908  0.00  0.00    +0.000 A 
ATOM     16  C   UNL     1       1.147   9.841  18.954  0.00  0.00    +0.000 A 
ATOM     17  C   UNL     1       1.036   9.164  20.175  0.00  0.00    +0.000 A 
ATOM     18  C   UNL     1       1.677   7.933  20.361  0.00  0.00    +0.000 A 
BRANCH  16  19
ATOM     19  C   UNL     1       0.529  11.125  18.782  0.00  0.00    +0.000 C 
ATOM     20  N   UNL     1       0.037  12.164  18.632  0.00  0.00    +0.000 NA
ENDBRANCH  16  19
ENDBRANCH  10  13
ENDBRANCH   1   9
BRANCH   1  21
ATOM     21  C   UNL     1       6.298   4.686  17.791  0.00  0.00    +0.000 C 
BRANCH  21  22
ATOM     22  C   UNL     1       6.979   6.032  17.868  0.00  0.00    +0.000 A 
ATOM     23  C   UNL     1       7.956   6.272  18.843  0.00  0.00    +0.000 A 
ATOM     24  C   UNL     1       8.523   7.540  18.983  0.00  0.00    +0.000 A 
ATOM     25  C   UNL     1       8.130   8.587  18.140  0.00  0.00    +0.000 A 
ATOM     26  C   UNL     1       7.185   8.332  17.133  0.00  0.00    +0.000 A 
ATOM     27  C   UNL     1       6.615   7.065  16.999  0.00  0.00    +0.000 A 
BRANCH  25  28
ATOM     28  C   UNL     1       8.686   9.979  18.312  0.00  0.00    +0.000 C 
ATOM     29  F   UNL     1       8.862  10.341  19.613  0.00  0.00    +0.000 F 
ATOM     30  F   UNL     1       9.899  10.134  17.712  0.00  0.00    +0.000 F 
ATOM     31  F   UNL     1       7.876  10.928  17.767  0.00  0.00    +0.000 F 
ENDBRANCH  25  28
ENDBRANCH  21  22
ENDBRANCH   1  21
TORSDOF 9
ENDMDL
MODEL 2
REMARK VINA RESULT:      -7.6      4.093      6.626
REMARK  Name = 
REMARK  10 active torsions:
REMARK  status: ('A' for Active; 'I' for Inactive)
REMARK    1  A    between atoms: C_1  and  C_2
REMARK    2  A    between atoms: C_2  and  C_3
REMARK    3  A    between atoms: C_3  and  N_4
REMARK    4  A    between atoms: C_5  and  C_7
REMARK    5  A    between atoms: C_7  and  C_8
REMARK    6  A    between atoms: C_7  and  N_19
REMARK    7  A    between atoms: C_8  and  C_9
REMARK    8  A    between atoms: C_12  and  C_13
REMARK    9  A    between atoms: C_20  and  C_22
REMARK   10  A    between atoms: C_25  and  C_26
REMARK                            x       y       z     vdW  Elec       q    Type
REMARK                         _______ _______ _______ _____ _____    ______ ____
ROOT
ATOM      1  C   UNL     1       5.883   6.282  17.120  0.00  0.00    +0.000 C 
ENDROOT
BRANCH   1   3
ATOM      2  N   UNL     1       7.436   8.177  17.525  0.00  0.00    +0.000 N 
ATOM      3  C   UNL     1       7.209   6.827  17.712  0.00  0.00    +0.000 C 
ATOM      4  O   UNL     1       7.957   6.113  18.381  0.00  0.00    +0.000 OA
ATOM      5  H   UNL     1       6.892   8.675  16.836  0.00  0.00    +0.000 HD
BRANCH   2   6
ATOM      6  C   UNL     1       8.587   8.855  18.083  0.00  0.00    +0.000 C 
BRANCH   6   8
ATOM      7  C   UNL     1       9.713  11.115  18.322  0.00  0.00    +0.000 C 
ATOM      8  C   UNL     1       8.414  10.373  18.042  0.00  0.00    +0.000 C 
ENDBRANCH   6   8
ENDBRANCH   2   6
ENDBRANCH   1   3
BRANCH   1   9
ATOM      9  N   UNL     1       4.783   6.847  17.909  0.00  0.00    +0.000 N 
ATOM     10  C   UNL     1       3.736   7.525  17.335  0.00  0.00    +0.000 C 
ATOM     11  O   UNL     1       3.620   7.670  16.123  0.00  0.00    +0.000 OA
ATOM     12  H   UNL     1       4.951   6.893  18.908  0.00  0.00    +0.000 HD
BRANCH  10  13
ATOM     13  C   UNL     1       2.723   8.121  18.251  0.00  0.00    +0.000 A 
ATOM     14  C   UNL     1       2.100   9.311  17.850  0.00  0.00    +0.000 A 
ATOM     15  C   UNL     1       1.180   9.946  18.686  0.00  0.00    +0.000 A 
ATOM     16  C   UNL     1       0.864   9.390  19.928  0.00  0.00    +0.000 A 
ATOM     17  C   UNL     1       1.448   8.177  20.313  0.00  0.00    +0.000 A 
ATOM     18  C   UNL     1       2.371   7.539  19.476  0.00  0.00    +0.000 A 
BRANCH  16  19
ATOM     19  C   UNL     1      -0.045  10.067  20.809  0.00  0.00    +0.000 C 
ATOM     20  N   UNL     1      -0.773  10.625  21.517  0.00  0.00    +0.000 NA
ENDBRANCH  16  19
ENDBRANCH  10  13
ENDBRANCH   1   9
BRANCH   1  21
ATOM     21  C   UNL     1       5.839   4.745  16.995  0.00  0.00    +0.000 C 
BRANCH  21  22
ATOM     22  C   UNL     1       4.657   4.101  17.679  0.00  0.00    +0.000 A 
ATOM     23  C   UNL     1       3.473   3.866  16.967  0.00  0.00    +0.000 A 
ATOM     24  C   UNL     1       2.344   3.358  17.614  0.00  0.00    +0.000 A 
ATOM     25  C   UNL     1       2.385   3.065  18.982  0.00  0.00    +0.000 A 
ATOM     26  C   UNL     1       3.587   3.257  19.684  0.00  0.00    +0.000 A 
ATOM     27  C   UNL     1       4.712   3.770  19.036  0.00  0.00    +0.000 A 
BRANCH  25  28
ATOM     28  C   UNL     1       1.161   2.572  19.712  0.00  0.00    +0.000 C 
ATOM     29  F   UNL     1       0.331   3.569  20.125  0.00  0.00    +0.000 F 
ATOM     30  F   UNL     1       0.398   1.740  18.950  0.00  0.00    +0.000 F 
ATOM     31  F   UNL     1       1.479   1.864  20.831  0.00  0.00    +0.000 F 
ENDBRANCH  25  28
ENDBRANCH  21  22
ENDBRANCH   1  21
TORSDOF 9
ENDMDL
MODEL 3
REMARK VINA RESULT:      -7.6      1.122      1.644
REMARK  Name = 
REMARK  10 active torsions:
REMARK  status: ('A' for Active; 'I' for Inactive)
REMARK    1  A    between atoms: C_1  and  C_2
REMARK    2  A    between atoms: C_2  and  C_3
REMARK    3  A    between atoms: C_3  and  N_4
REMARK    4  A    between atoms: C_5  and  C_7
REMARK    5  A    between atoms: C_7  and  C_8
REMARK    6  A    between atoms: C_7  and  N_19
REMARK    7  A    between atoms: C_8  and  C_9
REMARK    8  A    between atoms: C_12  and  C_13
REMARK    9  A    between atoms: C_20  and  C_22
REMARK   10  A    between atoms: C_25  and  C_26
REMARK                            x       y       z     vdW  Elec       q    Type
REMARK                         _______ _______ _______ _____ _____    ______ ____
ROOT
ATOM      1  C   UNL     1       5.356   4.655  19.297  0.00  0.00    +0.000 C 
ENDROOT
BRANCH   1   3
ATOM      2  N   UNL     1       3.795   3.063  18.206  0.00  0.00    +0.000 N 
ATOM      3  C   UNL     1       4.607   3.297  19.298  0.00  0.00    +0.000 C 
ATOM      4  O   UNL     1       4.803   2.455  20.175  0.00  0.00    +0.000 OA
ATOM      5  H   UNL     1       3.535   3.837  17.612  0.00  0.00    +0.000 HD
BRANCH   2   6
ATOM      6  C   UNL     1       3.088   1.812  18.018  0.00  0.00    +0.000 C 
BRANCH   6   8
ATOM      7  C   UNL     1       1.000   3.141  18.573  0.00  0.00    +0.000 C 
ATOM      8  C   UNL     1       1.740   1.820  18.737  0.00  0.00    +0.000 C 
ENDBRANCH   6   8
ENDBRANCH   2   6
ENDBRANCH   1   3
BRANCH   1   9
ATOM      9  N   UNL     1       4.368   5.704  19.571  0.00  0.00    +0.000 N 
ATOM     10  C   UNL     1       3.502   6.170  18.613  0.00  0.00    +0.000 C 
ATOM     11  O   UNL     1       3.462   5.717  17.474  0.00  0.00    +0.000 OA
ATOM     12  H   UNL     1       4.506   6.206  20.441  0.00  0.00    +0.000 HD
BRANCH  10  13
ATOM     13  C   UNL     1       2.601   7.293  18.994  0.00  0.00    +0.000 A 
ATOM     14  C   UNL     1       2.071   7.293  20.293  0.00  0.00    +0.000 A 
ATOM     15  C   UNL     1       1.181   8.290  20.695  0.00  0.00    +0.000 A 
ATOM     16  C   UNL     1       0.820   9.306  19.807  0.00  0.00    +0.000 A 
ATOM     17  C   UNL     1       1.383   9.337  18.525  0.00  0.00    +0.000 A 
ATOM     18  C   UNL     1       2.276   8.338  18.119  0.00  0.00    +0.000 A 
BRANCH  16  19
ATOM     19  C   UNL     1      -0.132  10.304  20.203  0.00  0.00    +0.000 C 
ATOM     20  N   UNL     1      -0.910  11.100  20.523  0.00  0.00    +0.000 NA
ENDBRANCH  16  19
ENDBRANCH  10  13
ENDBRANCH   1   9
BRANCH   1  21
ATOM     21  C   UNL     1       6.197   4.904  18.027  0.00  0.00    +0.000 C 
BRANCH  21  22
ATOM     22  C   UNL     1       6.934   6.222  18.020  0.00  0.00    +0.000 A 
ATOM     23  C   UNL     1       7.982   6.448  18.922  0.00  0.00    +0.000 A 
ATOM     24  C   UNL     1       8.607   7.695  18.988  0.00  0.00    +0.000 A 
ATOM     25  C   UNL     1       8.201   8.734  18.141  0.00  0.00    +0.000 A 
ATOM     26  C   UNL     1       7.183   8.491  17.205  0.00  0.00    +0.000 A 
ATOM     27  C   UNL     1       6.556   7.246  17.146  0.00  0.00    +0.000 A 
BRANCH  25  28
ATOM     28  C   UNL     1       8.822  10.105  18.235  0.00  0.00    +0.000 C 
ATOM     29  F   UNL     1       8.033  11.098  17.740  0.00  0.00    +0.000 F 
ATOM     30  F   UNL     1       9.110  10.461  19.518  0.00  0.00    +0.000 F 
ATOM     31  F   UNL     1       9.997  10.187  17.553  0.00  0.00    +0.000 F 
ENDBRANCH  25  28
ENDBRANCH  21  22
ENDBRANCH   1  21
TORSDOF 9
ENDMDL
MODEL 4
REMARK VINA RESULT:      -7.5      0.547      1.076
REMARK  Name = 
REMARK  10 active torsions:
REMARK  status: ('A' for Active; 'I' for Inactive)
REMARK    1  A    between atoms: C_1  and  C_2
REMARK    2  A    between atoms: C_2  and  C_3
REMARK    3  A    between atoms: C_3  and  N_4
REMARK    4  A    between atoms: C_5  and  C_7
REMARK    5  A    between atoms: C_7  and  C_8
REMARK    6  A    between atoms: C_7  and  N_19
REMARK    7  A    between atoms: C_8  and  C_9
REMARK    8  A    between atoms: C_12  and  C_13
REMARK    9  A    between atoms: C_20  and  C_22
REMARK   10  A    between atoms: C_25  and  C_26
REMARK                            x       y       z     vdW  Elec       q    Type
REMARK                         _______ _______ _______ _____ _____    ______ ____
ROOT
ATOM      1  C   UNL     1       5.299   4.878  18.486  0.00  0.00    +0.000 C 
ENDROOT
BRANCH   1   3
ATOM      2  N   UNL     1       4.151   2.696  18.777  0.00  0.00    +0.000 N 
ATOM      3  C   UNL     1       4.475   3.706  17.892  0.00  0.00    +0.000 C 
ATOM      4  O   UNL     1       4.066   3.730  16.731  0.00  0.00    +0.000 OA
ATOM      5  H   UNL     1       4.644   2.635  19.656  0.00  0.00    +0.000 HD
BRANCH   2   6
ATOM      6  C   UNL     1       3.320   1.571  18.400  0.00  0.00    +0.000 C 
BRANCH   6   8
ATOM      7  C   UNL     1       1.053   2.697  18.554  0.00  0.00    +0.000 C 
ATOM      8  C   UNL     1       1.967   1.614  19.110  0.00  0.00    +0.000 C 
ENDBRANCH   6   8
ENDBRANCH   2   6
ENDBRANCH   1   3
BRANCH   1   9
ATOM      9  N   UNL     1       4.418   6.049  18.547  0.00  0.00    +0.000 N 
ATOM     10  C   UNL     1       3.326   6.108  19.377  0.00  0.00    +0.000 C 
ATOM     11  O   UNL     1       3.032   5.208  20.157  0.00  0.00    +0.000 OA
ATOM     12  H   UNL     1       4.539   6.717  17.793  0.00  0.00    +0.000 HD
BRANCH  10  13
ATOM     13  C   UNL     1       2.463   7.319  19.287  0.00  0.00    +0.000 A 
ATOM     14  C   UNL     1       2.373   7.966  18.046  0.00  0.00    +0.000 A 
ATOM     15  C   UNL     1       1.621   9.134  17.909  0.00  0.00    +0.000 A 
ATOM     16  C   UNL     1       0.942   9.662  19.009  0.00  0.00    +0.000 A 
ATOM     17  C   UNL     1       0.991   8.995  20.239  0.00  0.00    +0.000 A 
ATOM     18  C   UNL     1       1.744   7.823  20.379  0.00  0.00    +0.000 A 
BRANCH  16  19
ATOM     19  C   UNL     1       0.210  10.889  18.881  0.00  0.00    +0.000 C 
ATOM     20  N   UNL     1      -0.371  11.886  18.772  0.00  0.00    +0.000 NA
ENDBRANCH  16  19
ENDBRANCH  10  13
ENDBRANCH   1   9
BRANCH   1  21
ATOM     21  C   UNL     1       6.634   5.136  17.758  0.00  0.00    +0.000 C 
BRANCH  21  22
ATOM     22  C   UNL     1       7.193   6.525  17.959  0.00  0.00    +0.000 A 
ATOM     23  C   UNL     1       6.753   7.584  17.154  0.00  0.00    +0.000 A 
ATOM     24  C   UNL     1       7.330   8.850  17.269  0.00  0.00    +0.000 A 
ATOM     25  C   UNL     1       8.349   9.081  18.201  0.00  0.00    +0.000 A 
ATOM     26  C   UNL     1       8.756   8.029  19.039  0.00  0.00    +0.000 A 
ATOM     27  C   UNL     1       8.181   6.764  18.919  0.00  0.00    +0.000 A 
BRANCH  25  28
ATOM     28  C   UNL     1       9.027  10.424  18.301  0.00  0.00    +0.000 C 
ATOM     29  F   UNL     1       9.406  10.754  19.566  0.00  0.00    +0.000 F 
ATOM     30  F   UNL     1      10.155  10.498  17.541  0.00  0.00    +0.000 F 
ATOM     31  F   UNL     1       8.225  11.439  17.875  0.00  0.00    +0.000 F 
ENDBRANCH  25  28
ENDBRANCH  21  22
ENDBRANCH   1  21
TORSDOF 9
ENDMDL
MODEL 5
REMARK VINA RESULT:      -7.5      4.780      8.159
REMARK  Name = 
REMARK  10 active torsions:
REMARK  status: ('A' for Active; 'I' for Inactive)
REMARK    1  A    between atoms: C_1  and  C_2
REMARK    2  A    between atoms: C_2  and  C_3
REMARK    3  A    between atoms: C_3  and  N_4
REMARK    4  A    between atoms: C_5  and  C_7
REMARK    5  A    between atoms: C_7  and  C_8
REMARK    6  A    between atoms: C_7  and  N_19
REMARK    7  A    between atoms: C_8  and  C_9
REMARK    8  A    between atoms: C_12  and  C_13
REMARK    9  A    between atoms: C_20  and  C_22
REMARK   10  A    between atoms: C_25  and  C_26
REMARK                            x       y       z     vdW  Elec       q    Type
REMARK                         _______ _______ _______ _____ _____    ______ ____
ROOT
ATOM      1  C   UNL     1       7.635   6.405  18.102  0.00  0.00    +0.000 C 
ENDROOT
BRANCH   1   3
ATOM      2  N   UNL     1       8.702   8.524  18.833  0.00  0.00    +0.000 N 
ATOM      3  C   UNL     1       7.788   7.943  17.977  0.00  0.00    +0.000 C 
ATOM      4  O   UNL     1       7.194   8.581  17.106  0.00  0.00    +0.000 OA
ATOM      5  H   UNL     1       9.031   7.999  19.631  0.00  0.00    +0.000 HD
BRANCH   2   6
ATOM      6  C   UNL     1       9.019   9.937  18.790  0.00  0.00    +0.000 C 
BRANCH   6   8
ATOM      7  C   UNL     1      10.369  11.588  20.163  0.00  0.00    +0.000 C 
ATOM      8  C   UNL     1       9.321  10.484  20.184  0.00  0.00    +0.000 C 
ENDBRANCH   6   8
ENDBRANCH   2   6
ENDBRANCH   1   3
BRANCH   1   9
ATOM      9  N   UNL     1       6.965   5.929  16.887  0.00  0.00    +0.000 N 
ATOM     10  C   UNL     1       7.333   4.769  16.249  0.00  0.00    +0.000 C 
ATOM     11  O   UNL     1       8.214   4.027  16.669  0.00  0.00    +0.000 OA
ATOM     12  H   UNL     1       6.366   6.609  16.432  0.00  0.00    +0.000 HD
BRANCH  10  13
ATOM     13  C   UNL     1       6.629   4.436  14.979  0.00  0.00    +0.000 A 
ATOM     14  C   UNL     1       5.242   4.235  15.034  0.00  0.00    +0.000 A 
ATOM     15  C   UNL     1       4.533   3.872  13.887  0.00  0.00    +0.000 A 
ATOM     16  C   UNL     1       5.201   3.717  12.671  0.00  0.00    +0.000 A 
ATOM     17  C   UNL     1       6.578   3.962  12.601  0.00  0.00    +0.000 A 
ATOM     18  C   UNL     1       7.291   4.327  13.749  0.00  0.00    +0.000 A 
BRANCH  16  19
ATOM     19  C   UNL     1       4.481   3.296  11.503  0.00  0.00    +0.000 C 
ATOM     20  N   UNL     1       3.905   2.967  10.553  0.00  0.00    +0.000 NA
ENDBRANCH  16  19
ENDBRANCH  10  13
ENDBRANCH   1   9
BRANCH   1  21
ATOM     21  C   UNL     1       6.957   5.948  19.411  0.00  0.00    +0.000 C 
BRANCH  21  22
ATOM     22  C   UNL     1       5.601   5.312  19.217  0.00  0.00    +0.000 A 
ATOM     23  C   UNL     1       5.455   3.922  19.314  0.00  0.00    +0.000 A 
ATOM     24  C   UNL     1       4.226   3.317  19.044  0.00  0.00    +0.000 A 
ATOM     25  C   UNL     1       3.118   4.095  18.685  0.00  0.00    +0.000 A 
ATOM     26  C   UNL     1       3.255   5.492  18.635  0.00  0.00    +0.000 A 
ATOM     27  C   UNL     1       4.486   6.094  18.899  0.00  0.00    +0.000 A 
BRANCH  25  28
ATOM     28  C   UNL     1       1.798   3.458  18.332  0.00  0.00    +0.000 C 
ATOM     29  F   UNL     1       1.919   2.239  17.738  0.00  0.00    +0.000 F 
ATOM     30  F   UNL     1       1.003   3.266  19.422  0.00  0.00    +0.000 F 
ATOM     31  F   UNL     1       1.070   4.222  17.470  0.00  0.00    +0.000 F 
ENDBRANCH  25  28
ENDBRANCH  21  22
ENDBRANCH   1  21
TORSDOF 9
ENDMDL
MODEL 6
REMARK VINA RESULT:      -7.5      0.684      1.311
REMARK  Name = 
REMARK  10 active torsions:
REMARK  status: ('A' for Active; 'I' for Inactive)
REMARK    1  A    between atoms: C_1  and  C_2
REMARK    2  A    between atoms: C_2  and  C_3
REMARK    3  A    between atoms: C_3  and  N_4
REMARK    4  A    between atoms: C_5  and  C_7
REMARK    5  A    between atoms: C_7  and  C_8
REMARK    6  A    between atoms: C_7  and  N_19
REMARK    7  A    between atoms: C_8  and  C_9
REMARK    8  A    between atoms: C_12  and  C_13
REMARK    9  A    between atoms: C_20  and  C_22
REMARK   10  A    between atoms: C_25  and  C_26
REMARK                            x       y       z     vdW  Elec       q    Type
REMARK                         _______ _______ _______ _____ _____    ______ ____
ROOT
ATOM      1  C   UNL     1       5.254   4.980  18.191  0.00  0.00    +0.000 C 
ENDROOT
BRANCH   1   3
ATOM      2  N   UNL     1       4.109   2.824  18.642  0.00  0.00    +0.000 N 
ATOM      3  C   UNL     1       4.398   3.786  17.694  0.00  0.00    +0.000 C 
ATOM      4  O   UNL     1       3.935   3.756  16.553  0.00  0.00    +0.000 OA
ATOM      5  H   UNL     1       4.643   2.803  19.499  0.00  0.00    +0.000 HD
BRANCH   2   6
ATOM      6  C   UNL     1       3.257   1.687  18.360  0.00  0.00    +0.000 C 
BRANCH   6   8
ATOM      7  C   UNL     1       0.999   2.812  18.627  0.00  0.00    +0.000 C 
ATOM      8  C   UNL     1       1.956   1.754  19.160  0.00  0.00    +0.000 C 
ENDBRANCH   6   8
ENDBRANCH   2   6
ENDBRANCH   1   3
BRANCH   1   9
ATOM      9  N   UNL     1       4.372   6.150  18.273  0.00  0.00    +0.000 N 
ATOM     10  C   UNL     1       3.352   6.241  19.188  0.00  0.00    +0.000 C 
ATOM     11  O   UNL     1       3.131   5.376  20.028  0.00  0.00    +0.000 OA
ATOM     12  H   UNL     1       4.425   6.784  17.483  0.00  0.00    +0.000 HD
BRANCH  10  13
ATOM     13  C   UNL     1       2.477   7.444  19.117  0.00  0.00    +0.000 A 
ATOM     14  C   UNL     1       1.805   7.833  20.285  0.00  0.00    +0.000 A 
ATOM     15  C   UNL     1       0.931   8.922  20.271  0.00  0.00    +0.000 A 
ATOM     16  C   UNL     1       0.729   9.641  19.092  0.00  0.00    +0.000 A 
ATOM     17  C   UNL     1       1.433   9.287  17.935  0.00  0.00    +0.000 A 
ATOM     18  C   UNL     1       2.311   8.195  17.946  0.00  0.00    +0.000 A 
BRANCH  16  19
ATOM     19  C   UNL     1      -0.205  10.730  19.064  0.00  0.00    +0.000 C 
ATOM     20  N   UNL     1      -0.952  11.616  19.033  0.00  0.00    +0.000 NA
ENDBRANCH  16  19
ENDBRANCH  10  13
ENDBRANCH   1   9
BRANCH   1  21
ATOM     21  C   UNL     1       6.534   5.218  17.363  0.00  0.00    +0.000 C 
BRANCH  21  22
ATOM     22  C   UNL     1       7.274   6.487  17.716  0.00  0.00    +0.000 A 
ATOM     23  C   UNL     1       8.068   6.541  18.870  0.00  0.00    +0.000 A 
ATOM     24  C   UNL     1       8.680   7.735  19.255  0.00  0.00    +0.000 A 
ATOM     25  C   UNL     1       8.517   8.893  18.485  0.00  0.00    +0.000 A 
ATOM     26  C   UNL     1       7.760   8.825  17.304  0.00  0.00    +0.000 A 
ATOM     27  C   UNL     1       7.145   7.631  16.924  0.00  0.00    +0.000 A 
BRANCH  25  28
ATOM     28  C   UNL     1       9.120  10.207  18.914  0.00  0.00    +0.000 C 
ATOM     29  F   UNL     1      10.457  10.300  18.676  0.00  0.00    +0.000 F 
ATOM     30  F   UNL     1       8.552  11.273  18.283  0.00  0.00    +0.000 F 
ATOM     31  F   UNL     1       8.962  10.437  20.247  0.00  0.00    +0.000 F 
ENDBRANCH  25  28
ENDBRANCH  21  22
ENDBRANCH   1  21
TORSDOF 9
ENDMDL
MODEL 7
REMARK VINA RESULT:      -7.3      5.002      7.412
REMARK  Name = 
REMARK  10 active torsions:
REMARK  status: ('A' for Active; 'I' for Inactive)
REMARK    1  A    between atoms: C_1  and  C_2
REMARK    2  A    between atoms: C_2  and  C_3
REMARK    3  A    between atoms: C_3  and  N_4
REMARK    4  A    between atoms: C_5  and  C_7
REMARK    5  A    between atoms: C_7  and  C_8
REMARK    6  A    between atoms: C_7  and  N_19
REMARK    7  A    between atoms: C_8  and  C_9
REMARK    8  A    between atoms: C_12  and  C_13
REMARK    9  A    between atoms: C_20  and  C_22
REMARK   10  A    between atoms: C_25  and  C_26
REMARK                            x       y       z     vdW  Elec       q    Type
REMARK                         _______ _______ _______ _____ _____    ______ ____
ROOT
ATOM      1  C   UNL     1       6.252   6.053  17.078  0.00  0.00    +0.000 C 
ENDROOT
BRANCH   1   3
ATOM      2  N   UNL     1       6.743   5.635  14.680  0.00  0.00    +0.000 N 
ATOM      3  C   UNL     1       7.044   5.291  15.983  0.00  0.00    +0.000 C 
ATOM      4  O   UNL     1       7.944   4.501  16.272  0.00  0.00    +0.000 OA
ATOM      5  H   UNL     1       5.895   6.150  14.491  0.00  0.00    +0.000 HD
BRANCH   2   6
ATOM      6  C   UNL     1       7.448   5.074  13.546  0.00  0.00    +0.000 C 
BRANCH   6   8
ATOM      7  C   UNL     1       5.223   3.862  13.418  0.00  0.00    +0.000 C 
ATOM      8  C   UNL     1       6.655   3.935  12.905  0.00  0.00    +0.000 C 
ENDBRANCH   6   8
ENDBRANCH   2   6
ENDBRANCH   1   3
BRANCH   1   9
ATOM      9  N   UNL     1       6.832   7.396  17.187  0.00  0.00    +0.000 N 
ATOM     10  C   UNL     1       7.843   7.693  18.068  0.00  0.00    +0.000 C 
ATOM     11  O   UNL     1       8.362   6.853  18.795  0.00  0.00    +0.000 OA
ATOM     12  H   UNL     1       6.302   8.131  16.731  0.00  0.00    +0.000 HD
BRANCH  10  13
ATOM     13  C   UNL     1       8.291   9.112  18.140  0.00  0.00    +0.000 A 
ATOM     14  C   UNL     1       9.284   9.437  19.076  0.00  0.00    +0.000 A 
ATOM     15  C   UNL     1       9.710  10.757  19.228  0.00  0.00    +0.000 A 
ATOM     16  C   UNL     1       9.157  11.766  18.436  0.00  0.00    +0.000 A 
ATOM     17  C   UNL     1       8.199  11.441  17.468  0.00  0.00    +0.000 A 
ATOM     18  C   UNL     1       7.770  10.117  17.314  0.00  0.00    +0.000 A 
BRANCH  16  19
ATOM     19  C   UNL     1       9.559  13.131  18.625  0.00  0.00    +0.000 C 
ATOM     20  N   UNL     1       9.892  14.232  18.766  0.00  0.00    +0.000 NA
ENDBRANCH  16  19
ENDBRANCH  10  13
ENDBRANCH   1   9
BRANCH   1  21
ATOM     21  C   UNL     1       6.159   5.300  18.421  0.00  0.00    +0.000 C 
BRANCH  21  22
ATOM     22  C   UNL     1       4.825   4.637  18.669  0.00  0.00    +0.000 A 
ATOM     23  C   UNL     1       3.674   5.107  18.024  0.00  0.00    +0.000 A 
ATOM     24  C   UNL     1       2.422   4.563  18.319  0.00  0.00    +0.000 A 
ATOM     25  C   UNL     1       2.304   3.528  19.255  0.00  0.00    +0.000 A 
ATOM     26  C   UNL     1       3.465   3.026  19.865  0.00  0.00    +0.000 A 
ATOM     27  C   UNL     1       4.714   3.576  19.573  0.00  0.00    +0.000 A 
BRANCH  25  28
ATOM     28  C   UNL     1       0.956   2.966  19.631  0.00  0.00    +0.000 C 
ATOM     29  F   UNL     1       1.019   1.958  20.543  0.00  0.00    +0.000 F 
ATOM     30  F   UNL     1       0.129   3.906  20.168  0.00  0.00    +0.000 F 
ATOM     31  F   UNL     1       0.292   2.456  18.557  0.00  0.00    +0.000 F 
ENDBRANCH  25  28
ENDBRANCH  21  22
ENDBRANCH   1  21
TORSDOF 9
ENDMDL
MODEL 8
REMARK VINA RESULT:      -7.3      4.655      7.377
REMARK  Name = 
REMARK  10 active torsions:
REMARK  status: ('A' for Active; 'I' for Inactive)
REMARK    1  A    between atoms: C_1  and  C_2
REMARK    2  A    between atoms: C_2  and  C_3
REMARK    3  A    between atoms: C_3  and  N_4
REMARK    4  A    between atoms: C_5  and  C_7
REMARK    5  A    between atoms: C_7  and  C_8
REMARK    6  A    between atoms: C_7  and  N_19
REMARK    7  A    between atoms: C_8  and  C_9
REMARK    8  A    between atoms: C_12  and  C_13
REMARK    9  A    between atoms: C_20  and  C_22
REMARK   10  A    between atoms: C_25  and  C_26
REMARK                            x       y       z     vdW  Elec       q    Type
REMARK                         _______ _______ _______ _____ _____    ______ ____
ROOT
ATOM      1  C   UNL     1       6.867   6.185  16.997  0.00  0.00    +0.000 C 
ENDROOT
BRANCH   1   3
ATOM      2  N   UNL     1       7.784   8.450  17.433  0.00  0.00    +0.000 N 
ATOM      3  C   UNL     1       7.730   7.139  17.863  0.00  0.00    +0.000 C 
ATOM      4  O   UNL     1       8.253   6.761  18.912  0.00  0.00    +0.000 OA
ATOM      5  H   UNL     1       7.490   8.672  16.493  0.00  0.00    +0.000 HD
BRANCH   2   6
ATOM      6  C   UNL     1       8.482   9.482  18.172  0.00  0.00    +0.000 C 
BRANCH   6   8
ATOM      7  C   UNL     1       9.218  11.898  17.937  0.00  0.00    +0.000 C 
ATOM      8  C   UNL     1       8.125  10.876  17.657  0.00  0.00    +0.000 C 
ENDBRANCH   6   8
ENDBRANCH   2   6
ENDBRANCH   1   3
BRANCH   1   9
ATOM      9  N   UNL     1       5.954   5.475  17.900  0.00  0.00    +0.000 N 
ATOM     10  C   UNL     1       4.664   5.890  18.119  0.00  0.00    +0.000 C 
ATOM     11  O   UNL     1       4.167   6.854  17.548  0.00  0.00    +0.000 OA
ATOM     12  H   UNL     1       6.396   4.794  18.508  0.00  0.00    +0.000 HD
BRANCH  10  13
ATOM     13  C   UNL     1       3.864   5.131  19.121  0.00  0.00    +0.000 A 
ATOM     14  C   UNL     1       4.204   3.790  19.349  0.00  0.00    +0.000 A 
ATOM     15  C   UNL     1       3.461   3.011  20.238  0.00  0.00    +0.000 A 
ATOM     16  C   UNL     1       2.377   3.569  20.918  0.00  0.00    +0.000 A 
ATOM     17  C   UNL     1       2.061   4.920  20.731  0.00  0.00    +0.000 A 
ATOM     18  C   UNL     1       2.806   5.703  19.839  0.00  0.00    +0.000 A 
BRANCH  16  19
ATOM     19  C   UNL     1       1.583   2.757  21.795  0.00  0.00    +0.000 C 
ATOM     20  N   UNL     1       0.945   2.109  22.514  0.00  0.00    +0.000 NA
ENDBRANCH  16  19
ENDBRANCH  10  13
ENDBRANCH   1   9
BRANCH   1  21
ATOM     21  C   UNL     1       7.690   5.255  16.081  0.00  0.00    +0.000 C 
BRANCH  21  22
ATOM     22  C   UNL     1       6.906   4.661  14.935  0.00  0.00    +0.000 A 
ATOM     23  C   UNL     1       7.427   4.690  13.635  0.00  0.00    +0.000 A 
ATOM     24  C   UNL     1       6.671   4.229  12.556  0.00  0.00    +0.000 A 
ATOM     25  C   UNL     1       5.383   3.718  12.762  0.00  0.00    +0.000 A 
ATOM     26  C   UNL     1       4.881   3.646  14.072  0.00  0.00    +0.000 A 
ATOM     27  C   UNL     1       5.637   4.113  15.148  0.00  0.00    +0.000 A 
BRANCH  25  28
ATOM     28  C   UNL     1       4.526   3.269  11.605  0.00  0.00    +0.000 C 
ATOM     29  F   UNL     1       3.246   2.970  11.956  0.00  0.00    +0.000 F 
ATOM     30  F   UNL     1       4.436   4.212  10.625  0.00  0.00    +0.000 F 
ATOM     31  F   UNL     1       5.018   2.152  11.002  0.00  0.00    +0.000 F 
ENDBRANCH  25  28
ENDBRANCH  21  22
ENDBRANCH   1  21
TORSDOF 9
ENDMDL
MODEL 9
REMARK VINA RESULT:      -7.3      3.270      3.953
REMARK  Name = 
REMARK  10 active torsions:
REMARK  status: ('A' for Active; 'I' for Inactive)
REMARK    1  A    between atoms: C_1  and  C_2
REMARK    2  A    between atoms: C_2  and  C_3
REMARK    3  A    between atoms: C_3  and  N_4
REMARK    4  A    between atoms: C_5  and  C_7
REMARK    5  A    between atoms: C_7  and  C_8
REMARK    6  A    between atoms: C_7  and  N_19
REMARK    7  A    between atoms: C_8  and  C_9
REMARK    8  A    between atoms: C_12  and  C_13
REMARK    9  A    between atoms: C_20  and  C_22
REMARK   10  A    between atoms: C_25  and  C_26
REMARK                            x       y       z     vdW  Elec       q    Type
REMARK                         _______ _______ _______ _____ _____    ______ ____
ROOT
ATOM      1  C   UNL     1       4.699   4.528  18.350  0.00  0.00    +0.000 C 
ENDROOT
BRANCH   1   3
ATOM      2  N   UNL     1       3.256   3.724  20.203  0.00  0.00    +0.000 N 
ATOM      3  C   UNL     1       4.452   3.557  19.534  0.00  0.00    +0.000 C 
ATOM      4  O   UNL     1       5.237   2.643  19.792  0.00  0.00    +0.000 OA
ATOM      5  H   UNL     1       2.734   4.578  20.070  0.00  0.00    +0.000 HD
BRANCH   2   6
ATOM      6  C   UNL     1       2.839   2.849  21.280  0.00  0.00    +0.000 C 
BRANCH   6   8
ATOM      7  C   UNL     1       0.647   3.023  20.015  0.00  0.00    +0.000 C 
ATOM      8  C   UNL     1       1.316   2.743  21.354  0.00  0.00    +0.000 C 
ENDBRANCH   6   8
ENDBRANCH   2   6
ENDBRANCH   1   3
BRANCH   1   9
ATOM      9  N   UNL     1       4.054   5.802  18.684  0.00  0.00    +0.000 N 
ATOM     10  C   UNL     1       2.748   6.074  18.359  0.00  0.00    +0.000 C 
ATOM     11  O   UNL     1       2.014   5.261  17.807  0.00  0.00    +0.000 OA
ATOM     12  H   UNL     1       4.686   6.540  18.974  0.00  0.00    +0.000 HD
BRANCH  10  13
ATOM     13  C   UNL     1       2.233   7.435  18.681  0.00  0.00    +0.000 A 
ATOM     14  C   UNL     1       1.806   7.678  19.994  0.00  0.00    +0.000 A 
ATOM     15  C   UNL     1       1.267   8.917  20.347  0.00  0.00    +0.000 A 
ATOM     16  C   UNL     1       1.161   9.930  19.392  0.00  0.00    +0.000 A 
ATOM     17  C   UNL     1       1.629   9.709  18.091  0.00  0.00    +0.000 A 
ATOM     18  C   UNL     1       2.170   8.467  17.735  0.00  0.00    +0.000 A 
BRANCH  16  19
ATOM     19  C   UNL     1       0.563  11.187  19.740  0.00  0.00    +0.000 C 
ATOM     20  N   UNL     1       0.067  12.197  20.021  0.00  0.00    +0.000 NA
ENDBRANCH  16  19
ENDBRANCH  10  13
ENDBRANCH   1   9
BRANCH   1  21
ATOM     21  C   UNL     1       4.286   3.958  16.977  0.00  0.00    +0.000 C 
BRANCH  21  22
ATOM     22  C   UNL     1       5.283   4.219  15.872  0.00  0.00    +0.000 A 
ATOM     23  C   UNL     1       6.401   5.028  16.109  0.00  0.00    +0.000 A 
ATOM     24  C   UNL     1       7.276   5.352  15.070  0.00  0.00    +0.000 A 
ATOM     25  C   UNL     1       7.053   4.861  13.778  0.00  0.00    +0.000 A 
ATOM     26  C   UNL     1       5.957   4.011  13.553  0.00  0.00    +0.000 A 
ATOM     27  C   UNL     1       5.081   3.694  14.592  0.00  0.00    +0.000 A 
BRANCH  25  28
ATOM     28  C   UNL     1       7.951   5.246  12.630  0.00  0.00    +0.000 C 
ATOM     29  F   UNL     1       9.263   5.358  12.975  0.00  0.00    +0.000 F 
ATOM     30  F   UNL     1       7.908   4.346  11.608  0.00  0.00    +0.000 F 
ATOM     31  F   UNL     1       7.606   6.445  12.085  0.00  0.00    +0.000 F 
ENDBRANCH  25  28
ENDBRANCH  21  22
ENDBRANCH   1  21
TORSDOF 9
ENDMDL
