MODEL 1
REMARK VINA RESULT:      -7.5      0.000      0.000
REMARK  Name = 
REMARK  4 active torsions:
REMARK  status: ('A' for Active; 'I' for Inactive)
REMARK    1  A    between atoms: C_1  and  C_2
REMARK    2  A    between atoms: N_4  and  C_5
REMARK    3  A    between atoms: C_5  and  N_7
REMARK    4  A    between atoms: N_7  and  C_8
REMARK                            x       y       z     vdW  Elec       q    Type
REMARK                         _______ _______ _______ _____ _____    ______ ____
ROOT
ATOM      1  C   UNL     1       5.306   4.999  18.433  0.00  0.00    +0.000 A 
ATOM      2  C   UNL     1       6.447   5.809  18.522  0.00  0.00    +0.000 A 
ATOM      3  C   UNL     1       7.266   6.001  17.416  0.00  0.00    +0.000 A 
ATOM      4  C   UNL     1       6.940   5.359  16.230  0.00  0.00    +0.000 A 
ATOM      5  O   UNL     1       7.728   5.667  15.106  0.00  0.00    +0.000 OA
ATOM      6  C   UNL     1       7.416   5.157  13.856  0.00  0.00    +0.000 A 
ATOM      7  O   UNL     1       8.019   5.490  12.843  0.00  0.00    +0.000 OA
ATOM      8  C   UNL     1       6.323   4.171  13.794  0.00  0.00    +0.000 A 
ATOM      9  C   UNL     1       5.591   3.838  14.863  0.00  0.00    +0.000 A 
ATOM     10  C   UNL     1       5.861   4.477  16.141  0.00  0.00    +0.000 A 
ATOM     11  C   UNL     1       5.055   4.271  17.266  0.00  0.00    +0.000 A 
ENDROOT
BRANCH   1  12
ATOM     12  N   UNL     1       4.390   4.927  19.500  0.00  0.00    +0.000 N 
ATOM     13  H   UNL     1       4.743   4.689  20.422  0.00  0.00    +0.000 HD
BRANCH  12  14
ATOM     14  C   UNL     1       3.029   5.183  19.438  0.00  0.00    +0.000 C 
ATOM     15  S   UNL     1       2.507   6.760  19.544  0.00  0.00    +0.000 S 
BRANCH  14  19
ATOM     16  C   UNL     1       0.660   2.300  18.901  0.00  0.00    +0.000 C 
ATOM     17  C   UNL     1       1.398   3.523  18.407  0.00  0.00    +0.000 C 
ATOM     18  O   UNL     1       1.273   3.935  17.266  0.00  0.00    +0.000 OA
ATOM     19  N   UNL     1       2.244   4.033  19.390  0.00  0.00    +0.000 N 
ATOM     20  H   UNL     1       2.194   3.550  20.275  0.00  0.00    +0.000 HD
ENDBRANCH  14  19
ENDBRANCH  12  14
ENDBRANCH   1  12
TORSDOF 3
ENDMDL
MODEL 2
REMARK VINA RESULT:      -7.5      1.392      1.392
REMARK  Name = 
REMARK  4 active torsions:
REMARK  status: ('A' for Active; 'I' for Inactive)
REMARK    1  A    between atoms: C_1  and  C_2
REMARK    2  A    between atoms: N_4  and  C_5
REMARK    3  A    between atoms: C_5  and  N_7
REMARK    4  A    between atoms: N_7  and  C_8
REMARK                            x       y       z     vdW  Elec       q    Type
REMARK                         _______ _______ _______ _____ _____    ______ ____
ROOT
ATOM      1  C   UNL     1       5.439   5.210  18.543  0.00  0.00    +0.000 A 
ATOM      2  C   UNL     1       6.577   6.028  18.538  0.00  0.00    +0.000 A 
ATOM      3  C   UNL     1       7.348   6.159  17.389  0.00  0.00    +0.000 A 
ATOM      4  C   UNL     1       6.976   5.450  16.256  0.00  0.00    +0.000 A 
ATOM      5  O   UNL     1       7.715   5.696  15.084  0.00  0.00    +0.000 OA
ATOM      6  C   UNL     1       7.353   5.114  13.879  0.00  0.00    +0.000 A 
ATOM      7  O   UNL     1       7.911   5.391  12.824  0.00  0.00    +0.000 OA
ATOM      8  C   UNL     1       6.264   4.122  13.920  0.00  0.00    +0.000 A 
ATOM      9  C   UNL     1       5.579   3.848  15.036  0.00  0.00    +0.000 A 
ATOM     10  C   UNL     1       5.900   4.560  16.263  0.00  0.00    +0.000 A 
ATOM     11  C   UNL     1       5.143   4.416  17.432  0.00  0.00    +0.000 A 
ENDROOT
BRANCH   1  12
ATOM     12  N   UNL     1       4.569   5.196  19.650  0.00  0.00    +0.000 N 
ATOM     13  H   UNL     1       4.959   4.995  20.566  0.00  0.00    +0.000 HD
BRANCH  12  14
ATOM     14  C   UNL     1       3.209   5.465  19.636  0.00  0.00    +0.000 C 
ATOM     15  S   UNL     1       2.669   6.812  18.822  0.00  0.00    +0.000 S 
BRANCH  14  19
ATOM     16  C   UNL     1       1.446   2.709  21.510  0.00  0.00    +0.000 C 
ATOM     17  C   UNL     1       2.628   3.242  20.732  0.00  0.00    +0.000 C 
ATOM     18  O   UNL     1       3.604   2.553  20.489  0.00  0.00    +0.000 OA
ATOM     19  N   UNL     1       2.456   4.589  20.414  0.00  0.00    +0.000 N 
ATOM     20  H   UNL     1       1.568   4.975  20.700  0.00  0.00    +0.000 HD
ENDBRANCH  14  19
ENDBRANCH  12  14
ENDBRANCH   1  12
TORSDOF 3
ENDMDL
MODEL 3
REMARK VINA RESULT:      -7.4      3.098      6.561
REMARK  Name = 
REMARK  4 active torsions:
REMARK  status: ('A' for Active; 'I' for Inactive)
REMARK    1  A    between atoms: C_1  and  C_2
REMARK    2  A    between atoms: N_4  and  C_5
REMARK    3  A    between atoms: C_5  and  N_7
REMARK    4  A    between atoms: N_7  and  C_8
REMARK                            x       y       z     vdW  Elec       q    Type
REMARK                         _______ _______ _______ _____ _____    ______ ____
ROOT
ATOM      1  C   UNL     1       4.010   5.566  17.395  0.00  0.00    +0.000 A 
ATOM      2  C   UNL     1       3.834   6.429  18.486  0.00  0.00    +0.000 A 
ATOM      3  C   UNL     1       3.174   5.996  19.630  0.00  0.00    +0.000 A 
ATOM      4  C   UNL     1       2.680   4.700  19.661  0.00  0.00    +0.000 A 
ATOM      5  O   UNL     1       2.119   4.265  20.875  0.00  0.00    +0.000 OA
ATOM      6  C   UNL     1       1.694   2.955  21.034  0.00  0.00    +0.000 A 
ATOM      7  O   UNL     1       1.300   2.520  22.110  0.00  0.00    +0.000 OA
ATOM      8  C   UNL     1       1.721   2.097  19.837  0.00  0.00    +0.000 A 
ATOM      9  C   UNL     1       2.214   2.510  18.664  0.00  0.00    +0.000 A 
ATOM     10  C   UNL     1       2.764   3.853  18.554  0.00  0.00    +0.000 A 
ATOM     11  C   UNL     1       3.409   4.304  17.397  0.00  0.00    +0.000 A 
ENDROOT
BRANCH   1  12
ATOM     12  N   UNL     1       4.812   5.945  16.301  0.00  0.00    +0.000 N 
ATOM     13  H   UNL     1       4.361   6.385  15.504  0.00  0.00    +0.000 HD
BRANCH  12  14
ATOM     14  C   UNL     1       6.187   5.810  16.199  0.00  0.00    +0.000 C 
ATOM     15  S   UNL     1       6.814   4.348  15.708  0.00  0.00    +0.000 S 
BRANCH  14  19
ATOM     16  C   UNL     1       8.071   8.631  17.844  0.00  0.00    +0.000 C 
ATOM     17  C   UNL     1       7.590   7.199  17.806  0.00  0.00    +0.000 C 
ATOM     18  O   UNL     1       7.853   6.406  18.695  0.00  0.00    +0.000 OA
ATOM     19  N   UNL     1       6.893   6.931  16.629  0.00  0.00    +0.000 N 
ATOM     20  H   UNL     1       6.776   7.730  16.023  0.00  0.00    +0.000 HD
ENDBRANCH  14  19
ENDBRANCH  12  14
ENDBRANCH   1  12
TORSDOF 3
ENDMDL
MODEL 4
REMARK VINA RESULT:      -7.2      2.773      6.488
REMARK  Name = 
REMARK  4 active torsions:
REMARK  status: ('A' for Active; 'I' for Inactive)
REMARK    1  A    between atoms: C_1  and  C_2
REMARK    2  A    between atoms: N_4  and  C_5
REMARK    3  A    between atoms: C_5  and  N_7
REMARK    4  A    between atoms: N_7  and  C_8
REMARK                            x       y       z     vdW  Elec       q    Type
REMARK                         _______ _______ _______ _____ _____    ______ ____
ROOT
ATOM      1  C   UNL     1       4.362   5.214  17.299  0.00  0.00    +0.000 A 
ATOM      2  C   UNL     1       4.105   6.189  18.273  0.00  0.00    +0.000 A 
ATOM      3  C   UNL     1       3.351   5.882  19.399  0.00  0.00    +0.000 A 
ATOM      4  C   UNL     1       2.846   4.596  19.528  0.00  0.00    +0.000 A 
ATOM      5  O   UNL     1       2.185   4.294  20.733  0.00  0.00    +0.000 OA
ATOM      6  C   UNL     1       1.739   3.009  20.997  0.00  0.00    +0.000 A 
ATOM      7  O   UNL     1       1.256   2.692  22.078  0.00  0.00    +0.000 OA
ATOM      8  C   UNL     1       1.856   2.027  19.905  0.00  0.00    +0.000 A 
ATOM      9  C   UNL     1       2.446   2.311  18.739  0.00  0.00    +0.000 A 
ATOM     10  C   UNL     1       3.014   3.634  18.531  0.00  0.00    +0.000 A 
ATOM     11  C   UNL     1       3.754   3.959  17.388  0.00  0.00    +0.000 A 
ENDROOT
BRANCH   1  12
ATOM     12  N   UNL     1       5.253   5.474  16.239  0.00  0.00    +0.000 N 
ATOM     13  H   UNL     1       4.889   5.926  15.405  0.00  0.00    +0.000 HD
BRANCH  12  14
ATOM     14  C   UNL     1       6.612   5.204  16.217  0.00  0.00    +0.000 C 
ATOM     15  S   UNL     1       7.372   4.812  17.645  0.00  0.00    +0.000 S 
BRANCH  14  19
ATOM     16  C   UNL     1       8.008   5.256  12.715  0.00  0.00    +0.000 C 
ATOM     17  C   UNL     1       7.012   4.766  13.742  0.00  0.00    +0.000 C 
ATOM     18  O   UNL     1       6.141   3.961  13.462  0.00  0.00    +0.000 OA
ATOM     19  N   UNL     1       7.202   5.397  14.971  0.00  0.00    +0.000 N 
ATOM     20  H   UNL     1       7.989   6.029  14.998  0.00  0.00    +0.000 HD
ENDBRANCH  14  19
ENDBRANCH  12  14
ENDBRANCH   1  12
TORSDOF 3
ENDMDL
MODEL 5
REMARK VINA RESULT:      -7.1      1.817      2.340
REMARK  Name = 
REMARK  4 active torsions:
REMARK  status: ('A' for Active; 'I' for Inactive)
REMARK    1  A    between atoms: C_1  and  C_2
REMARK    2  A    between atoms: N_4  and  C_5
REMARK    3  A    between atoms: C_5  and  N_7
REMARK    4  A    between atoms: N_7  and  C_8
REMARK                            x       y       z     vdW  Elec       q    Type
REMARK                         _______ _______ _______ _____ _____    ______ ____
ROOT
ATOM      1  C   UNL     1       5.060   4.692  18.537  0.00  0.00    +0.000 A 
ATOM      2  C   UNL     1       6.220   5.455  18.737  0.00  0.00    +0.000 A 
ATOM      3  C   UNL     1       7.089   5.708  17.683  0.00  0.00    +0.000 A 
ATOM      4  C   UNL     1       6.793   5.177  16.435  0.00  0.00    +0.000 A 
ATOM      5  O   UNL     1       7.635   5.549  15.373  0.00  0.00    +0.000 OA
ATOM      6  C   UNL     1       7.359   5.153  14.073  0.00  0.00    +0.000 A 
ATOM      7  O   UNL     1       8.014   5.548  13.115  0.00  0.00    +0.000 OA
ATOM      8  C   UNL     1       6.241   4.213  13.888  0.00  0.00    +0.000 A 
ATOM      9  C   UNL     1       5.456   3.818  14.897  0.00  0.00    +0.000 A 
ATOM     10  C   UNL     1       5.693   4.341  16.233  0.00  0.00    +0.000 A 
ATOM     11  C   UNL     1       4.835   4.071  17.305  0.00  0.00    +0.000 A 
ENDROOT
BRANCH   1  12
ATOM     12  N   UNL     1       4.098   4.564  19.558  0.00  0.00    +0.000 N 
ATOM     13  H   UNL     1       4.346   4.034  20.388  0.00  0.00    +0.000 HD
BRANCH  12  14
ATOM     14  C   UNL     1       2.830   5.123  19.573  0.00  0.00    +0.000 C 
ATOM     15  S   UNL     1       1.609   4.313  20.362  0.00  0.00    +0.000 S 
BRANCH  14  19
ATOM     16  C   UNL     1       2.208   8.442  17.897  0.00  0.00    +0.000 C 
ATOM     17  C   UNL     1       2.239   7.557  19.122  0.00  0.00    +0.000 C 
ATOM     18  O   UNL     1       1.922   7.971  20.225  0.00  0.00    +0.000 OA
ATOM     19  N   UNL     1       2.721   6.286  18.815  0.00  0.00    +0.000 N 
ATOM     20  H   UNL     1       2.920   6.141  17.836  0.00  0.00    +0.000 HD
ENDBRANCH  14  19
ENDBRANCH  12  14
ENDBRANCH   1  12
TORSDOF 3
ENDMDL
MODEL 6
REMARK VINA RESULT:      -7.1      2.744      6.253
REMARK  Name = 
REMARK  4 active torsions:
REMARK  status: ('A' for Active; 'I' for Inactive)
REMARK    1  A    between atoms: C_1  and  C_2
REMARK    2  A    between atoms: N_4  and  C_5
REMARK    3  A    between atoms: C_5  and  N_7
REMARK    4  A    between atoms: N_7  and  C_8
REMARK                            x       y       z     vdW  Elec       q    Type
REMARK                         _______ _______ _______ _____ _____    ______ ____
ROOT
ATOM      1  C   UNL     1       3.632   6.142  17.684  0.00  0.00    +0.000 A 
ATOM      2  C   UNL     1       3.101   6.945  18.703  0.00  0.00    +0.000 A 
ATOM      3  C   UNL     1       2.427   6.373  19.775  0.00  0.00    +0.000 A 
ATOM      4  C   UNL     1       2.277   4.993  19.804  0.00  0.00    +0.000 A 
ATOM      5  O   UNL     1       1.689   4.445  20.959  0.00  0.00    +0.000 OA
ATOM      6  C   UNL     1       1.592   3.073  21.125  0.00  0.00    +0.000 A 
ATOM      7  O   UNL     1       1.182   2.566  22.163  0.00  0.00    +0.000 OA
ATOM      8  C   UNL     1       1.993   2.234  19.982  0.00  0.00    +0.000 A 
ATOM      9  C   UNL     1       2.515   2.745  18.861  0.00  0.00    +0.000 A 
ATOM     10  C   UNL     1       2.718   4.181  18.758  0.00  0.00    +0.000 A 
ATOM     11  C   UNL     1       3.374   4.768  17.670  0.00  0.00    +0.000 A 
ENDROOT
BRANCH   1  12
ATOM     12  N   UNL     1       4.449   6.699  16.681  0.00  0.00    +0.000 N 
ATOM     13  H   UNL     1       4.068   7.450  16.113  0.00  0.00    +0.000 HD
BRANCH  12  14
ATOM     14  C   UNL     1       5.759   6.351  16.395  0.00  0.00    +0.000 C 
ATOM     15  S   UNL     1       6.969   6.902  17.396  0.00  0.00    +0.000 S 
BRANCH  14  19
ATOM     16  C   UNL     1       6.308   4.020  13.483  0.00  0.00    +0.000 C 
ATOM     17  C   UNL     1       6.045   4.275  14.949  0.00  0.00    +0.000 C 
ATOM     18  O   UNL     1       5.928   3.365  15.752  0.00  0.00    +0.000 OA
ATOM     19  N   UNL     1       5.903   5.638  15.207  0.00  0.00    +0.000 N 
ATOM     20  H   UNL     1       6.047   6.232  14.403  0.00  0.00    +0.000 HD
ENDBRANCH  14  19
ENDBRANCH  12  14
ENDBRANCH   1  12
TORSDOF 3
ENDMDL
MODEL 7
REMARK VINA RESULT:      -7.1      3.051      6.648
REMARK  Name = 
REMARK  4 active torsions:
REMARK  status: ('A' for Active; 'I' for Inactive)
REMARK    1  A    between atoms: C_1  and  C_2
REMARK    2  A    between atoms: N_4  and  C_5
REMARK    3  A    between atoms: C_5  and  N_7
REMARK    4  A    between atoms: N_7  and  C_8
REMARK                            x       y       z     vdW  Elec       q    Type
REMARK                         _______ _______ _______ _____ _____    ______ ____
ROOT
ATOM      1  C   UNL     1       4.272   4.550  17.337  0.00  0.00    +0.000 A 
ATOM      2  C   UNL     1       5.115   3.644  17.995  0.00  0.00    +0.000 A 
ATOM      3  C   UNL     1       4.722   3.053  19.190  0.00  0.00    +0.000 A 
ATOM      4  C   UNL     1       3.487   3.393  19.724  0.00  0.00    +0.000 A 
ATOM      5  O   UNL     1       3.079   2.690  20.872  0.00  0.00    +0.000 OA
ATOM      6  C   UNL     1       1.819   2.885  21.416  0.00  0.00    +0.000 A 
ATOM      7  O   UNL     1       1.398   2.213  22.350  0.00  0.00    +0.000 OA
ATOM      8  C   UNL     1       1.000   3.959  20.827  0.00  0.00    +0.000 A 
ATOM      9  C   UNL     1       1.393   4.663  19.760  0.00  0.00    +0.000 A 
ATOM     10  C   UNL     1       2.670   4.358  19.134  0.00  0.00    +0.000 A 
ATOM     11  C   UNL     1       3.083   4.967  17.943  0.00  0.00    +0.000 A 
ENDROOT
BRANCH   1  12
ATOM     12  N   UNL     1       4.594   5.030  16.052  0.00  0.00    +0.000 N 
ATOM     13  H   UNL     1       3.834   5.228  15.409  0.00  0.00    +0.000 HD
BRANCH  12  14
ATOM     14  C   UNL     1       5.864   5.299  15.566  0.00  0.00    +0.000 C 
ATOM     15  S   UNL     1       6.545   4.240  14.478  0.00  0.00    +0.000 S 
BRANCH  14  19
ATOM     16  C   UNL     1       7.601   7.998  17.544  0.00  0.00    +0.000 C 
ATOM     17  C   UNL     1       7.359   6.544  17.207  0.00  0.00    +0.000 C 
ATOM     18  O   UNL     1       7.943   5.643  17.784  0.00  0.00    +0.000 OA
ATOM     19  N   UNL     1       6.461   6.414  16.148  0.00  0.00    +0.000 N 
ATOM     20  H   UNL     1       6.082   7.288  15.814  0.00  0.00    +0.000 HD
ENDBRANCH  14  19
ENDBRANCH  12  14
ENDBRANCH   1  12
TORSDOF 3
ENDMDL
MODEL 8
REMARK VINA RESULT:      -7.0      1.398      1.493
REMARK  Name = 
REMARK  4 active torsions:
REMARK  status: ('A' for Active; 'I' for Inactive)
REMARK    1  A    between atoms: C_1  and  C_2
REMARK    2  A    between atoms: N_4  and  C_5
REMARK    3  A    between atoms: C_5  and  N_7
REMARK    4  A    between atoms: N_7  and  C_8
REMARK                            x       y       z     vdW  Elec       q    Type
REMARK                         _______ _______ _______ _____ _____    ______ ____
ROOT
ATOM      1  C   UNL     1       5.175   4.035  17.439  0.00  0.00    +0.000 A 
ATOM      2  C   UNL     1       6.251   4.835  17.850  0.00  0.00    +0.000 A 
ATOM      3  C   UNL     1       7.167   5.316  16.923  0.00  0.00    +0.000 A 
ATOM      4  C   UNL     1       7.004   4.973  15.588  0.00  0.00    +0.000 A 
ATOM      5  O   UNL     1       7.885   5.571  14.669  0.00  0.00    +0.000 OA
ATOM      6  C   UNL     1       7.734   5.371  13.306  0.00  0.00    +0.000 A 
ATOM      7  O   UNL     1       8.418   5.961  12.478  0.00  0.00    +0.000 OA
ATOM      8  C   UNL     1       6.713   4.396  12.886  0.00  0.00    +0.000 A 
ATOM      9  C   UNL     1       5.895   3.789  13.752  0.00  0.00    +0.000 A 
ATOM     10  C   UNL     1       5.994   4.106  15.169  0.00  0.00    +0.000 A 
ATOM     11  C   UNL     1       5.089   3.605  16.112  0.00  0.00    +0.000 A 
ENDROOT
BRANCH   1  12
ATOM     12  N   UNL     1       4.158   3.676  18.346  0.00  0.00    +0.000 N 
ATOM     13  H   UNL     1       4.115   2.711  18.662  0.00  0.00    +0.000 HD
BRANCH  12  14
ATOM     14  C   UNL     1       3.206   4.519  18.896  0.00  0.00    +0.000 C 
ATOM     15  S   UNL     1       2.991   6.027  18.225  0.00  0.00    +0.000 S 
BRANCH  14  19
ATOM     16  C   UNL     1       1.319   2.800  21.669  0.00  0.00    +0.000 C 
ATOM     17  C   UNL     1       1.910   2.820  20.278  0.00  0.00    +0.000 C 
ATOM     18  O   UNL     1       1.813   1.869  19.522  0.00  0.00    +0.000 OA
ATOM     19  N   UNL     1       2.599   4.009  20.040  0.00  0.00    +0.000 N 
ATOM     20  H   UNL     1       2.552   4.677  20.796  0.00  0.00    +0.000 HD
ENDBRANCH  14  19
ENDBRANCH  12  14
ENDBRANCH   1  12
TORSDOF 3
ENDMDL
MODEL 9
REMARK VINA RESULT:      -7.0      2.378      5.916
REMARK  Name = 
REMARK  4 active torsions:
REMARK  status: ('A' for Active; 'I' for Inactive)
REMARK    1  A    between atoms: C_1  and  C_2
REMARK    2  A    between atoms: N_4  and  C_5
REMARK    3  A    between atoms: C_5  and  N_7
REMARK    4  A    between atoms: N_7  and  C_8
REMARK                            x       y       z     vdW  Elec       q    Type
REMARK                         _______ _______ _______ _____ _____    ______ ____
ROOT
ATOM      1  C   UNL     1       5.182   5.610  18.192  0.00  0.00    +0.000 A 
ATOM      2  C   UNL     1       4.043   6.410  18.020  0.00  0.00    +0.000 A 
ATOM      3  C   UNL     1       2.773   5.847  18.051  0.00  0.00    +0.000 A 
ATOM      4  C   UNL     1       2.659   4.477  18.238  0.00  0.00    +0.000 A 
ATOM      5  O   UNL     1       1.357   3.963  18.376  0.00  0.00    +0.000 OA
ATOM      6  C   UNL     1       1.147   2.625  18.670  0.00  0.00    +0.000 A 
ATOM      7  O   UNL     1       0.032   2.172  18.899  0.00  0.00    +0.000 OA
ATOM      8  C   UNL     1       2.334   1.752  18.681  0.00  0.00    +0.000 A 
ATOM      9  C   UNL     1       3.575   2.221  18.511  0.00  0.00    +0.000 A 
ATOM     10  C   UNL     1       3.779   3.649  18.323  0.00  0.00    +0.000 A 
ATOM     11  C   UNL     1       5.056   4.220  18.266  0.00  0.00    +0.000 A 
ENDROOT
BRANCH   1  12
ATOM     12  N   UNL     1       6.457   6.194  18.319  0.00  0.00    +0.000 N 
ATOM     13  H   UNL     1       6.944   6.098  19.205  0.00  0.00    +0.000 HD
BRANCH  12  14
ATOM     14  C   UNL     1       7.156   6.874  17.334  0.00  0.00    +0.000 C 
ATOM     15  S   UNL     1       7.899   8.311  17.728  0.00  0.00    +0.000 S 
BRANCH  14  19
ATOM     16  C   UNL     1       7.233   4.930  14.105  0.00  0.00    +0.000 C 
ATOM     17  C   UNL     1       7.417   5.027  15.602  0.00  0.00    +0.000 C 
ATOM     18  O   UNL     1       7.781   4.074  16.270  0.00  0.00    +0.000 OA
ATOM     19  N   UNL     1       7.060   6.290  16.074  0.00  0.00    +0.000 N 
ATOM     20  H   UNL     1       6.791   6.944  15.353  0.00  0.00    +0.000 HD
ENDBRANCH  14  19
ENDBRANCH  12  14
ENDBRANCH   1  12
TORSDOF 3
ENDMDL
