MODEL 1
REMARK VINA RESULT:      -8.2      0.000      0.000
REMARK  Name = 
REMARK  4 active torsions:
REMARK  status: ('A' for Active; 'I' for Inactive)
REMARK    1  A    between atoms: C_5  and  C_6
REMARK    2  A    between atoms: C_6  and  N_7
REMARK    3  A    between atoms: N_14  and  C_15
REMARK    4  A    between atoms: C_18  and  C_19
REMARK                            x       y       z     vdW  Elec       q    Type
REMARK                         _______ _______ _______ _____ _____    ______ ____
ROOT
ATOM      1  N   UNL     1       2.523   7.139  19.069  0.00  0.00    +0.000 N 
ATOM      2  N   UNL     1       2.348   6.600  20.301  0.00  0.00    +0.000 NA
ATOM      3  N   UNL     1       1.514   7.384  20.980  0.00  0.00    +0.000 NA
ATOM      4  C   UNL     1       1.206   8.441  20.183  0.00  0.00    +0.000 A 
ATOM      5  C   UNL     1       1.868   8.331  18.981  0.00  0.00    +0.000 A 
ATOM      6  C   UNL     1       1.780   9.317  17.878  0.00  0.00    +0.000 C 
ATOM      7  C   UNL     1       1.220  10.662  18.430  0.00  0.00    +0.000 C 
ATOM      8  N   UNL     1       0.070  10.487  19.352  0.00  0.00    +0.000 N 
ATOM      9  C   UNL     1       0.293   9.574  20.512  0.00  0.00    +0.000 C 
ENDROOT
BRANCH   8  10
ATOM     10  C   UNL     1      -1.221  10.854  19.015  0.00  0.00    +0.000 A 
ATOM     11  C   UNL     1      -1.920  11.860  19.694  0.00  0.00    +0.000 A 
ATOM     12  C   UNL     1      -3.226  12.225  19.337  0.00  0.00    +0.000 A 
ATOM     13  C   UNL     1      -3.885  11.581  18.285  0.00  0.00    +0.000 A 
ATOM     14  C   UNL     1      -3.208  10.563  17.604  0.00  0.00    +0.000 A 
ATOM     15  C   UNL     1      -1.899  10.214  17.965  0.00  0.00    +0.000 A 
BRANCH  13  16
ATOM     16  C   UNL     1      -5.286  11.966  17.881  0.00  0.00    +0.000 C 
ATOM     17  F   UNL     1      -5.356  12.567  16.660  0.00  0.00    +0.000 F 
ATOM     18  F   UNL     1      -6.122  10.892  17.814  0.00  0.00    +0.000 F 
ATOM     19  F   UNL     1      -5.864  12.834  18.757  0.00  0.00    +0.000 F 
ENDBRANCH  13  16
ENDBRANCH   8  10
BRANCH   1  20
ATOM     20  C   UNL     1       3.370   6.469  18.098  0.00  0.00    +0.000 C 
BRANCH  20  25
ATOM     21  F   UNL     1       3.633   0.826  18.419  0.00  0.00    +0.000 F 
ATOM     22  C   UNL     1       3.570   2.162  18.367  0.00  0.00    +0.000 A 
ATOM     23  C   UNL     1       2.546   2.773  17.654  0.00  0.00    +0.000 A 
ATOM     24  C   UNL     1       2.481   4.167  17.595  0.00  0.00    +0.000 A 
ATOM     25  C   UNL     1       3.436   4.963  18.257  0.00  0.00    +0.000 A 
ATOM     26  C   UNL     1       4.473   4.316  18.953  0.00  0.00    +0.000 A 
ATOM     27  C   UNL     1       4.533   2.921  19.016  0.00  0.00    +0.000 A 
ENDBRANCH  20  25
ENDBRANCH   1  20
TORSDOF 4
ENDMDL
MODEL 2
REMARK VINA RESULT:      -8.2      0.130      1.188
REMARK  Name = 
REMARK  4 active torsions:
REMARK  status: ('A' for Active; 'I' for Inactive)
REMARK    1  A    between atoms: C_5  and  C_6
REMARK    2  A    between atoms: C_6  and  N_7
REMARK    3  A    between atoms: N_14  and  C_15
REMARK    4  A    between atoms: C_18  and  C_19
REMARK                            x       y       z     vdW  Elec       q    Type
REMARK                         _______ _______ _______ _____ _____    ______ ____
ROOT
ATOM      1  N   UNL     1       2.526   7.210  18.988  0.00  0.00    +0.000 N 
ATOM      2  N   UNL     1       2.360   6.641  20.207  0.00  0.00    +0.000 NA
ATOM      3  N   UNL     1       1.517   7.397  20.906  0.00  0.00    +0.000 NA
ATOM      4  C   UNL     1       1.194   8.469  20.134  0.00  0.00    +0.000 A 
ATOM      5  C   UNL     1       1.855   8.395  18.929  0.00  0.00    +0.000 A 
ATOM      6  C   UNL     1       1.753   9.406  17.849  0.00  0.00    +0.000 C 
ATOM      7  C   UNL     1       1.175  10.729  18.434  0.00  0.00    +0.000 C 
ATOM      8  N   UNL     1       0.030  10.518  19.353  0.00  0.00    +0.000 N 
ATOM      9  C   UNL     1       0.267   9.581  20.491  0.00  0.00    +0.000 C 
ENDROOT
BRANCH   8  10
ATOM     10  C   UNL     1      -1.266  10.876  19.027  0.00  0.00    +0.000 A 
ATOM     11  C   UNL     1      -1.961  11.888  19.702  0.00  0.00    +0.000 A 
ATOM     12  C   UNL     1      -3.273  12.243  19.355  0.00  0.00    +0.000 A 
ATOM     13  C   UNL     1      -3.942  11.583  18.319  0.00  0.00    +0.000 A 
ATOM     14  C   UNL     1      -3.269  10.559  17.643  0.00  0.00    +0.000 A 
ATOM     15  C   UNL     1      -1.955  10.220  17.993  0.00  0.00    +0.000 A 
BRANCH  13  16
ATOM     16  C   UNL     1      -5.349  11.957  17.928  0.00  0.00    +0.000 C 
ATOM     17  F   UNL     1      -5.957  12.794  18.815  0.00  0.00    +0.000 F 
ATOM     18  F   UNL     1      -5.403  12.591  16.724  0.00  0.00    +0.000 F 
ATOM     19  F   UNL     1      -6.168  10.875  17.817  0.00  0.00    +0.000 F 
ENDBRANCH  13  16
ENDBRANCH   8  10
BRANCH   1  20
ATOM     20  C   UNL     1       3.380   6.574  18.000  0.00  0.00    +0.000 C 
BRANCH  20  25
ATOM     21  F   UNL     1       3.418   0.939  18.506  0.00  0.00    +0.000 F 
ATOM     22  C   UNL     1       3.408   2.270  18.362  0.00  0.00    +0.000 A 
ATOM     23  C   UNL     1       4.450   3.024  18.888  0.00  0.00    +0.000 A 
ATOM     24  C   UNL     1       4.439   4.413  18.742  0.00  0.00    +0.000 A 
ATOM     25  C   UNL     1       3.389   5.059  18.062  0.00  0.00    +0.000 A 
ATOM     26  C   UNL     1       2.337   4.272  17.559  0.00  0.00    +0.000 A 
ATOM     27  C   UNL     1       2.353   2.881  17.700  0.00  0.00    +0.000 A 
ENDBRANCH  20  25
ENDBRANCH   1  20
TORSDOF 4
ENDMDL
MODEL 3
REMARK VINA RESULT:      -8.2      0.079      1.174
REMARK  Name = 
REMARK  4 active torsions:
REMARK  status: ('A' for Active; 'I' for Inactive)
REMARK    1  A    between atoms: C_5  and  C_6
REMARK    2  A    between atoms: C_6  and  N_7
REMARK    3  A    between atoms: N_14  and  C_15
REMARK    4  A    between atoms: C_18  and  C_19
REMARK                            x       y       z     vdW  Elec       q    Type
REMARK                         _______ _______ _______ _____ _____    ______ ____
ROOT
ATOM      1  N   UNL     1       2.529   7.180  19.099  0.00  0.00    +0.000 N 
ATOM      2  N   UNL     1       2.331   6.651  20.332  0.00  0.00    +0.000 NA
ATOM      3  N   UNL     1       1.471   7.430  20.983  0.00  0.00    +0.000 NA
ATOM      4  C   UNL     1       1.169   8.476  20.169  0.00  0.00    +0.000 A 
ATOM      5  C   UNL     1       1.861   8.363  18.984  0.00  0.00    +0.000 A 
ATOM      6  C   UNL     1       1.788   9.337  17.869  0.00  0.00    +0.000 C 
ATOM      7  C   UNL     1       1.198  10.679  18.395  0.00  0.00    +0.000 C 
ATOM      8  N   UNL     1       0.028  10.498  19.290  0.00  0.00    +0.000 N 
ATOM      9  C   UNL     1       0.234   9.599  20.463  0.00  0.00    +0.000 C 
ENDROOT
BRANCH   8  10
ATOM     10  C   UNL     1      -1.259  10.846  18.918  0.00  0.00    +0.000 A 
ATOM     11  C   UNL     1      -1.907  10.271  17.818  0.00  0.00    +0.000 A 
ATOM     12  C   UNL     1      -3.214  10.630  17.458  0.00  0.00    +0.000 A 
ATOM     13  C   UNL     1      -3.917  11.593  18.189  0.00  0.00    +0.000 A 
ATOM     14  C   UNL     1      -3.281  12.188  19.283  0.00  0.00    +0.000 A 
ATOM     15  C   UNL     1      -1.978  11.814  19.638  0.00  0.00    +0.000 A 
BRANCH  13  16
ATOM     16  C   UNL     1      -5.326  11.985  17.822  0.00  0.00    +0.000 C 
ATOM     17  F   UNL     1      -6.186  10.929  17.754  0.00  0.00    +0.000 F 
ATOM     18  F   UNL     1      -5.876  12.852  18.716  0.00  0.00    +0.000 F 
ATOM     19  F   UNL     1      -5.400  12.603  16.610  0.00  0.00    +0.000 F 
ENDBRANCH  13  16
ENDBRANCH   8  10
BRANCH   1  20
ATOM     20  C   UNL     1       3.408   6.512  18.155  0.00  0.00    +0.000 C 
BRANCH  20  25
ATOM     21  F   UNL     1       3.592   0.862  18.417  0.00  0.00    +0.000 F 
ATOM     22  C   UNL     1       3.547   2.200  18.380  0.00  0.00    +0.000 A 
ATOM     23  C   UNL     1       2.550   2.832  17.646  0.00  0.00    +0.000 A 
ATOM     24  C   UNL     1       2.505   4.227  17.602  0.00  0.00    +0.000 A 
ATOM     25  C   UNL     1       3.450   5.003  18.299  0.00  0.00    +0.000 A 
ATOM     26  C   UNL     1       4.460   4.335  19.015  0.00  0.00    +0.000 A 
ATOM     27  C   UNL     1       4.501   2.939  19.064  0.00  0.00    +0.000 A 
ENDBRANCH  20  25
ENDBRANCH   1  20
TORSDOF 4
ENDMDL
MODEL 4
REMARK VINA RESULT:      -8.1      1.563      2.011
REMARK  Name = 
REMARK  4 active torsions:
REMARK  status: ('A' for Active; 'I' for Inactive)
REMARK    1  A    between atoms: C_5  and  C_6
REMARK    2  A    between atoms: C_6  and  N_7
REMARK    3  A    between atoms: N_14  and  C_15
REMARK    4  A    between atoms: C_18  and  C_19
REMARK                            x       y       z     vdW  Elec       q    Type
REMARK                         _______ _______ _______ _____ _____    ______ ____
ROOT
ATOM      1  N   UNL     1       1.780   8.099  20.183  0.00  0.00    +0.000 N 
ATOM      2  N   UNL     1       1.697   8.034  21.535  0.00  0.00    +0.000 NA
ATOM      3  N   UNL     1       0.848   8.975  21.942  0.00  0.00    +0.000 NA
ATOM      4  C   UNL     1       0.438   9.660  20.842  0.00  0.00    +0.000 A 
ATOM      5  C   UNL     1       1.048   9.151  19.718  0.00  0.00    +0.000 A 
ATOM      6  C   UNL     1       0.849   9.668  18.343  0.00  0.00    +0.000 C 
ATOM      7  C   UNL     1       0.231  11.096  18.413  0.00  0.00    +0.000 C 
ATOM      8  N   UNL     1      -0.861  11.218  19.410  0.00  0.00    +0.000 N 
ATOM      9  C   UNL     1      -0.528  10.795  20.802  0.00  0.00    +0.000 C 
ENDROOT
BRANCH   8  10
ATOM     10  C   UNL     1      -2.187  11.385  19.050  0.00  0.00    +0.000 A 
ATOM     11  C   UNL     1      -2.754  10.742  17.942  0.00  0.00    +0.000 A 
ATOM     12  C   UNL     1      -4.101  10.917  17.594  0.00  0.00    +0.000 A 
ATOM     13  C   UNL     1      -4.929  11.758  18.344  0.00  0.00    +0.000 A 
ATOM     14  C   UNL     1      -4.377  12.420  19.446  0.00  0.00    +0.000 A 
ATOM     15  C   UNL     1      -3.031  12.229  19.789  0.00  0.00    +0.000 A 
BRANCH  13  16
ATOM     16  C   UNL     1      -6.382  11.952  17.989  0.00  0.00    +0.000 C 
ATOM     17  F   UNL     1      -6.575  12.450  16.736  0.00  0.00    +0.000 F 
ATOM     18  F   UNL     1      -7.089  10.789  18.038  0.00  0.00    +0.000 F 
ATOM     19  F   UNL     1      -7.018  12.811  18.833  0.00  0.00    +0.000 F 
ENDBRANCH  13  16
ENDBRANCH   8  10
BRANCH   1  20
ATOM     20  C   UNL     1       2.622   7.159  19.462  0.00  0.00    +0.000 C 
BRANCH  20  25
ATOM     21  F   UNL     1       0.621   1.914  18.756  0.00  0.00    +0.000 F 
ATOM     22  C   UNL     1       1.073   3.162  18.933  0.00  0.00    +0.000 A 
ATOM     23  C   UNL     1       1.552   3.877  17.843  0.00  0.00    +0.000 A 
ATOM     24  C   UNL     1       2.028   5.178  18.026  0.00  0.00    +0.000 A 
ATOM     25  C   UNL     1       2.021   5.777  19.300  0.00  0.00    +0.000 A 
ATOM     26  C   UNL     1       1.550   5.020  20.388  0.00  0.00    +0.000 A 
ATOM     27  C   UNL     1       1.068   3.721  20.202  0.00  0.00    +0.000 A 
ENDBRANCH  20  25
ENDBRANCH   1  20
TORSDOF 4
ENDMDL
MODEL 5
REMARK VINA RESULT:      -8.0      1.539      1.895
REMARK  Name = 
REMARK  4 active torsions:
REMARK  status: ('A' for Active; 'I' for Inactive)
REMARK    1  A    between atoms: C_5  and  C_6
REMARK    2  A    between atoms: C_6  and  N_7
REMARK    3  A    between atoms: N_14  and  C_15
REMARK    4  A    between atoms: C_18  and  C_19
REMARK                            x       y       z     vdW  Elec       q    Type
REMARK                         _______ _______ _______ _____ _____    ______ ____
ROOT
ATOM      1  N   UNL     1       1.799   8.022  20.189  0.00  0.00    +0.000 N 
ATOM      2  N   UNL     1       1.722   7.936  21.540  0.00  0.00    +0.000 NA
ATOM      3  N   UNL     1       0.894   8.885  21.968  0.00  0.00    +0.000 NA
ATOM      4  C   UNL     1       0.491   9.597  20.882  0.00  0.00    +0.000 A 
ATOM      5  C   UNL     1       1.085   9.096  19.746  0.00  0.00    +0.000 A 
ATOM      6  C   UNL     1       0.888   9.640  18.381  0.00  0.00    +0.000 C 
ATOM      7  C   UNL     1       0.298  11.078  18.480  0.00  0.00    +0.000 C 
ATOM      8  N   UNL     1      -0.786  11.204  19.485  0.00  0.00    +0.000 N 
ATOM      9  C   UNL     1      -0.453  10.751  20.868  0.00  0.00    +0.000 C 
ENDROOT
BRANCH   8  10
ATOM     10  C   UNL     1      -2.110  11.403  19.136  0.00  0.00    +0.000 A 
ATOM     11  C   UNL     1      -2.966  12.233  19.870  0.00  0.00    +0.000 A 
ATOM     12  C   UNL     1      -4.305  12.429  19.500  0.00  0.00    +0.000 A 
ATOM     13  C   UNL     1      -4.837  11.785  18.378  0.00  0.00    +0.000 A 
ATOM     14  C   UNL     1      -4.001  10.940  17.641  0.00  0.00    +0.000 A 
ATOM     15  C   UNL     1      -2.662  10.760  18.016  0.00  0.00    +0.000 A 
BRANCH  13  16
ATOM     16  C   UNL     1      -6.271  11.990  17.960  0.00  0.00    +0.000 C 
ATOM     17  F   UNL     1      -6.955  12.853  18.764  0.00  0.00    +0.000 F 
ATOM     18  F   UNL     1      -6.379  12.494  16.700  0.00  0.00    +0.000 F 
ATOM     19  F   UNL     1      -6.989  10.833  17.961  0.00  0.00    +0.000 F 
ENDBRANCH  13  16
ENDBRANCH   8  10
BRANCH   1  20
ATOM     20  C   UNL     1       2.618   7.079  19.447  0.00  0.00    +0.000 C 
BRANCH  20  25
ATOM     21  F   UNL     1       0.569   1.847  18.780  0.00  0.00    +0.000 F 
ATOM     22  C   UNL     1       1.033   3.092  18.947  0.00  0.00    +0.000 A 
ATOM     23  C   UNL     1       1.518   3.796  17.851  0.00  0.00    +0.000 A 
ATOM     24  C   UNL     1       2.005   5.093  18.025  0.00  0.00    +0.000 A 
ATOM     25  C   UNL     1       2.005   5.701  19.295  0.00  0.00    +0.000 A 
ATOM     26  C   UNL     1       1.528   4.956  20.389  0.00  0.00    +0.000 A 
ATOM     27  C   UNL     1       1.034   3.660  20.212  0.00  0.00    +0.000 A 
ENDBRANCH  20  25
ENDBRANCH   1  20
TORSDOF 4
ENDMDL
MODEL 6
REMARK VINA RESULT:      -7.9      0.595      1.423
REMARK  Name = 
REMARK  4 active torsions:
REMARK  status: ('A' for Active; 'I' for Inactive)
REMARK    1  A    between atoms: C_5  and  C_6
REMARK    2  A    between atoms: C_6  and  N_7
REMARK    3  A    between atoms: N_14  and  C_15
REMARK    4  A    between atoms: C_18  and  C_19
REMARK                            x       y       z     vdW  Elec       q    Type
REMARK                         _______ _______ _______ _____ _____    ______ ____
ROOT
ATOM      1  N   UNL     1       2.356   7.573  19.172  0.00  0.00    +0.000 N 
ATOM      2  N   UNL     1       2.214   7.014  20.399  0.00  0.00    +0.000 NA
ATOM      3  N   UNL     1       1.346   7.748  21.090  0.00  0.00    +0.000 NA
ATOM      4  C   UNL     1       0.983   8.798  20.306  0.00  0.00    +0.000 A 
ATOM      5  C   UNL     1       1.643   8.733  19.100  0.00  0.00    +0.000 A 
ATOM      6  C   UNL     1       1.501   9.724  18.007  0.00  0.00    +0.000 C 
ATOM      7  C   UNL     1       0.878  11.034  18.576  0.00  0.00    +0.000 C 
ATOM      8  N   UNL     1      -0.257  10.793  19.501  0.00  0.00    +0.000 N 
ATOM      9  C   UNL     1       0.017   9.881  20.651  0.00  0.00    +0.000 C 
ENDROOT
BRANCH   8  10
ATOM     10  C   UNL     1      -1.565  11.100  19.175  0.00  0.00    +0.000 A 
ATOM     11  C   UNL     1      -2.277  10.410  18.186  0.00  0.00    +0.000 A 
ATOM     12  C   UNL     1      -3.607  10.729  17.871  0.00  0.00    +0.000 A 
ATOM     13  C   UNL     1      -4.268  11.767  18.535  0.00  0.00    +0.000 A 
ATOM     14  C   UNL     1      -3.568  12.477  19.516  0.00  0.00    +0.000 A 
ATOM     15  C   UNL     1      -2.244  12.142  19.828  0.00  0.00    +0.000 A 
BRANCH  13  16
ATOM     16  C   UNL     1      -5.699  12.119  18.215  0.00  0.00    +0.000 C 
ATOM     17  F   UNL     1      -5.823  13.132  17.312  0.00  0.00    +0.000 F 
ATOM     18  F   UNL     1      -6.388  11.068  17.689  0.00  0.00    +0.000 F 
ATOM     19  F   UNL     1      -6.401  12.513  19.314  0.00  0.00    +0.000 F 
ENDBRANCH  13  16
ENDBRANCH   8  10
BRANCH   1  20
ATOM     20  C   UNL     1       3.230   6.956  18.189  0.00  0.00    +0.000 C 
BRANCH  20  25
ATOM     21  F   UNL     1       2.961   1.304  18.256  0.00  0.00    +0.000 F 
ATOM     22  C   UNL     1       3.019   2.641  18.216  0.00  0.00    +0.000 A 
ATOM     23  C   UNL     1       4.197   3.287  18.568  0.00  0.00    +0.000 A 
ATOM     24  C   UNL     1       4.258   4.682  18.532  0.00  0.00    +0.000 A 
ATOM     25  C   UNL     1       3.142   5.443  18.135  0.00  0.00    +0.000 A 
ATOM     26  C   UNL     1       1.956   4.762  17.806  0.00  0.00    +0.000 A 
ATOM     27  C   UNL     1       1.899   3.366  17.836  0.00  0.00    +0.000 A 
ENDBRANCH  20  25
ENDBRANCH   1  20
TORSDOF 4
ENDMDL
MODEL 7
REMARK VINA RESULT:      -7.9      2.015      2.608
REMARK  Name = 
REMARK  4 active torsions:
REMARK  status: ('A' for Active; 'I' for Inactive)
REMARK    1  A    between atoms: C_5  and  C_6
REMARK    2  A    between atoms: C_6  and  N_7
REMARK    3  A    between atoms: N_14  and  C_15
REMARK    4  A    between atoms: C_18  and  C_19
REMARK                            x       y       z     vdW  Elec       q    Type
REMARK                         _______ _______ _______ _____ _____    ______ ____
ROOT
ATOM      1  N   UNL     1       2.516   6.575  19.028  0.00  0.00    +0.000 N 
ATOM      2  N   UNL     1       2.340   6.125  20.295  0.00  0.00    +0.000 NA
ATOM      3  N   UNL     1       1.585   7.007  20.945  0.00  0.00    +0.000 NA
ATOM      4  C   UNL     1       1.331   8.035  20.092  0.00  0.00    +0.000 A 
ATOM      5  C   UNL     1       1.946   7.804  18.883  0.00  0.00    +0.000 A 
ATOM      6  C   UNL     1       1.897   8.726  17.722  0.00  0.00    +0.000 C 
ATOM      7  C   UNL     1       1.451  10.138  18.204  0.00  0.00    +0.000 C 
ATOM      8  N   UNL     1       0.319  10.104  19.164  0.00  0.00    +0.000 N 
ATOM      9  C   UNL     1       0.511   9.249  20.372  0.00  0.00    +0.000 C 
ENDROOT
BRANCH   8  10
ATOM     10  C   UNL     1      -0.951  10.544  18.838  0.00  0.00    +0.000 A 
ATOM     11  C   UNL     1      -1.616  11.536  19.570  0.00  0.00    +0.000 A 
ATOM     12  C   UNL     1      -2.902  11.976  19.223  0.00  0.00    +0.000 A 
ATOM     13  C   UNL     1      -3.574  11.423  18.128  0.00  0.00    +0.000 A 
ATOM     14  C   UNL     1      -2.932  10.421  17.393  0.00  0.00    +0.000 A 
ATOM     15  C   UNL     1      -1.643   9.997  17.745  0.00  0.00    +0.000 A 
BRANCH  13  16
ATOM     16  C   UNL     1      -4.954  11.889  17.735  0.00  0.00    +0.000 C 
ATOM     17  F   UNL     1      -5.450  12.866  18.546  0.00  0.00    +0.000 F 
ATOM     18  F   UNL     1      -4.991  12.401  16.474  0.00  0.00    +0.000 F 
ATOM     19  F   UNL     1      -5.873  10.885  17.757  0.00  0.00    +0.000 F 
ENDBRANCH  13  16
ENDBRANCH   8  10
BRANCH   1  20
ATOM     20  C   UNL     1       3.285   5.787  18.079  0.00  0.00    +0.000 C 
BRANCH  20  25
ATOM     21  F   UNL     1       8.853   6.658  18.582  0.00  0.00    +0.000 F 
ATOM     22  C   UNL     1       7.540   6.428  18.460  0.00  0.00    +0.000 A 
ATOM     23  C   UNL     1       6.819   7.082  17.468  0.00  0.00    +0.000 A 
ATOM     24  C   UNL     1       5.447   6.846  17.342  0.00  0.00    +0.000 A 
ATOM     25  C   UNL     1       4.787   5.948  18.202  0.00  0.00    +0.000 A 
ATOM     26  C   UNL     1       5.539   5.318  19.210  0.00  0.00    +0.000 A 
ATOM     27  C   UNL     1       6.912   5.549  19.331  0.00  0.00    +0.000 A 
ENDBRANCH  20  25
ENDBRANCH   1  20
TORSDOF 4
ENDMDL
MODEL 8
REMARK VINA RESULT:      -7.9      1.610      2.279
REMARK  Name = 
REMARK  4 active torsions:
REMARK  status: ('A' for Active; 'I' for Inactive)
REMARK    1  A    between atoms: C_5  and  C_6
REMARK    2  A    between atoms: C_6  and  N_7
REMARK    3  A    between atoms: N_14  and  C_15
REMARK    4  A    between atoms: C_18  and  C_19
REMARK                            x       y       z     vdW  Elec       q    Type
REMARK                         _______ _______ _______ _____ _____    ______ ____
ROOT
ATOM      1  N   UNL     1       1.738   8.197  20.149  0.00  0.00    +0.000 N 
ATOM      2  N   UNL     1       1.615   8.043  21.491  0.00  0.00    +0.000 NA
ATOM      3  N   UNL     1       0.740   8.944  21.932  0.00  0.00    +0.000 NA
ATOM      4  C   UNL     1       0.354   9.694  20.866  0.00  0.00    +0.000 A 
ATOM      5  C   UNL     1       1.005   9.267  19.731  0.00  0.00    +0.000 A 
ATOM      6  C   UNL     1       0.839   9.870  18.387  0.00  0.00    +0.000 C 
ATOM      7  C   UNL     1       0.199  11.283  18.531  0.00  0.00    +0.000 C 
ATOM      8  N   UNL     1      -0.925  11.326  19.499  0.00  0.00    +0.000 N 
ATOM      9  C   UNL     1      -0.627  10.817  20.870  0.00  0.00    +0.000 C 
ENDROOT
BRANCH   8  10
ATOM     10  C   UNL     1      -2.241  11.499  19.109  0.00  0.00    +0.000 A 
ATOM     11  C   UNL     1      -2.758  10.944  17.932  0.00  0.00    +0.000 A 
ATOM     12  C   UNL     1      -4.097  11.124  17.554  0.00  0.00    +0.000 A 
ATOM     13  C   UNL     1      -4.966  11.882  18.345  0.00  0.00    +0.000 A 
ATOM     14  C   UNL     1      -4.464  12.457  19.517  0.00  0.00    +0.000 A 
ATOM     15  C   UNL     1      -3.126  12.261  19.889  0.00  0.00    +0.000 A 
BRANCH  13  16
ATOM     16  C   UNL     1      -6.411  12.079  17.959  0.00  0.00    +0.000 C 
ATOM     17  F   UNL     1      -7.155  10.940  18.034  0.00  0.00    +0.000 F 
ATOM     18  F   UNL     1      -7.043  12.987  18.753  0.00  0.00    +0.000 F 
ATOM     19  F   UNL     1      -6.555  12.535  16.683  0.00  0.00    +0.000 F 
ENDBRANCH  13  16
ENDBRANCH   8  10
BRANCH   1  20
ATOM     20  C   UNL     1       2.615   7.317  19.396  0.00  0.00    +0.000 C 
BRANCH  20  25
ATOM     21  F   UNL     1       0.468   2.100  18.960  0.00  0.00    +0.000 F 
ATOM     22  C   UNL     1       0.997   3.326  19.054  0.00  0.00    +0.000 A 
ATOM     23  C   UNL     1       1.028   3.966  20.287  0.00  0.00    +0.000 A 
ATOM     24  C   UNL     1       1.576   5.248  20.386  0.00  0.00    +0.000 A 
ATOM     25  C   UNL     1       2.105   5.896  19.254  0.00  0.00    +0.000 A 
ATOM     26  C   UNL     1       2.039   5.232  18.015  0.00  0.00    +0.000 A 
ATOM     27  C   UNL     1       1.497   3.947  17.919  0.00  0.00    +0.000 A 
ENDBRANCH  20  25
ENDBRANCH   1  20
TORSDOF 4
ENDMDL
MODEL 9
REMARK VINA RESULT:      -7.8      1.616      1.963
REMARK  Name = 
REMARK  4 active torsions:
REMARK  status: ('A' for Active; 'I' for Inactive)
REMARK    1  A    between atoms: C_5  and  C_6
REMARK    2  A    between atoms: C_6  and  N_7
REMARK    3  A    between atoms: N_14  and  C_15
REMARK    4  A    between atoms: C_18  and  C_19
REMARK                            x       y       z     vdW  Elec       q    Type
REMARK                         _______ _______ _______ _____ _____    ______ ____
ROOT
ATOM      1  N   UNL     1       1.725   8.229  20.091  0.00  0.00    +0.000 N 
ATOM      2  N   UNL     1       1.630   8.057  21.433  0.00  0.00    +0.000 NA
ATOM      3  N   UNL     1       0.768   8.954  21.905  0.00  0.00    +0.000 NA
ATOM      4  C   UNL     1       0.360   9.720  20.858  0.00  0.00    +0.000 A 
ATOM      5  C   UNL     1       0.986   9.307  19.704  0.00  0.00    +0.000 A 
ATOM      6  C   UNL     1       0.793   9.930  18.372  0.00  0.00    +0.000 C 
ATOM      7  C   UNL     1       0.160  11.342  18.549  0.00  0.00    +0.000 C 
ATOM      8  N   UNL     1      -0.943  11.373  19.542  0.00  0.00    +0.000 N 
ATOM      9  C   UNL     1      -0.617  10.845  20.900  0.00  0.00    +0.000 C 
ENDROOT
BRANCH   8  10
ATOM     10  C   UNL     1      -2.267  11.555  19.184  0.00  0.00    +0.000 A 
ATOM     11  C   UNL     1      -3.155  12.325  19.946  0.00  0.00    +0.000 A 
ATOM     12  C   UNL     1      -4.493  12.505  19.565  0.00  0.00    +0.000 A 
ATOM     13  C   UNL     1      -4.992  11.905  18.405  0.00  0.00    +0.000 A 
ATOM     14  C   UNL     1      -4.124  11.120  17.639  0.00  0.00    +0.000 A 
ATOM     15  C   UNL     1      -2.787  10.956  18.025  0.00  0.00    +0.000 A 
BRANCH  13  16
ATOM     16  C   UNL     1      -6.426  12.094  17.977  0.00  0.00    +0.000 C 
ATOM     17  F   UNL     1      -6.558  12.543  16.696  0.00  0.00    +0.000 F 
ATOM     18  F   UNL     1      -7.145  10.939  18.040  0.00  0.00    +0.000 F 
ATOM     19  F   UNL     1      -7.092  12.992  18.755  0.00  0.00    +0.000 F 
ENDBRANCH  13  16
ENDBRANCH   8  10
BRANCH   1  20
ATOM     20  C   UNL     1       2.583   7.358  19.306  0.00  0.00    +0.000 C 
BRANCH  20  25
ATOM     21  F   UNL     1       0.499   2.107  18.986  0.00  0.00    +0.000 F 
ATOM     22  C   UNL     1       1.013   3.342  19.052  0.00  0.00    +0.000 A 
ATOM     23  C   UNL     1       1.047   4.005  20.273  0.00  0.00    +0.000 A 
ATOM     24  C   UNL     1       1.579   5.295  20.343  0.00  0.00    +0.000 A 
ATOM     25  C   UNL     1       2.090   5.929  19.195  0.00  0.00    +0.000 A 
ATOM     26  C   UNL     1       2.022   5.241  17.970  0.00  0.00    +0.000 A 
ATOM     27  C   UNL     1       1.496   3.948  17.902  0.00  0.00    +0.000 A 
ENDBRANCH  20  25
ENDBRANCH   1  20
TORSDOF 4
ENDMDL
