MODEL 1
REMARK VINA RESULT:      -6.2      0.000      0.000
REMARK  Name = 
REMARK  7 active torsions:
REMARK  status: ('A' for Active; 'I' for Inactive)
REMARK    1  A    between atoms: C_1  and  C_2
REMARK    2  A    between atoms: C_2  and  C_3
REMARK    3  A    between atoms: C_5  and  C_6
REMARK    4  A    between atoms: C_6  and  C_7
REMARK    5  A    between atoms: C_7  and  N_8
REMARK    6  A    between atoms: C_9  and  C_11
REMARK    7  A    between atoms: C_15  and  C_16
REMARK                            x       y       z     vdW  Elec       q    Type
REMARK                         _______ _______ _______ _____ _____    ______ ____
ROOT
ATOM      1  C   UNL     1       6.760   5.489  19.312  0.00  0.00    +0.000 C 
ENDROOT
BRANCH   1   4
ATOM      2  C   UNL     1       3.550   3.712  19.353  0.00  0.00    +0.000 A 
ATOM      3  N   UNL     1       4.869   3.910  19.729  0.00  0.00    +0.000 NA
ATOM      4  C   UNL     1       5.367   4.968  19.125  0.00  0.00    +0.000 A 
ATOM      5  S   UNL     1       4.278   5.787  18.078  0.00  0.00    +0.000 S 
ATOM      6  C   UNL     1       3.058   4.642  18.453  0.00  0.00    +0.000 A 
ATOM      7  C   UNL     1       1.701   4.738  17.848  0.00  0.00    +0.000 C 
BRANCH   2   9
ATOM      8  C   UNL     1       2.033   2.959  21.194  0.00  0.00    +0.000 C 
ATOM      9  C   UNL     1       2.814   2.556  19.953  0.00  0.00    +0.000 C 
ENDBRANCH   2   9
ENDBRANCH   1   4
BRANCH   1  10
ATOM     10  C   UNL     1       7.659   5.143  18.123  0.00  0.00    +0.000 C 
BRANCH  10  11
ATOM     11  N   UNL     1       6.980   4.328  17.132  0.00  0.00    +0.000 N 
ATOM     12  C   UNL     1       7.061   4.632  15.792  0.00  0.00    +0.000 C 
ATOM     13  O   UNL     1       7.703   5.564  15.335  0.00  0.00    +0.000 OA
ATOM     14  H   UNL     1       6.475   3.504  17.429  0.00  0.00    +0.000 HD
BRANCH  12  15
ATOM     15  C   UNL     1       6.333   3.685  14.908  0.00  0.00    +0.000 C 
ATOM     16  C   UNL     1       5.043   4.089  14.226  0.00  0.00    +0.000 C 
ATOM     17  C   UNL     1       6.304   3.954  13.423  0.00  0.00    +0.000 C 
ENDBRANCH  12  15
ENDBRANCH  10  11
ENDBRANCH   1  10
TORSDOF 5
ENDMDL
MODEL 2
REMARK VINA RESULT:      -6.1      1.825      2.199
REMARK  Name = 
REMARK  7 active torsions:
REMARK  status: ('A' for Active; 'I' for Inactive)
REMARK    1  A    between atoms: C_1  and  C_2
REMARK    2  A    between atoms: C_2  and  C_3
REMARK    3  A    between atoms: C_5  and  C_6
REMARK    4  A    between atoms: C_6  and  C_7
REMARK    5  A    between atoms: C_7  and  N_8
REMARK    6  A    between atoms: C_9  and  C_11
REMARK    7  A    between atoms: C_15  and  C_16
REMARK                            x       y       z     vdW  Elec       q    Type
REMARK                         _______ _______ _______ _____ _____    ______ ____
ROOT
ATOM      1  C   UNL     1       4.413   6.766  16.839  0.00  0.00    +0.000 C 
ENDROOT
BRANCH   1   4
ATOM      2  C   UNL     1       2.965   4.045  18.829  0.00  0.00    +0.000 A 
ATOM      3  N   UNL     1       3.748   4.562  17.810  0.00  0.00    +0.000 NA
ATOM      4  C   UNL     1       3.678   5.876  17.795  0.00  0.00    +0.000 A 
ATOM      5  S   UNL     1       2.674   6.564  19.008  0.00  0.00    +0.000 S 
ATOM      6  C   UNL     1       2.302   4.994  19.589  0.00  0.00    +0.000 A 
ATOM      7  C   UNL     1       1.393   4.799  20.752  0.00  0.00    +0.000 C 
BRANCH   2   9
ATOM      8  C   UNL     1       3.503   1.829  17.801  0.00  0.00    +0.000 C 
ATOM      9  C   UNL     1       2.933   2.561  19.006  0.00  0.00    +0.000 C 
ENDBRANCH   2   9
ENDBRANCH   1   4
BRANCH   1  10
ATOM     10  C   UNL     1       5.743   6.151  16.400  0.00  0.00    +0.000 C 
BRANCH  10  11
ATOM     11  N   UNL     1       5.566   5.053  15.466  0.00  0.00    +0.000 N 
ATOM     12  C   UNL     1       6.520   4.774  14.515  0.00  0.00    +0.000 C 
ATOM     13  O   UNL     1       7.568   5.387  14.390  0.00  0.00    +0.000 OA
ATOM     14  H   UNL     1       4.749   4.462  15.544  0.00  0.00    +0.000 HD
BRANCH  12  15
ATOM     15  C   UNL     1       6.200   3.603  13.657  0.00  0.00    +0.000 C 
ATOM     16  C   UNL     1       5.183   3.710  12.540  0.00  0.00    +0.000 C 
ATOM     17  C   UNL     1       6.646   3.618  12.214  0.00  0.00    +0.000 C 
ENDBRANCH  12  15
ENDBRANCH  10  11
ENDBRANCH   1  10
TORSDOF 5
ENDMDL
MODEL 3
REMARK VINA RESULT:      -6.0      1.862      2.023
REMARK  Name = 
REMARK  7 active torsions:
REMARK  status: ('A' for Active; 'I' for Inactive)
REMARK    1  A    between atoms: C_1  and  C_2
REMARK    2  A    between atoms: C_2  and  C_3
REMARK    3  A    between atoms: C_5  and  C_6
REMARK    4  A    between atoms: C_6  and  C_7
REMARK    5  A    between atoms: C_7  and  N_8
REMARK    6  A    between atoms: C_9  and  C_11
REMARK    7  A    between atoms: C_15  and  C_16
REMARK                            x       y       z     vdW  Elec       q    Type
REMARK                         _______ _______ _______ _____ _____    ______ ____
ROOT
ATOM      1  C   UNL     1       4.377   6.419  17.321  0.00  0.00    +0.000 C 
ENDROOT
BRANCH   1   4
ATOM      2  C   UNL     1       3.417   3.085  18.513  0.00  0.00    +0.000 A 
ATOM      3  N   UNL     1       4.328   4.057  18.133  0.00  0.00    +0.000 NA
ATOM      4  C   UNL     1       3.704   5.158  17.771  0.00  0.00    +0.000 A 
ATOM      5  S   UNL     1       1.991   5.090  17.875  0.00  0.00    +0.000 S 
ATOM      6  C   UNL     1       2.089   3.472  18.435  0.00  0.00    +0.000 A 
ATOM      7  C   UNL     1       0.863   2.697  18.767  0.00  0.00    +0.000 C 
BRANCH   2   9
ATOM      8  C   UNL     1       4.676   1.870  20.302  0.00  0.00    +0.000 C 
ATOM      9  C   UNL     1       3.948   1.764  18.970  0.00  0.00    +0.000 C 
ENDBRANCH   2   9
ENDBRANCH   1   4
BRANCH   1  10
ATOM     10  C   UNL     1       5.651   6.128  16.524  0.00  0.00    +0.000 C 
BRANCH  10  11
ATOM     11  N   UNL     1       5.477   5.043  15.575  0.00  0.00    +0.000 N 
ATOM     12  C   UNL     1       6.437   4.774  14.627  0.00  0.00    +0.000 C 
ATOM     13  O   UNL     1       7.488   5.385  14.517  0.00  0.00    +0.000 OA
ATOM     14  H   UNL     1       4.657   4.454  15.640  0.00  0.00    +0.000 HD
BRANCH  12  15
ATOM     15  C   UNL     1       6.119   3.616  13.751  0.00  0.00    +0.000 C 
ATOM     16  C   UNL     1       5.114   3.742  12.625  0.00  0.00    +0.000 C 
ATOM     17  C   UNL     1       6.579   3.645  12.313  0.00  0.00    +0.000 C 
ENDBRANCH  12  15
ENDBRANCH  10  11
ENDBRANCH   1  10
TORSDOF 5
ENDMDL
MODEL 4
REMARK VINA RESULT:      -6.0      3.032      4.909
REMARK  Name = 
REMARK  7 active torsions:
REMARK  status: ('A' for Active; 'I' for Inactive)
REMARK    1  A    between atoms: C_1  and  C_2
REMARK    2  A    between atoms: C_2  and  C_3
REMARK    3  A    between atoms: C_5  and  C_6
REMARK    4  A    between atoms: C_6  and  C_7
REMARK    5  A    between atoms: C_7  and  N_8
REMARK    6  A    between atoms: C_9  and  C_11
REMARK    7  A    between atoms: C_15  and  C_16
REMARK                            x       y       z     vdW  Elec       q    Type
REMARK                         _______ _______ _______ _____ _____    ______ ____
ROOT
ATOM      1  C   UNL     1       1.985   5.779  20.579  0.00  0.00    +0.000 C 
ENDROOT
BRANCH   1   4
ATOM      2  C   UNL     1       5.052   5.499  18.584  0.00  0.00    +0.000 A 
ATOM      3  N   UNL     1       4.256   5.239  19.688  0.00  0.00    +0.000 NA
ATOM      4  C   UNL     1       3.098   5.854  19.577  0.00  0.00    +0.000 A 
ATOM      5  S   UNL     1       2.897   6.770  18.138  0.00  0.00    +0.000 S 
ATOM      6  C   UNL     1       4.472   6.320  17.632  0.00  0.00    +0.000 A 
ATOM      7  C   UNL     1       5.029   6.795  16.336  0.00  0.00    +0.000 C 
BRANCH   2   9
ATOM      8  C   UNL     1       7.494   5.811  19.029  0.00  0.00    +0.000 C 
ATOM      9  C   UNL     1       6.407   4.870  18.531  0.00  0.00    +0.000 C 
ENDBRANCH   2   9
ENDBRANCH   1   4
BRANCH   1  10
ATOM     10  C   UNL     1       1.104   4.548  20.355  0.00  0.00    +0.000 C 
BRANCH  10  11
ATOM     11  N   UNL     1       1.813   3.470  19.691  0.00  0.00    +0.000 N 
ATOM     12  C   UNL     1       1.592   3.192  18.361  0.00  0.00    +0.000 C 
ATOM     13  O   UNL     1       0.827   3.818  17.645  0.00  0.00    +0.000 OA
ATOM     14  H   UNL     1       2.508   2.942  20.203  0.00  0.00    +0.000 HD
BRANCH  12  15
ATOM     15  C   UNL     1       2.416   2.077  17.827  0.00  0.00    +0.000 C 
ATOM     16  C   UNL     1       3.841   2.311  17.370  0.00  0.00    +0.000 C 
ATOM     17  C   UNL     1       3.577   1.574  18.650  0.00  0.00    +0.000 C 
ENDBRANCH  12  15
ENDBRANCH  10  11
ENDBRANCH   1  10
TORSDOF 5
ENDMDL
MODEL 5
REMARK VINA RESULT:      -6.0      1.412      2.222
REMARK  Name = 
REMARK  7 active torsions:
REMARK  status: ('A' for Active; 'I' for Inactive)
REMARK    1  A    between atoms: C_1  and  C_2
REMARK    2  A    between atoms: C_2  and  C_3
REMARK    3  A    between atoms: C_5  and  C_6
REMARK    4  A    between atoms: C_6  and  C_7
REMARK    5  A    between atoms: C_7  and  N_8
REMARK    6  A    between atoms: C_9  and  C_11
REMARK    7  A    between atoms: C_15  and  C_16
REMARK                            x       y       z     vdW  Elec       q    Type
REMARK                         _______ _______ _______ _____ _____    ______ ____
ROOT
ATOM      1  C   UNL     1       6.756   5.367  19.330  0.00  0.00    +0.000 C 
ENDROOT
BRANCH   1   4
ATOM      2  C   UNL     1       3.243   5.679  18.322  0.00  0.00    +0.000 A 
ATOM      3  N   UNL     1       4.534   6.149  18.499  0.00  0.00    +0.000 NA
ATOM      4  C   UNL     1       5.298   5.213  19.022  0.00  0.00    +0.000 A 
ATOM      5  S   UNL     1       4.510   3.716  19.322  0.00  0.00    +0.000 S 
ATOM      6  C   UNL     1       3.043   4.367  18.718  0.00  0.00    +0.000 A 
ATOM      7  C   UNL     1       1.802   3.548  18.666  0.00  0.00    +0.000 C 
BRANCH   2   9
ATOM      8  C   UNL     1       2.616   8.066  17.911  0.00  0.00    +0.000 C 
ATOM      9  C   UNL     1       2.233   6.606  17.724  0.00  0.00    +0.000 C 
ENDBRANCH   2   9
ENDBRANCH   1   4
BRANCH   1  10
ATOM     10  C   UNL     1       7.632   4.966  18.141  0.00  0.00    +0.000 C 
BRANCH  10  11
ATOM     11  N   UNL     1       6.889   4.247  17.121  0.00  0.00    +0.000 N 
ATOM     12  C   UNL     1       6.966   4.619  15.799  0.00  0.00    +0.000 C 
ATOM     13  O   UNL     1       7.655   5.534  15.379  0.00  0.00    +0.000 OA
ATOM     14  H   UNL     1       6.340   3.440  17.384  0.00  0.00    +0.000 HD
BRANCH  12  15
ATOM     15  C   UNL     1       6.168   3.765  14.880  0.00  0.00    +0.000 C 
ATOM     16  C   UNL     1       5.073   4.359  14.019  0.00  0.00    +0.000 C 
ATOM     17  C   UNL     1       6.364   3.921  13.391  0.00  0.00    +0.000 C 
ENDBRANCH  12  15
ENDBRANCH  10  11
ENDBRANCH   1  10
TORSDOF 5
ENDMDL
MODEL 6
REMARK VINA RESULT:      -5.9      2.558      4.175
REMARK  Name = 
REMARK  7 active torsions:
REMARK  status: ('A' for Active; 'I' for Inactive)
REMARK    1  A    between atoms: C_1  and  C_2
REMARK    2  A    between atoms: C_2  and  C_3
REMARK    3  A    between atoms: C_5  and  C_6
REMARK    4  A    between atoms: C_6  and  C_7
REMARK    5  A    between atoms: C_7  and  N_8
REMARK    6  A    between atoms: C_9  and  C_11
REMARK    7  A    between atoms: C_15  and  C_16
REMARK                            x       y       z     vdW  Elec       q    Type
REMARK                         _______ _______ _______ _____ _____    ______ ____
ROOT
ATOM      1  C   UNL     1       2.992   3.473  18.224  0.00  0.00    +0.000 C 
ENDROOT
BRANCH   1   4
ATOM      2  C   UNL     1       2.564   7.091  18.659  0.00  0.00    +0.000 A 
ATOM      3  N   UNL     1       2.930   5.956  17.953  0.00  0.00    +0.000 NA
ATOM      4  C   UNL     1       2.726   4.877  18.678  0.00  0.00    +0.000 A 
ATOM      5  S   UNL     1       2.077   5.164  20.243  0.00  0.00    +0.000 S 
ATOM      6  C   UNL     1       2.076   6.850  19.932  0.00  0.00    +0.000 A 
ATOM      7  C   UNL     1       1.590   7.820  20.951  0.00  0.00    +0.000 C 
BRANCH   2   9
ATOM      8  C   UNL     1       1.372   9.077  17.714  0.00  0.00    +0.000 C 
ATOM      9  C   UNL     1       2.716   8.417  17.984  0.00  0.00    +0.000 C 
ENDBRANCH   2   9
ENDBRANCH   1   4
BRANCH   1  10
ATOM     10  C   UNL     1       4.238   3.390  17.340  0.00  0.00    +0.000 C 
BRANCH  10  11
ATOM     11  N   UNL     1       5.390   4.036  17.942  0.00  0.00    +0.000 N 
ATOM     12  C   UNL     1       6.494   4.358  17.187  0.00  0.00    +0.000 C 
ATOM     13  O   UNL     1       6.590   4.158  15.986  0.00  0.00    +0.000 OA
ATOM     14  H   UNL     1       5.363   4.288  18.921  0.00  0.00    +0.000 HD
BRANCH  12  15
ATOM     15  C   UNL     1       7.574   5.039  17.947  0.00  0.00    +0.000 C 
ATOM     16  C   UNL     1       7.576   6.544  18.122  0.00  0.00    +0.000 C 
ATOM     17  C   UNL     1       7.243   5.656  19.285  0.00  0.00    +0.000 C 
ENDBRANCH  12  15
ENDBRANCH  10  11
ENDBRANCH   1  10
TORSDOF 5
ENDMDL
MODEL 7
REMARK VINA RESULT:      -5.9      1.858      2.213
REMARK  Name = 
REMARK  7 active torsions:
REMARK  status: ('A' for Active; 'I' for Inactive)
REMARK    1  A    between atoms: C_1  and  C_2
REMARK    2  A    between atoms: C_2  and  C_3
REMARK    3  A    between atoms: C_5  and  C_6
REMARK    4  A    between atoms: C_6  and  C_7
REMARK    5  A    between atoms: C_7  and  N_8
REMARK    6  A    between atoms: C_9  and  C_11
REMARK    7  A    between atoms: C_15  and  C_16
REMARK                            x       y       z     vdW  Elec       q    Type
REMARK                         _______ _______ _______ _____ _____    ______ ____
ROOT
ATOM      1  C   UNL     1       4.237   7.057  17.411  0.00  0.00    +0.000 C 
ENDROOT
BRANCH   1   4
ATOM      2  C   UNL     1       2.585   3.879  18.206  0.00  0.00    +0.000 A 
ATOM      3  N   UNL     1       3.391   4.707  17.440  0.00  0.00    +0.000 NA
ATOM      4  C   UNL     1       3.443   5.913  17.964  0.00  0.00    +0.000 A 
ATOM      5  S   UNL     1       2.535   6.118  19.408  0.00  0.00    +0.000 S 
ATOM      6  C   UNL     1       2.030   4.481  19.322  0.00  0.00    +0.000 A 
ATOM      7  C   UNL     1       1.133   3.898  20.357  0.00  0.00    +0.000 C 
BRANCH   2   9
ATOM      8  C   UNL     1       3.476   1.547  18.367  0.00  0.00    +0.000 C 
ATOM      9  C   UNL     1       2.418   2.460  17.767  0.00  0.00    +0.000 C 
ENDBRANCH   2   9
ENDBRANCH   1   4
BRANCH   1  10
ATOM     10  C   UNL     1       5.717   6.698  17.257  0.00  0.00    +0.000 C 
BRANCH  10  11
ATOM     11  N   UNL     1       5.978   5.914  16.063  0.00  0.00    +0.000 N 
ATOM     12  C   UNL     1       6.912   4.904  16.072  0.00  0.00    +0.000 C 
ATOM     13  O   UNL     1       7.562   4.575  17.051  0.00  0.00    +0.000 OA
ATOM     14  H   UNL     1       5.436   6.088  15.227  0.00  0.00    +0.000 HD
BRANCH  12  15
ATOM     15  C   UNL     1       7.039   4.181  14.779  0.00  0.00    +0.000 C 
ATOM     16  C   UNL     1       5.833   3.956  13.890  0.00  0.00    +0.000 C 
ATOM     17  C   UNL     1       6.878   4.958  13.495  0.00  0.00    +0.000 C 
ENDBRANCH  12  15
ENDBRANCH  10  11
ENDBRANCH   1  10
TORSDOF 5
ENDMDL
MODEL 8
REMARK VINA RESULT:      -5.8      2.283      3.405
REMARK  Name = 
REMARK  7 active torsions:
REMARK  status: ('A' for Active; 'I' for Inactive)
REMARK    1  A    between atoms: C_1  and  C_2
REMARK    2  A    between atoms: C_2  and  C_3
REMARK    3  A    between atoms: C_5  and  C_6
REMARK    4  A    between atoms: C_6  and  C_7
REMARK    5  A    between atoms: C_7  and  N_8
REMARK    6  A    between atoms: C_9  and  C_11
REMARK    7  A    between atoms: C_15  and  C_16
REMARK                            x       y       z     vdW  Elec       q    Type
REMARK                         _______ _______ _______ _____ _____    ______ ____
ROOT
ATOM      1  C   UNL     1       2.353   7.416  18.319  0.00  0.00    +0.000 C 
ENDROOT
BRANCH   1   4
ATOM      2  C   UNL     1       2.018   3.797  18.816  0.00  0.00    +0.000 A 
ATOM      3  N   UNL     1       2.163   4.940  18.047  0.00  0.00    +0.000 NA
ATOM      4  C   UNL     1       2.188   6.010  18.812  0.00  0.00    +0.000 A 
ATOM      5  S   UNL     1       2.046   5.703  20.496  0.00  0.00    +0.000 S 
ATOM      6  C   UNL     1       1.936   4.021  20.180  0.00  0.00    +0.000 A 
ATOM      7  C   UNL     1       1.785   3.038  21.287  0.00  0.00    +0.000 C 
BRANCH   2   9
ATOM      8  C   UNL     1       3.360   1.836  18.031  0.00  0.00    +0.000 C 
ATOM      9  C   UNL     1       1.983   2.477  18.114  0.00  0.00    +0.000 C 
ENDBRANCH   2   9
ENDBRANCH   1   4
BRANCH   1  10
ATOM     10  C   UNL     1       3.609   7.571  17.459  0.00  0.00    +0.000 C 
BRANCH  10  11
ATOM     11  N   UNL     1       4.471   6.403  17.517  0.00  0.00    +0.000 N 
ATOM     12  C   UNL     1       5.242   6.039  16.437  0.00  0.00    +0.000 C 
ATOM     13  O   UNL     1       5.286   6.654  15.384  0.00  0.00    +0.000 OA
ATOM     14  H   UNL     1       4.533   5.875  18.378  0.00  0.00    +0.000 HD
BRANCH  12  15
ATOM     15  C   UNL     1       6.086   4.838  16.669  0.00  0.00    +0.000 C 
ATOM     16  C   UNL     1       7.404   4.942  17.408  0.00  0.00    +0.000 C 
ATOM     17  C   UNL     1       6.220   4.306  18.076  0.00  0.00    +0.000 C 
ENDBRANCH  12  15
ENDBRANCH  10  11
ENDBRANCH   1  10
TORSDOF 5
ENDMDL
MODEL 9
REMARK VINA RESULT:      -5.8      1.829      2.247
REMARK  Name = 
REMARK  7 active torsions:
REMARK  status: ('A' for Active; 'I' for Inactive)
REMARK    1  A    between atoms: C_1  and  C_2
REMARK    2  A    between atoms: C_2  and  C_3
REMARK    3  A    between atoms: C_5  and  C_6
REMARK    4  A    between atoms: C_6  and  C_7
REMARK    5  A    between atoms: C_7  and  N_8
REMARK    6  A    between atoms: C_9  and  C_11
REMARK    7  A    between atoms: C_15  and  C_16
REMARK                            x       y       z     vdW  Elec       q    Type
REMARK                         _______ _______ _______ _____ _____    ______ ____
ROOT
ATOM      1  C   UNL     1       4.595   3.448  17.030  0.00  0.00    +0.000 C 
ENDROOT
BRANCH   1   4
ATOM      2  C   UNL     1       2.589   4.904  19.735  0.00  0.00    +0.000 A 
ATOM      3  N   UNL     1       3.200   3.858  19.062  0.00  0.00    +0.000 NA
ATOM      4  C   UNL     1       3.813   4.300  17.984  0.00  0.00    +0.000 A 
ATOM      5  S   UNL     1       3.696   5.994  17.724  0.00  0.00    +0.000 S 
ATOM      6  C   UNL     1       2.753   6.147  19.148  0.00  0.00    +0.000 A 
ATOM      7  C   UNL     1       2.246   7.473  19.596  0.00  0.00    +0.000 C 
BRANCH   2   9
ATOM      8  C   UNL     1       1.495   3.115  21.100  0.00  0.00    +0.000 C 
ATOM      9  C   UNL     1       1.850   4.591  20.997  0.00  0.00    +0.000 C 
ENDBRANCH   2   9
ENDBRANCH   1   4
BRANCH   1  10
ATOM     10  C   UNL     1       5.716   4.238  16.353  0.00  0.00    +0.000 C 
BRANCH  10  11
ATOM     11  N   UNL     1       5.677   4.131  14.906  0.00  0.00    +0.000 N 
ATOM     12  C   UNL     1       6.689   4.650  14.131  0.00  0.00    +0.000 C 
ATOM     13  O   UNL     1       7.681   5.206  14.576  0.00  0.00    +0.000 OA
ATOM     14  H   UNL     1       4.915   3.632  14.466  0.00  0.00    +0.000 HD
BRANCH  12  15
ATOM     15  C   UNL     1       6.511   4.432  12.672  0.00  0.00    +0.000 C 
ATOM     16  C   UNL     1       7.147   3.246  11.978  0.00  0.00    +0.000 C 
ATOM     17  C   UNL     1       5.665   3.270  12.209  0.00  0.00    +0.000 C 
ENDBRANCH  12  15
ENDBRANCH  10  11
ENDBRANCH   1  10
TORSDOF 5
ENDMDL
