MODEL 1
REMARK VINA RESULT:      -7.8      0.000      0.000
REMARK  Name = 
REMARK  4 active torsions:
REMARK  status: ('A' for Active; 'I' for Inactive)
REMARK    1  A    between atoms: C_1  and  C_2
REMARK    2  A    between atoms: C_2  and  N_3
REMARK    3  A    between atoms: C_6  and  N_7
REMARK    4  A    between atoms: C_6  and  C_10
REMARK                            x       y       z     vdW  Elec       q    Type
REMARK                         _______ _______ _______ _____ _____    ______ ____
ROOT
ATOM      1  N   UNL     1       4.456   4.326  18.028  0.00  0.00    +0.000 N 
ATOM      2  C   UNL     1       5.182   4.018  16.869  0.00  0.00    +0.000 C 
ATOM      3  O   UNL     1       5.478   2.848  16.604  0.00  0.00    +0.000 OA
ATOM      4  C   UNL     1       5.775   5.215  16.085  0.00  0.00    +0.000 C 
ATOM      5  C   UNL     1       4.790   6.378  16.038  0.00  0.00    +0.000 C 
ATOM      6  O   UNL     1       4.701   7.180  15.106  0.00  0.00    +0.000 OA
ATOM      7  C   UNL     1       3.967   6.605  17.245  0.00  0.00    +0.000 A 
ATOM      8  C   UNL     1       3.341   7.854  17.393  0.00  0.00    +0.000 A 
ATOM      9  C   UNL     1       2.568   8.125  18.517  0.00  0.00    +0.000 A 
ATOM     10  C   UNL     1       2.415   7.144  19.488  0.00  0.00    +0.000 A 
ATOM     11  C   UNL     1       3.042   5.898  19.339  0.00  0.00    +0.000 A 
ATOM     12  C   UNL     1       3.839   5.603  18.220  0.00  0.00    +0.000 A 
ENDROOT
BRANCH   4  13
ATOM     13  C   UNL     1       6.256   4.854  14.661  0.00  0.00    +0.000 A 
ATOM     14  C   UNL     1       5.556   3.958  13.837  0.00  0.00    +0.000 A 
ATOM     15  C   UNL     1       6.054   3.600  12.579  0.00  0.00    +0.000 A 
ATOM     16  C   UNL     1       7.241   4.154  12.111  0.00  0.00    +0.000 A 
ATOM     17  C   UNL     1       7.919   5.090  12.883  0.00  0.00    +0.000 A 
ATOM     18  C   UNL     1       7.424   5.448  14.138  0.00  0.00    +0.000 A 
ENDBRANCH   4  13
BRANCH   4  19
ATOM     19  N   UNL     1       6.913   5.713  16.939  0.00  0.00    +0.000 NA
ATOM     20  N   UNL     1       7.691   4.845  17.384  0.00  0.00    +0.000 NA
ATOM     21  N   UNL     1       8.413   4.072  17.806  0.00  0.00    +0.000 NA
ENDBRANCH   4  19
BRANCH   1  23
ATOM     22  C   UNL     1       3.167   2.388  18.869  0.00  0.00    +0.000 C 
ATOM     23  C   UNL     1       4.408   3.265  19.042  0.00  0.00    +0.000 C 
ENDBRANCH   1  23
TORSDOF 3
ENDMDL
MODEL 2
REMARK VINA RESULT:      -7.6      0.545      1.361
REMARK  Name = 
REMARK  4 active torsions:
REMARK  status: ('A' for Active; 'I' for Inactive)
REMARK    1  A    between atoms: C_1  and  C_2
REMARK    2  A    between atoms: C_2  and  N_3
REMARK    3  A    between atoms: C_6  and  N_7
REMARK    4  A    between atoms: C_6  and  C_10
REMARK                            x       y       z     vdW  Elec       q    Type
REMARK                         _______ _______ _______ _____ _____    ______ ____
ROOT
ATOM      1  N   UNL     1       4.393   4.102  17.896  0.00  0.00    +0.000 N 
ATOM      2  C   UNL     1       5.152   3.836  16.747  0.00  0.00    +0.000 C 
ATOM      3  O   UNL     1       5.410   2.674  16.419  0.00  0.00    +0.000 OA
ATOM      4  C   UNL     1       5.825   5.053  16.064  0.00  0.00    +0.000 C 
ATOM      5  C   UNL     1       4.891   6.259  16.055  0.00  0.00    +0.000 C 
ATOM      6  O   UNL     1       4.872   7.120  15.174  0.00  0.00    +0.000 OA
ATOM      7  C   UNL     1       4.031   6.445  17.243  0.00  0.00    +0.000 A 
ATOM      8  C   UNL     1       3.451   7.708  17.448  0.00  0.00    +0.000 A 
ATOM      9  C   UNL     1       2.646   7.942  18.558  0.00  0.00    +0.000 A 
ATOM     10  C   UNL     1       2.414   6.910  19.456  0.00  0.00    +0.000 A 
ATOM     11  C   UNL     1       2.994   5.649  19.251  0.00  0.00    +0.000 A 
ATOM     12  C   UNL     1       3.823   5.390  18.146  0.00  0.00    +0.000 A 
ENDROOT
BRANCH   4  13
ATOM     13  C   UNL     1       6.347   4.761  14.639  0.00  0.00    +0.000 A 
ATOM     14  C   UNL     1       7.532   5.330  14.143  0.00  0.00    +0.000 A 
ATOM     15  C   UNL     1       7.944   5.099  12.826  0.00  0.00    +0.000 A 
ATOM     16  C   UNL     1       7.197   4.273  11.992  0.00  0.00    +0.000 A 
ATOM     17  C   UNL     1       6.054   3.650  12.481  0.00  0.00    +0.000 A 
ATOM     18  C   UNL     1       5.642   3.878  13.794  0.00  0.00    +0.000 A 
ENDBRANCH   4  13
BRANCH   4  19
ATOM     19  N   UNL     1       6.948   5.446  16.990  0.00  0.00    +0.000 NA
ATOM     20  N   UNL     1       7.279   6.648  16.979  0.00  0.00    +0.000 NA
ATOM     21  N   UNL     1       7.603   7.740  16.984  0.00  0.00    +0.000 NA
ENDBRANCH   4  19
BRANCH   1  23
ATOM     22  C   UNL     1       2.987   2.182  18.570  0.00  0.00    +0.000 C 
ATOM     23  C   UNL     1       4.262   2.982  18.836  0.00  0.00    +0.000 C 
ENDBRANCH   1  23
TORSDOF 3
ENDMDL
MODEL 3
REMARK VINA RESULT:      -7.6      0.352      1.062
REMARK  Name = 
REMARK  4 active torsions:
REMARK  status: ('A' for Active; 'I' for Inactive)
REMARK    1  A    between atoms: C_1  and  C_2
REMARK    2  A    between atoms: C_2  and  N_3
REMARK    3  A    between atoms: C_6  and  N_7
REMARK    4  A    between atoms: C_6  and  C_10
REMARK                            x       y       z     vdW  Elec       q    Type
REMARK                         _______ _______ _______ _____ _____    ______ ____
ROOT
ATOM      1  N   UNL     1       4.179   4.594  18.177  0.00  0.00    +0.000 N 
ATOM      2  C   UNL     1       4.924   4.204  17.055  0.00  0.00    +0.000 C 
ATOM      3  O   UNL     1       5.163   3.011  16.842  0.00  0.00    +0.000 OA
ATOM      4  C   UNL     1       5.608   5.337  16.250  0.00  0.00    +0.000 C 
ATOM      5  C   UNL     1       4.691   6.550  16.127  0.00  0.00    +0.000 C 
ATOM      6  O   UNL     1       4.677   7.320  15.165  0.00  0.00    +0.000 OA
ATOM      7  C   UNL     1       3.844   6.866  17.296  0.00  0.00    +0.000 A 
ATOM      8  C   UNL     1       3.283   8.152  17.379  0.00  0.00    +0.000 A 
ATOM      9  C   UNL     1       2.491   8.506  18.465  0.00  0.00    +0.000 A 
ATOM     10  C   UNL     1       2.252   7.572  19.464  0.00  0.00    +0.000 A 
ATOM     11  C   UNL     1       2.813   6.290  19.382  0.00  0.00    +0.000 A 
ATOM     12  C   UNL     1       3.629   5.909  18.302  0.00  0.00    +0.000 A 
ENDROOT
BRANCH   4  13
ATOM     13  C   UNL     1       6.114   4.897  14.857  0.00  0.00    +0.000 A 
ATOM     14  C   UNL     1       7.335   5.346  14.326  0.00  0.00    +0.000 A 
ATOM     15  C   UNL     1       7.734   4.983  13.035  0.00  0.00    +0.000 A 
ATOM     16  C   UNL     1       6.937   4.142  12.265  0.00  0.00    +0.000 A 
ATOM     17  C   UNL     1       5.755   3.635  12.794  0.00  0.00    +0.000 A 
ATOM     18  C   UNL     1       5.356   3.996  14.081  0.00  0.00    +0.000 A 
ENDBRANCH   4  13
BRANCH   4  19
ATOM     19  N   UNL     1       6.744   5.804  17.124  0.00  0.00    +0.000 NA
ATOM     20  N   UNL     1       7.557   4.931  17.487  0.00  0.00    +0.000 NA
ATOM     21  N   UNL     1       8.311   4.151  17.835  0.00  0.00    +0.000 NA
ENDBRANCH   4  19
BRANCH   1  23
ATOM     22  C   UNL     1       2.735   2.795  19.069  0.00  0.00    +0.000 C 
ATOM     23  C   UNL     1       4.040   3.576  19.225  0.00  0.00    +0.000 C 
ENDBRANCH   1  23
TORSDOF 3
ENDMDL
MODEL 4
REMARK VINA RESULT:      -7.4      2.238      5.928
REMARK  Name = 
REMARK  4 active torsions:
REMARK  status: ('A' for Active; 'I' for Inactive)
REMARK    1  A    between atoms: C_1  and  C_2
REMARK    2  A    between atoms: C_2  and  N_3
REMARK    3  A    between atoms: C_6  and  N_7
REMARK    4  A    between atoms: C_6  and  C_10
REMARK                            x       y       z     vdW  Elec       q    Type
REMARK                         _______ _______ _______ _____ _____    ______ ____
ROOT
ATOM      1  N   UNL     1       6.480   5.098  17.949  0.00  0.00    +0.000 N 
ATOM      2  C   UNL     1       5.409   4.952  18.842  0.00  0.00    +0.000 C 
ATOM      3  O   UNL     1       5.427   5.512  19.942  0.00  0.00    +0.000 OA
ATOM      4  C   UNL     1       4.342   3.890  18.477  0.00  0.00    +0.000 C 
ATOM      5  C   UNL     1       4.043   3.908  16.982  0.00  0.00    +0.000 C 
ATOM      6  O   UNL     1       2.948   3.638  16.485  0.00  0.00    +0.000 OA
ATOM      7  C   UNL     1       5.182   4.170  16.076  0.00  0.00    +0.000 A 
ATOM      8  C   UNL     1       5.042   3.829  14.721  0.00  0.00    +0.000 A 
ATOM      9  C   UNL     1       6.088   4.040  13.830  0.00  0.00    +0.000 A 
ATOM     10  C   UNL     1       7.271   4.600  14.293  0.00  0.00    +0.000 A 
ATOM     11  C   UNL     1       7.411   4.939  15.647  0.00  0.00    +0.000 A 
ATOM     12  C   UNL     1       6.374   4.724  16.572  0.00  0.00    +0.000 A 
ENDROOT
BRANCH   4  13
ATOM     13  C   UNL     1       3.035   4.009  19.293  0.00  0.00    +0.000 A 
ATOM     14  C   UNL     1       2.166   2.921  19.483  0.00  0.00    +0.000 A 
ATOM     15  C   UNL     1       0.958   3.078  20.170  0.00  0.00    +0.000 A 
ATOM     16  C   UNL     1       0.611   4.314  20.706  0.00  0.00    +0.000 A 
ATOM     17  C   UNL     1       1.484   5.390  20.584  0.00  0.00    +0.000 A 
ATOM     18  C   UNL     1       2.689   5.235  19.899  0.00  0.00    +0.000 A 
ENDBRANCH   4  13
BRANCH   4  19
ATOM     19  N   UNL     1       5.018   2.563  18.714  0.00  0.00    +0.000 NA
ATOM     20  N   UNL     1       5.092   2.185  19.901  0.00  0.00    +0.000 NA
ATOM     21  N   UNL     1       5.176   1.819  20.976  0.00  0.00    +0.000 NA
ENDBRANCH   4  19
BRANCH   1  23
ATOM     22  C   UNL     1       7.884   7.113  18.244  0.00  0.00    +0.000 C 
ATOM     23  C   UNL     1       7.721   5.620  18.533  0.00  0.00    +0.000 C 
ENDBRANCH   1  23
TORSDOF 3
ENDMDL
MODEL 5
REMARK VINA RESULT:      -7.4      2.228      5.987
REMARK  Name = 
REMARK  4 active torsions:
REMARK  status: ('A' for Active; 'I' for Inactive)
REMARK    1  A    between atoms: C_1  and  C_2
REMARK    2  A    between atoms: C_2  and  N_3
REMARK    3  A    between atoms: C_6  and  N_7
REMARK    4  A    between atoms: C_6  and  C_10
REMARK                            x       y       z     vdW  Elec       q    Type
REMARK                         _______ _______ _______ _____ _____    ______ ____
ROOT
ATOM      1  N   UNL     1       6.492   5.109  17.912  0.00  0.00    +0.000 N 
ATOM      2  C   UNL     1       5.415   4.972  18.800  0.00  0.00    +0.000 C 
ATOM      3  O   UNL     1       5.431   5.533  19.900  0.00  0.00    +0.000 OA
ATOM      4  C   UNL     1       4.342   3.918  18.429  0.00  0.00    +0.000 C 
ATOM      5  C   UNL     1       4.051   3.939  16.932  0.00  0.00    +0.000 C 
ATOM      6  O   UNL     1       2.957   3.677  16.430  0.00  0.00    +0.000 OA
ATOM      7  C   UNL     1       5.197   4.191  16.033  0.00  0.00    +0.000 A 
ATOM      8  C   UNL     1       5.061   3.851  14.677  0.00  0.00    +0.000 A 
ATOM      9  C   UNL     1       6.115   4.054  13.791  0.00  0.00    +0.000 A 
ATOM     10  C   UNL     1       7.299   4.604  14.261  0.00  0.00    +0.000 A 
ATOM     11  C   UNL     1       7.434   4.942  15.615  0.00  0.00    +0.000 A 
ATOM     12  C   UNL     1       6.390   4.735  16.535  0.00  0.00    +0.000 A 
ENDROOT
BRANCH   4  13
ATOM     13  C   UNL     1       3.031   4.048  19.238  0.00  0.00    +0.000 A 
ATOM     14  C   UNL     1       2.645   5.250  19.853  0.00  0.00    +0.000 A 
ATOM     15  C   UNL     1       1.486   5.318  20.634  0.00  0.00    +0.000 A 
ATOM     16  C   UNL     1       0.678   4.196  20.789  0.00  0.00    +0.000 A 
ATOM     17  C   UNL     1       1.008   3.012  20.139  0.00  0.00    +0.000 A 
ATOM     18  C   UNL     1       2.163   2.943  19.359  0.00  0.00    +0.000 A 
ENDBRANCH   4  13
BRANCH   4  19
ATOM     19  N   UNL     1       5.005   2.586  18.671  0.00  0.00    +0.000 NA
ATOM     20  N   UNL     1       5.082   2.214  19.858  0.00  0.00    +0.000 NA
ATOM     21  N   UNL     1       5.168   1.854  20.935  0.00  0.00    +0.000 NA
ENDBRANCH   4  19
BRANCH   1  23
ATOM     22  C   UNL     1       7.886   7.123  18.255  0.00  0.00    +0.000 C 
ATOM     23  C   UNL     1       7.734   5.622  18.503  0.00  0.00    +0.000 C 
ENDBRANCH   1  23
TORSDOF 3
ENDMDL
MODEL 6
REMARK VINA RESULT:      -7.3      2.024      5.921
REMARK  Name = 
REMARK  4 active torsions:
REMARK  status: ('A' for Active; 'I' for Inactive)
REMARK    1  A    between atoms: C_1  and  C_2
REMARK    2  A    between atoms: C_2  and  N_3
REMARK    3  A    between atoms: C_6  and  N_7
REMARK    4  A    between atoms: C_6  and  C_10
REMARK                            x       y       z     vdW  Elec       q    Type
REMARK                         _______ _______ _______ _____ _____    ______ ____
ROOT
ATOM      1  N   UNL     1       5.501   6.215  17.171  0.00  0.00    +0.000 N 
ATOM      2  C   UNL     1       4.670   5.818  18.228  0.00  0.00    +0.000 C 
ATOM      3  O   UNL     1       4.235   6.649  19.032  0.00  0.00    +0.000 OA
ATOM      4  C   UNL     1       4.525   4.293  18.461  0.00  0.00    +0.000 C 
ATOM      5  C   UNL     1       4.420   3.546  17.135  0.00  0.00    +0.000 C 
ATOM      6  O   UNL     1       3.778   2.508  16.968  0.00  0.00    +0.000 OA
ATOM      7  C   UNL     1       5.235   4.061  16.014  0.00  0.00    +0.000 A 
ATOM      8  C   UNL     1       5.463   3.211  14.918  0.00  0.00    +0.000 A 
ATOM      9  C   UNL     1       6.235   3.640  13.844  0.00  0.00    +0.000 A 
ATOM     10  C   UNL     1       6.771   4.920  13.862  0.00  0.00    +0.000 A 
ATOM     11  C   UNL     1       6.544   5.767  14.957  0.00  0.00    +0.000 A 
ATOM     12  C   UNL     1       5.779   5.354  16.062  0.00  0.00    +0.000 A 
ENDROOT
BRANCH   4  13
ATOM     13  C   UNL     1       3.352   3.911  19.393  0.00  0.00    +0.000 A 
ATOM     14  C   UNL     1       2.056   4.423  19.217  0.00  0.00    +0.000 A 
ATOM     15  C   UNL     1       1.032   4.110  20.117  0.00  0.00    +0.000 A 
ATOM     16  C   UNL     1       1.276   3.257  21.189  0.00  0.00    +0.000 A 
ATOM     17  C   UNL     1       2.535   2.690  21.347  0.00  0.00    +0.000 A 
ATOM     18  C   UNL     1       3.558   3.001  20.451  0.00  0.00    +0.000 A 
ENDBRANCH   4  13
BRANCH   4  19
ATOM     19  N   UNL     1       5.848   3.861  19.039  0.00  0.00    +0.000 NA
ATOM     20  N   UNL     1       6.514   4.744  19.616  0.00  0.00    +0.000 NA
ATOM     21  N   UNL     1       7.144   5.532  20.145  0.00  0.00    +0.000 NA
ENDBRANCH   4  19
BRANCH   1  23
ATOM     22  C   UNL     1       7.600   7.466  17.559  0.00  0.00    +0.000 C 
ATOM     23  C   UNL     1       6.094   7.551  17.303  0.00  0.00    +0.000 C 
ENDBRANCH   1  23
TORSDOF 3
ENDMDL
MODEL 7
REMARK VINA RESULT:      -7.2      1.564      2.369
REMARK  Name = 
REMARK  4 active torsions:
REMARK  status: ('A' for Active; 'I' for Inactive)
REMARK    1  A    between atoms: C_1  and  C_2
REMARK    2  A    between atoms: C_2  and  N_3
REMARK    3  A    between atoms: C_6  and  N_7
REMARK    4  A    between atoms: C_6  and  C_10
REMARK                            x       y       z     vdW  Elec       q    Type
REMARK                         _______ _______ _______ _____ _____    ______ ____
ROOT
ATOM      1  N   UNL     1       2.770   3.584  18.988  0.00  0.00    +0.000 N 
ATOM      2  C   UNL     1       3.703   3.423  17.954  0.00  0.00    +0.000 C 
ATOM      3  O   UNL     1       3.770   2.361  17.327  0.00  0.00    +0.000 OA
ATOM      4  C   UNL     1       4.770   4.536  17.804  0.00  0.00    +0.000 C 
ATOM      5  C   UNL     1       4.154   5.915  18.018  0.00  0.00    +0.000 C 
ATOM      6  O   UNL     1       4.536   6.944  17.458  0.00  0.00    +0.000 OA
ATOM      7  C   UNL     1       3.098   6.021  19.047  0.00  0.00    +0.000 A 
ATOM      8  C   UNL     1       2.778   7.298  19.537  0.00  0.00    +0.000 A 
ATOM      9  C   UNL     1       1.803   7.453  20.517  0.00  0.00    +0.000 A 
ATOM     10  C   UNL     1       1.143   6.331  20.999  0.00  0.00    +0.000 A 
ATOM     11  C   UNL     1       1.463   5.057  20.510  0.00  0.00    +0.000 A 
ATOM     12  C   UNL     1       2.454   4.870  19.530  0.00  0.00    +0.000 A 
ENDROOT
BRANCH   4  13
ATOM     13  C   UNL     1       5.540   4.488  16.464  0.00  0.00    +0.000 A 
ATOM     14  C   UNL     1       6.928   4.694  16.389  0.00  0.00    +0.000 A 
ATOM     15  C   UNL     1       7.586   4.711  15.154  0.00  0.00    +0.000 A 
ATOM     16  C   UNL     1       6.875   4.492  13.978  0.00  0.00    +0.000 A 
ATOM     17  C   UNL     1       5.512   4.225  14.033  0.00  0.00    +0.000 A 
ATOM     18  C   UNL     1       4.854   4.208  15.264  0.00  0.00    +0.000 A 
ENDBRANCH   4  13
BRANCH   4  19
ATOM     19  N   UNL     1       5.697   4.346  18.977  0.00  0.00    +0.000 NA
ATOM     20  N   UNL     1       6.569   5.223  19.141  0.00  0.00    +0.000 NA
ATOM     21  N   UNL     1       7.376   6.008  19.310  0.00  0.00    +0.000 NA
ENDBRANCH   4  19
BRANCH   1  23
ATOM     22  C   UNL     1       0.780   2.117  18.915  0.00  0.00    +0.000 C 
ATOM     23  C   UNL     1       2.175   2.343  19.499  0.00  0.00    +0.000 C 
ENDBRANCH   1  23
TORSDOF 3
ENDMDL
MODEL 8
REMARK VINA RESULT:      -7.2      2.017      5.931
REMARK  Name = 
REMARK  4 active torsions:
REMARK  status: ('A' for Active; 'I' for Inactive)
REMARK    1  A    between atoms: C_1  and  C_2
REMARK    2  A    between atoms: C_2  and  N_3
REMARK    3  A    between atoms: C_6  and  N_7
REMARK    4  A    between atoms: C_6  and  C_10
REMARK                            x       y       z     vdW  Elec       q    Type
REMARK                         _______ _______ _______ _____ _____    ______ ____
ROOT
ATOM      1  N   UNL     1       5.508   6.221  17.157  0.00  0.00    +0.000 N 
ATOM      2  C   UNL     1       4.696   5.833  18.232  0.00  0.00    +0.000 C 
ATOM      3  O   UNL     1       4.270   6.671  19.034  0.00  0.00    +0.000 OA
ATOM      4  C   UNL     1       4.561   4.311  18.484  0.00  0.00    +0.000 C 
ATOM      5  C   UNL     1       4.437   3.549  17.168  0.00  0.00    +0.000 C 
ATOM      6  O   UNL     1       3.796   2.506  17.022  0.00  0.00    +0.000 OA
ATOM      7  C   UNL     1       5.231   4.054  16.028  0.00  0.00    +0.000 A 
ATOM      8  C   UNL     1       5.445   3.194  14.938  0.00  0.00    +0.000 A 
ATOM      9  C   UNL     1       6.198   3.613  13.846  0.00  0.00    +0.000 A 
ATOM     10  C   UNL     1       6.729   4.896  13.842  0.00  0.00    +0.000 A 
ATOM     11  C   UNL     1       6.516   5.753  14.931  0.00  0.00    +0.000 A 
ATOM     12  C   UNL     1       5.771   5.350  16.053  0.00  0.00    +0.000 A 
ENDROOT
BRANCH   4  13
ATOM     13  C   UNL     1       3.405   3.934  19.439  0.00  0.00    +0.000 A 
ATOM     14  C   UNL     1       3.583   3.059  20.523  0.00  0.00    +0.000 A 
ATOM     15  C   UNL     1       2.502   2.685  21.329  0.00  0.00    +0.000 A 
ATOM     16  C   UNL     1       1.233   3.203  21.086  0.00  0.00    +0.000 A 
ATOM     17  C   UNL     1       1.046   4.118  20.057  0.00  0.00    +0.000 A 
ATOM     18  C   UNL     1       2.123   4.492  19.252  0.00  0.00    +0.000 A 
ENDBRANCH   4  13
BRANCH   4  19
ATOM     19  N   UNL     1       5.895   3.890  19.045  0.00  0.00    +0.000 NA
ATOM     20  N   UNL     1       6.553   4.774  19.629  0.00  0.00    +0.000 NA
ATOM     21  N   UNL     1       7.175   5.564  20.164  0.00  0.00    +0.000 NA
ENDBRANCH   4  19
BRANCH   1  23
ATOM     22  C   UNL     1       7.598   7.485  17.548  0.00  0.00    +0.000 C 
ATOM     23  C   UNL     1       6.097   7.561  17.265  0.00  0.00    +0.000 C 
ENDBRANCH   1  23
TORSDOF 3
ENDMDL
MODEL 9
REMARK VINA RESULT:      -7.0      1.301      1.714
REMARK  Name = 
REMARK  4 active torsions:
REMARK  status: ('A' for Active; 'I' for Inactive)
REMARK    1  A    between atoms: C_1  and  C_2
REMARK    2  A    between atoms: C_2  and  N_3
REMARK    3  A    between atoms: C_6  and  N_7
REMARK    4  A    between atoms: C_6  and  C_10
REMARK                            x       y       z     vdW  Elec       q    Type
REMARK                         _______ _______ _______ _____ _____    ______ ____
ROOT
ATOM      1  N   UNL     1       3.324   4.274  19.350  0.00  0.00    +0.000 N 
ATOM      2  C   UNL     1       4.150   4.017  18.247  0.00  0.00    +0.000 C 
ATOM      3  O   UNL     1       4.420   2.856  17.920  0.00  0.00    +0.000 OA
ATOM      4  C   UNL     1       4.873   5.236  17.623  0.00  0.00    +0.000 C 
ATOM      5  C   UNL     1       3.951   6.450  17.572  0.00  0.00    +0.000 C 
ATOM      6  O   UNL     1       3.992   7.323  16.703  0.00  0.00    +0.000 OA
ATOM      7  C   UNL     1       3.020   6.628  18.707  0.00  0.00    +0.000 A 
ATOM      8  C   UNL     1       2.438   7.893  18.892  0.00  0.00    +0.000 A 
ATOM      9  C   UNL     1       1.567   8.119  19.953  0.00  0.00    +0.000 A 
ATOM     10  C   UNL     1       1.273   7.078  20.823  0.00  0.00    +0.000 A 
ATOM     11  C   UNL     1       1.856   5.816  20.637  0.00  0.00    +0.000 A 
ATOM     12  C   UNL     1       2.749   5.563  19.581  0.00  0.00    +0.000 A 
ENDROOT
BRANCH   4  13
ATOM     13  C   UNL     1       5.480   4.959  16.229  0.00  0.00    +0.000 A 
ATOM     14  C   UNL     1       4.847   4.133  15.285  0.00  0.00    +0.000 A 
ATOM     15  C   UNL     1       5.455   3.848  14.057  0.00  0.00    +0.000 A 
ATOM     16  C   UNL     1       6.689   4.405  13.739  0.00  0.00    +0.000 A 
ATOM     17  C   UNL     1       7.305   5.274  14.632  0.00  0.00    +0.000 A 
ATOM     18  C   UNL     1       6.701   5.560  15.857  0.00  0.00    +0.000 A 
ENDBRANCH   4  13
BRANCH   4  19
ATOM     19  N   UNL     1       5.939   5.608  18.621  0.00  0.00    +0.000 NA
ATOM     20  N   UNL     1       7.018   4.988  18.536  0.00  0.00    +0.000 NA
ATOM     21  N   UNL     1       8.010   4.432  18.481  0.00  0.00    +0.000 NA
ENDBRANCH   4  19
BRANCH   1  23
ATOM     22  C   UNL     1       1.781   2.461  20.021  0.00  0.00    +0.000 C 
ATOM     23  C   UNL     1       3.127   3.144  20.266  0.00  0.00    +0.000 C 
ENDBRANCH   1  23
TORSDOF 3
ENDMDL
