MODEL 1
REMARK VINA RESULT:      -8.1      0.000      0.000
REMARK  Name = 
REMARK  6 active torsions:
REMARK  status: ('A' for Active; 'I' for Inactive)
REMARK    1  A    between atoms: C_1  and  C_2
REMARK    2  A    between atoms: C_2  and  O_3
REMARK    3  A    between atoms: C_2  and  C_17
REMARK    4  A    between atoms: O_3  and  C_4
REMARK    5  A    between atoms: C_4  and  C_6
REMARK    6  A    between atoms: C_17  and  C_19
REMARK                            x       y       z     vdW  Elec       q    Type
REMARK                         _______ _______ _______ _____ _____    ______ ____
ROOT
ATOM      1  C   UNL     1       3.225   7.083  18.422  0.00  0.00    +0.000 C 
ATOM      2  O   UNL     1       3.788   7.135  17.340  0.00  0.00    +0.000 OA
ENDROOT
BRANCH   1   3
ATOM      3  C   UNL     1       2.164   8.041  18.831  0.00  0.00    +0.000 A 
ATOM      4  C   UNL     1       1.623   8.891  17.854  0.00  0.00    +0.000 A 
ATOM      5  C   UNL     1       0.678   9.858  18.206  0.00  0.00    +0.000 A 
ATOM      6  C   UNL     1       0.285  10.003  19.540  0.00  0.00    +0.000 A 
ATOM      7  C   UNL     1       0.811   9.141  20.514  0.00  0.00    +0.000 A 
ATOM      8  C   UNL     1       1.729   8.149  20.156  0.00  0.00    +0.000 A 
ATOM      9  N   UNL     1       0.431   9.225  21.863  0.00  0.00    +0.000 N 
ATOM     10  C   UNL     1      -0.240  10.270  22.442  0.00  0.00    +0.000 C 
ATOM     11  O   UNL     1      -0.576  10.192  23.625  0.00  0.00    +0.000 OA
ATOM     12  C   UNL     1      -0.390  11.549  21.650  0.00  0.00    +0.000 C 
ATOM     13  S   UNL     1      -0.921  11.247  19.949  0.00  0.00    +0.000 S 
ATOM     14  H   UNL     1       0.652   8.465  22.495  0.00  0.00    +0.000 HD
ENDBRANCH   1   3
BRANCH   1  15
ATOM     15  O   UNL     1       3.502   6.202  19.416  0.00  0.00    +0.000 OA
BRANCH  15  17
ATOM     16  C   UNL     1       2.261   4.395  20.437  0.00  0.00    +0.000 C 
ATOM     17  C   UNL     1       3.025   4.863  19.199  0.00  0.00    +0.000 C 
BRANCH  17  18
ATOM     18  C   UNL     1       4.211   3.925  18.932  0.00  0.00    +0.000 C 
ATOM     19  O   UNL     1       4.457   2.959  19.656  0.00  0.00    +0.000 OA
BRANCH  18  20
ATOM     20  C   UNL     1       5.088   4.147  17.737  0.00  0.00    +0.000 A 
ATOM     21  C   UNL     1       4.647   3.953  16.421  0.00  0.00    +0.000 A 
ATOM     22  C   UNL     1       5.522   4.171  15.350  0.00  0.00    +0.000 A 
ATOM     23  C   UNL     1       6.831   4.573  15.594  0.00  0.00    +0.000 A 
ATOM     24  F   UNL     1       7.662   4.775  14.564  0.00  0.00    +0.000 F 
ATOM     25  C   UNL     1       7.288   4.764  16.891  0.00  0.00    +0.000 A 
ATOM     26  C   UNL     1       6.416   4.552  17.961  0.00  0.00    +0.000 A 
ENDBRANCH  18  20
ENDBRANCH  17  18
ENDBRANCH  15  17
ENDBRANCH   1  15
TORSDOF 5
ENDMDL
MODEL 2
REMARK VINA RESULT:      -8.1      2.663      4.043
REMARK  Name = 
REMARK  6 active torsions:
REMARK  status: ('A' for Active; 'I' for Inactive)
REMARK    1  A    between atoms: C_1  and  C_2
REMARK    2  A    between atoms: C_2  and  O_3
REMARK    3  A    between atoms: C_2  and  C_17
REMARK    4  A    between atoms: O_3  and  C_4
REMARK    5  A    between atoms: C_4  and  C_6
REMARK    6  A    between atoms: C_17  and  C_19
REMARK                            x       y       z     vdW  Elec       q    Type
REMARK                         _______ _______ _______ _____ _____    ______ ____
ROOT
ATOM      1  C   UNL     1       4.378   5.944  18.662  0.00  0.00    +0.000 C 
ATOM      2  O   UNL     1       5.055   5.577  19.609  0.00  0.00    +0.000 OA
ENDROOT
BRANCH   1   3
ATOM      3  C   UNL     1       3.285   6.945  18.786  0.00  0.00    +0.000 A 
ATOM      4  C   UNL     1       3.086   7.848  17.730  0.00  0.00    +0.000 A 
ATOM      5  C   UNL     1       2.123   8.853  17.834  0.00  0.00    +0.000 A 
ATOM      6  C   UNL     1       1.368   8.984  19.003  0.00  0.00    +0.000 A 
ATOM      7  C   UNL     1       1.553   8.070  20.052  0.00  0.00    +0.000 A 
ATOM      8  C   UNL     1       2.492   7.042  19.934  0.00  0.00    +0.000 A 
ATOM      9  N   UNL     1       0.803   8.140  21.237  0.00  0.00    +0.000 N 
ATOM     10  C   UNL     1       0.038   9.202  21.641  0.00  0.00    +0.000 C 
ATOM     11  O   UNL     1      -0.628   9.112  22.673  0.00  0.00    +0.000 OA
ATOM     12  C   UNL     1       0.179  10.508  20.891  0.00  0.00    +0.000 C 
ATOM     13  S   UNL     1       0.149  10.278  19.098  0.00  0.00    +0.000 S 
ATOM     14  H   UNL     1       0.799   7.352  21.876  0.00  0.00    +0.000 HD
ENDBRANCH   1   3
BRANCH   1  15
ATOM     15  O   UNL     1       4.473   5.475  17.393  0.00  0.00    +0.000 OA
BRANCH  15  17
ATOM     16  C   UNL     1       5.176   3.690  15.920  0.00  0.00    +0.000 C 
ATOM     17  C   UNL     1       4.558   4.044  17.272  0.00  0.00    +0.000 C 
BRANCH  17  18
ATOM     18  C   UNL     1       3.154   3.430  17.381  0.00  0.00    +0.000 C 
ATOM     19  O   UNL     1       2.520   3.066  16.389  0.00  0.00    +0.000 OA
BRANCH  18  20
ATOM     20  C   UNL     1       2.532   3.217  18.728  0.00  0.00    +0.000 A 
ATOM     21  C   UNL     1       1.223   3.614  19.033  0.00  0.00    +0.000 A 
ATOM     22  C   UNL     1       0.706   3.391  20.315  0.00  0.00    +0.000 A 
ATOM     23  C   UNL     1       1.495   2.784  21.287  0.00  0.00    +0.000 A 
ATOM     24  F   UNL     1       0.993   2.580  22.511  0.00  0.00    +0.000 F 
ATOM     25  C   UNL     1       2.795   2.392  21.005  0.00  0.00    +0.000 A 
ATOM     26  C   UNL     1       3.312   2.607  19.725  0.00  0.00    +0.000 A 
ENDBRANCH  18  20
ENDBRANCH  17  18
ENDBRANCH  15  17
ENDBRANCH   1  15
TORSDOF 5
ENDMDL
MODEL 3
REMARK VINA RESULT:      -8.1      4.220      7.988
REMARK  Name = 
REMARK  6 active torsions:
REMARK  status: ('A' for Active; 'I' for Inactive)
REMARK    1  A    between atoms: C_1  and  C_2
REMARK    2  A    between atoms: C_2  and  O_3
REMARK    3  A    between atoms: C_2  and  C_17
REMARK    4  A    between atoms: O_3  and  C_4
REMARK    5  A    between atoms: C_4  and  C_6
REMARK    6  A    between atoms: C_17  and  C_19
REMARK                            x       y       z     vdW  Elec       q    Type
REMARK                         _______ _______ _______ _____ _____    ______ ____
ROOT
ATOM      1  C   UNL     1       1.936   9.065  18.377  0.00  0.00    +0.000 C 
ATOM      2  O   UNL     1       1.972   9.593  17.277  0.00  0.00    +0.000 OA
ENDROOT
BRANCH   1   3
ATOM      3  C   UNL     1       2.534   7.732  18.656  0.00  0.00    +0.000 A 
ATOM      4  C   UNL     1       3.456   7.211  17.735  0.00  0.00    +0.000 A 
ATOM      5  C   UNL     1       3.986   5.931  17.917  0.00  0.00    +0.000 A 
ATOM      6  C   UNL     1       3.582   5.151  19.004  0.00  0.00    +0.000 A 
ATOM      7  C   UNL     1       2.675   5.680  19.936  0.00  0.00    +0.000 A 
ATOM      8  C   UNL     1       2.171   6.974  19.774  0.00  0.00    +0.000 A 
ATOM      9  N   UNL     1       2.256   4.950  21.060  0.00  0.00    +0.000 N 
ATOM     10  C   UNL     1       2.429   3.604  21.251  0.00  0.00    +0.000 C 
ATOM     11  O   UNL     1       2.074   3.094  22.314  0.00  0.00    +0.000 OA
ATOM     12  C   UNL     1       2.892   2.770  20.078  0.00  0.00    +0.000 C 
ATOM     13  S   UNL     1       4.280   3.526  19.202  0.00  0.00    +0.000 S 
ATOM     14  H   UNL     1       1.783   5.425  21.819  0.00  0.00    +0.000 HD
ENDBRANCH   1   3
BRANCH   1  15
ATOM     15  O   UNL     1       1.321   9.568  19.476  0.00  0.00    +0.000 OA
BRANCH  15  17
ATOM     16  C   UNL     1       1.411  11.850  20.273  0.00  0.00    +0.000 C 
ATOM     17  C   UNL     1       0.738  10.872  19.309  0.00  0.00    +0.000 C 
BRANCH  17  18
ATOM     18  C   UNL     1      -0.769  10.809  19.599  0.00  0.00    +0.000 C 
ATOM     19  O   UNL     1      -1.218  10.854  20.745  0.00  0.00    +0.000 OA
BRANCH  18  20
ATOM     20  C   UNL     1      -1.747  10.732  18.465  0.00  0.00    +0.000 A 
ATOM     21  C   UNL     1      -1.563   9.896  17.355  0.00  0.00    +0.000 A 
ATOM     22  C   UNL     1      -2.513   9.879  16.327  0.00  0.00    +0.000 A 
ATOM     23  C   UNL     1      -3.635  10.697  16.405  0.00  0.00    +0.000 A 
ATOM     24  F   UNL     1      -4.536  10.677  15.415  0.00  0.00    +0.000 F 
ATOM     25  C   UNL     1      -3.831  11.536  17.493  0.00  0.00    +0.000 A 
ATOM     26  C   UNL     1      -2.888  11.551  18.523  0.00  0.00    +0.000 A 
ENDBRANCH  18  20
ENDBRANCH  17  18
ENDBRANCH  15  17
ENDBRANCH   1  15
TORSDOF 5
ENDMDL
MODEL 4
REMARK VINA RESULT:      -8.1      0.300      1.010
REMARK  Name = 
REMARK  6 active torsions:
REMARK  status: ('A' for Active; 'I' for Inactive)
REMARK    1  A    between atoms: C_1  and  C_2
REMARK    2  A    between atoms: C_2  and  O_3
REMARK    3  A    between atoms: C_2  and  C_17
REMARK    4  A    between atoms: O_3  and  C_4
REMARK    5  A    between atoms: C_4  and  C_6
REMARK    6  A    between atoms: C_17  and  C_19
REMARK                            x       y       z     vdW  Elec       q    Type
REMARK                         _______ _______ _______ _____ _____    ______ ____
ROOT
ATOM      1  C   UNL     1       2.978   7.149  18.463  0.00  0.00    +0.000 C 
ATOM      2  O   UNL     1       3.585   7.181  17.404  0.00  0.00    +0.000 OA
ENDROOT
BRANCH   1   3
ATOM      3  C   UNL     1       1.981   8.180  18.856  0.00  0.00    +0.000 A 
ATOM      4  C   UNL     1       1.547   9.092  17.882  0.00  0.00    +0.000 A 
ATOM      5  C   UNL     1       0.669  10.124  18.224  0.00  0.00    +0.000 A 
ATOM      6  C   UNL     1       0.237  10.269  19.545  0.00  0.00    +0.000 A 
ATOM      7  C   UNL     1       0.654   9.346  20.516  0.00  0.00    +0.000 A 
ATOM      8  C   UNL     1       1.505   8.292  20.167  0.00  0.00    +0.000 A 
ATOM      9  N   UNL     1       0.229   9.429  21.851  0.00  0.00    +0.000 N 
ATOM     10  C   UNL     1      -0.379  10.511  22.432  0.00  0.00    +0.000 C 
ATOM     11  O   UNL     1      -0.766  10.433  23.599  0.00  0.00    +0.000 OA
ATOM     12  C   UNL     1      -0.396  11.816  21.668  0.00  0.00    +0.000 C 
ATOM     13  S   UNL     1      -0.882  11.595  19.941  0.00  0.00    +0.000 S 
ATOM     14  H   UNL     1       0.365   8.640  22.471  0.00  0.00    +0.000 HD
ENDBRANCH   1   3
BRANCH   1  15
ATOM     15  O   UNL     1       3.146   6.228  19.443  0.00  0.00    +0.000 OA
BRANCH  15  17
ATOM     16  C   UNL     1       1.770   4.389  20.200  0.00  0.00    +0.000 C 
ATOM     17  C   UNL     1       2.718   4.895  19.113  0.00  0.00    +0.000 C 
BRANCH  17  18
ATOM     18  C   UNL     1       3.937   3.967  19.010  0.00  0.00    +0.000 C 
ATOM     19  O   UNL     1       4.092   3.005  19.763  0.00  0.00    +0.000 OA
BRANCH  18  20
ATOM     20  C   UNL     1       4.963   4.194  17.941  0.00  0.00    +0.000 A 
ATOM     21  C   UNL     1       6.240   4.707  18.207  0.00  0.00    +0.000 A 
ATOM     22  C   UNL     1       7.148   4.902  17.160  0.00  0.00    +0.000 A 
ATOM     23  C   UNL     1       6.779   4.593  15.855  0.00  0.00    +0.000 A 
ATOM     24  F   UNL     1       7.653   4.787  14.859  0.00  0.00    +0.000 F 
ATOM     25  C   UNL     1       5.517   4.091  15.571  0.00  0.00    +0.000 A 
ATOM     26  C   UNL     1       4.611   3.890  16.615  0.00  0.00    +0.000 A 
ENDBRANCH  18  20
ENDBRANCH  17  18
ENDBRANCH  15  17
ENDBRANCH   1  15
TORSDOF 5
ENDMDL
MODEL 5
REMARK VINA RESULT:      -8.0      1.978      2.617
REMARK  Name = 
REMARK  6 active torsions:
REMARK  status: ('A' for Active; 'I' for Inactive)
REMARK    1  A    between atoms: C_1  and  C_2
REMARK    2  A    between atoms: C_2  and  O_3
REMARK    3  A    between atoms: C_2  and  C_17
REMARK    4  A    between atoms: O_3  and  C_4
REMARK    5  A    between atoms: C_4  and  C_6
REMARK    6  A    between atoms: C_17  and  C_19
REMARK                            x       y       z     vdW  Elec       q    Type
REMARK                         _______ _______ _______ _____ _____    ______ ____
ROOT
ATOM      1  C   UNL     1       2.427   5.251  20.283  0.00  0.00    +0.000 C 
ATOM      2  O   UNL     1       1.679   4.473  20.854  0.00  0.00    +0.000 OA
ENDROOT
BRANCH   1   3
ATOM      3  C   UNL     1       2.031   6.639  19.922  0.00  0.00    +0.000 A 
ATOM      4  C   UNL     1       2.341   7.106  18.636  0.00  0.00    +0.000 A 
ATOM      5  C   UNL     1       2.057   8.426  18.278  0.00  0.00    +0.000 A 
ATOM      6  C   UNL     1       1.486   9.298  19.209  0.00  0.00    +0.000 A 
ATOM      7  C   UNL     1       1.157   8.827  20.489  0.00  0.00    +0.000 A 
ATOM      8  C   UNL     1       1.409   7.496  20.836  0.00  0.00    +0.000 A 
ATOM      9  N   UNL     1       0.558   9.653  21.453  0.00  0.00    +0.000 N 
ATOM     10  C   UNL     1       0.472  11.019  21.397  0.00  0.00    +0.000 C 
ATOM     11  O   UNL     1      -0.141  11.624  22.277  0.00  0.00    +0.000 OA
ATOM     12  C   UNL     1       1.284  11.741  20.345  0.00  0.00    +0.000 C 
ATOM     13  S   UNL     1       1.137  10.973  18.716  0.00  0.00    +0.000 S 
ATOM     14  H   UNL     1       0.137   9.239  22.277  0.00  0.00    +0.000 HD
ENDBRANCH   1   3
BRANCH   1  15
ATOM     15  O   UNL     1       3.682   4.970  19.854  0.00  0.00    +0.000 OA
BRANCH  15  17
ATOM     16  C   UNL     1       4.382   2.655  19.818  0.00  0.00    +0.000 C 
ATOM     17  C   UNL     1       3.796   3.812  19.008  0.00  0.00    +0.000 C 
BRANCH  17  18
ATOM     18  C   UNL     1       4.709   4.128  17.815  0.00  0.00    +0.000 C 
ATOM     19  O   UNL     1       4.584   3.562  16.727  0.00  0.00    +0.000 OA
BRANCH  18  20
ATOM     20  C   UNL     1       5.767   5.183  17.938  0.00  0.00    +0.000 A 
ATOM     21  C   UNL     1       6.861   5.066  18.806  0.00  0.00    +0.000 A 
ATOM     22  C   UNL     1       7.809   6.094  18.878  0.00  0.00    +0.000 A 
ATOM     23  C   UNL     1       7.660   7.233  18.094  0.00  0.00    +0.000 A 
ATOM     24  F   UNL     1       8.569   8.212  18.173  0.00  0.00    +0.000 F 
ATOM     25  C   UNL     1       6.579   7.369  17.234  0.00  0.00    +0.000 A 
ATOM     26  C   UNL     1       5.635   6.343  17.156  0.00  0.00    +0.000 A 
ENDBRANCH  18  20
ENDBRANCH  17  18
ENDBRANCH  15  17
ENDBRANCH   1  15
TORSDOF 5
ENDMDL
MODEL 6
REMARK VINA RESULT:      -7.9      2.584      4.028
REMARK  Name = 
REMARK  6 active torsions:
REMARK  status: ('A' for Active; 'I' for Inactive)
REMARK    1  A    between atoms: C_1  and  C_2
REMARK    2  A    between atoms: C_2  and  O_3
REMARK    3  A    between atoms: C_2  and  C_17
REMARK    4  A    between atoms: O_3  and  C_4
REMARK    5  A    between atoms: C_4  and  C_6
REMARK    6  A    between atoms: C_17  and  C_19
REMARK                            x       y       z     vdW  Elec       q    Type
REMARK                         _______ _______ _______ _____ _____    ______ ____
ROOT
ATOM      1  C   UNL     1       3.888   6.054  18.688  0.00  0.00    +0.000 C 
ATOM      2  O   UNL     1       4.785   5.838  19.488  0.00  0.00    +0.000 OA
ENDROOT
BRANCH   1   3
ATOM      3  C   UNL     1       2.882   7.133  18.871  0.00  0.00    +0.000 A 
ATOM      4  C   UNL     1       2.680   8.040  17.820  0.00  0.00    +0.000 A 
ATOM      5  C   UNL     1       1.800   9.114  17.975  0.00  0.00    +0.000 A 
ATOM      6  C   UNL     1       1.134   9.307  19.189  0.00  0.00    +0.000 A 
ATOM      7  C   UNL     1       1.320   8.389  20.234  0.00  0.00    +0.000 A 
ATOM      8  C   UNL     1       2.173   7.294  20.067  0.00  0.00    +0.000 A 
ATOM      9  N   UNL     1       0.656   8.520  21.463  0.00  0.00    +0.000 N 
ATOM     10  C   UNL     1      -0.003   9.638  21.904  0.00  0.00    +0.000 C 
ATOM     11  O   UNL     1      -0.605   9.603  22.977  0.00  0.00    +0.000 OA
ATOM     12  C   UNL     1       0.183  10.925  21.131  0.00  0.00    +0.000 C 
ATOM     13  S   UNL     1       0.020  10.686  19.347  0.00  0.00    +0.000 S 
ATOM     14  H   UNL     1       0.637   7.739  22.110  0.00  0.00    +0.000 HD
ENDBRANCH   1   3
BRANCH   1  15
ATOM     15  O   UNL     1       3.642   5.336  17.564  0.00  0.00    +0.000 OA
BRANCH  15  17
ATOM     16  C   UNL     1       4.914   4.148  15.885  0.00  0.00    +0.000 C 
ATOM     17  C   UNL     1       4.505   4.205  17.357  0.00  0.00    +0.000 C 
BRANCH  17  18
ATOM     18  C   UNL     1       3.772   2.913  17.746  0.00  0.00    +0.000 C 
ATOM     19  O   UNL     1       3.817   1.899  17.047  0.00  0.00    +0.000 OA
BRANCH  18  20
ATOM     20  C   UNL     1       3.004   2.844  19.032  0.00  0.00    +0.000 A 
ATOM     21  C   UNL     1       3.611   2.584  20.268  0.00  0.00    +0.000 A 
ATOM     22  C   UNL     1       2.833   2.526  21.430  0.00  0.00    +0.000 A 
ATOM     23  C   UNL     1       1.457   2.718  21.355  0.00  0.00    +0.000 A 
ATOM     24  F   UNL     1       0.721   2.656  22.472  0.00  0.00    +0.000 F 
ATOM     25  C   UNL     1       0.838   2.969  20.139  0.00  0.00    +0.000 A 
ATOM     26  C   UNL     1       1.613   3.034  18.979  0.00  0.00    +0.000 A 
ENDBRANCH  18  20
ENDBRANCH  17  18
ENDBRANCH  15  17
ENDBRANCH   1  15
TORSDOF 5
ENDMDL
MODEL 7
REMARK VINA RESULT:      -7.9      1.788      2.355
REMARK  Name = 
REMARK  6 active torsions:
REMARK  status: ('A' for Active; 'I' for Inactive)
REMARK    1  A    between atoms: C_1  and  C_2
REMARK    2  A    between atoms: C_2  and  O_3
REMARK    3  A    between atoms: C_2  and  C_17
REMARK    4  A    between atoms: O_3  and  C_4
REMARK    5  A    between atoms: C_4  and  C_6
REMARK    6  A    between atoms: C_17  and  C_19
REMARK                            x       y       z     vdW  Elec       q    Type
REMARK                         _______ _______ _______ _____ _____    ______ ____
ROOT
ATOM      1  C   UNL     1       2.716   6.915  18.844  0.00  0.00    +0.000 C 
ATOM      2  O   UNL     1       3.099   6.893  17.685  0.00  0.00    +0.000 OA
ENDROOT
BRANCH   1   3
ATOM      3  C   UNL     1       1.937   8.044  19.419  0.00  0.00    +0.000 A 
ATOM      4  C   UNL     1       1.515   7.949  20.754  0.00  0.00    +0.000 A 
ATOM      5  C   UNL     1       0.718   8.950  21.314  0.00  0.00    +0.000 A 
ATOM      6  C   UNL     1       0.311  10.039  20.539  0.00  0.00    +0.000 A 
ATOM      7  C   UNL     1       0.748  10.145  19.209  0.00  0.00    +0.000 A 
ATOM      8  C   UNL     1       1.576   9.162  18.660  0.00  0.00    +0.000 A 
ATOM      9  N   UNL     1       0.392  11.231  18.395  0.00  0.00    +0.000 N 
ATOM     10  C   UNL     1      -0.598  12.140  18.660  0.00  0.00    +0.000 C 
ATOM     11  O   UNL     1      -0.768  13.091  17.895  0.00  0.00    +0.000 OA
ATOM     12  C   UNL     1      -1.557  11.842  19.791  0.00  0.00    +0.000 C 
ATOM     13  S   UNL     1      -0.705  11.295  21.288  0.00  0.00    +0.000 S 
ATOM     14  H   UNL     1       0.890  11.393  17.527  0.00  0.00    +0.000 HD
ENDBRANCH   1   3
BRANCH   1  15
ATOM     15  O   UNL     1       2.976   5.969  19.780  0.00  0.00    +0.000 OA
BRANCH  15  17
ATOM     16  C   UNL     1       1.621   4.119  20.551  0.00  0.00    +0.000 C 
ATOM     17  C   UNL     1       2.540   4.640  19.445  0.00  0.00    +0.000 C 
BRANCH  17  18
ATOM     18  C   UNL     1       3.757   3.715  19.299  0.00  0.00    +0.000 C 
ATOM     19  O   UNL     1       3.907   2.715  20.003  0.00  0.00    +0.000 OA
BRANCH  18  20
ATOM     20  C   UNL     1       4.788   3.993  18.247  0.00  0.00    +0.000 A 
ATOM     21  C   UNL     1       6.062   4.495  18.542  0.00  0.00    +0.000 A 
ATOM     22  C   UNL     1       6.975   4.740  17.509  0.00  0.00    +0.000 A 
ATOM     23  C   UNL     1       6.612   4.491  16.189  0.00  0.00    +0.000 A 
ATOM     24  F   UNL     1       7.490   4.733  15.208  0.00  0.00    +0.000 F 
ATOM     25  C   UNL     1       5.353   4.000  15.877  0.00  0.00    +0.000 A 
ATOM     26  C   UNL     1       4.442   3.750  16.906  0.00  0.00    +0.000 A 
ENDBRANCH  18  20
ENDBRANCH  17  18
ENDBRANCH  15  17
ENDBRANCH   1  15
TORSDOF 5
ENDMDL
MODEL 8
REMARK VINA RESULT:      -7.8      4.436      8.189
REMARK  Name = 
REMARK  6 active torsions:
REMARK  status: ('A' for Active; 'I' for Inactive)
REMARK    1  A    between atoms: C_1  and  C_2
REMARK    2  A    between atoms: C_2  and  O_3
REMARK    3  A    between atoms: C_2  and  C_17
REMARK    4  A    between atoms: O_3  and  C_4
REMARK    5  A    between atoms: C_4  and  C_6
REMARK    6  A    between atoms: C_17  and  C_19
REMARK                            x       y       z     vdW  Elec       q    Type
REMARK                         _______ _______ _______ _____ _____    ______ ____
ROOT
ATOM      1  C   UNL     1       1.974   8.895  18.200  0.00  0.00    +0.000 C 
ATOM      2  O   UNL     1       2.426   9.662  17.365  0.00  0.00    +0.000 OA
ENDROOT
BRANCH   1   3
ATOM      3  C   UNL     1       2.613   7.595  18.537  0.00  0.00    +0.000 A 
ATOM      4  C   UNL     1       3.591   7.089  17.668  0.00  0.00    +0.000 A 
ATOM      5  C   UNL     1       4.164   5.837  17.904  0.00  0.00    +0.000 A 
ATOM      6  C   UNL     1       3.746   5.068  18.994  0.00  0.00    +0.000 A 
ATOM      7  C   UNL     1       2.782   5.581  19.875  0.00  0.00    +0.000 A 
ATOM      8  C   UNL     1       2.234   6.849  19.660  0.00  0.00    +0.000 A 
ATOM      9  N   UNL     1       2.347   4.863  20.999  0.00  0.00    +0.000 N 
ATOM     10  C   UNL     1       2.565   3.530  21.233  0.00  0.00    +0.000 C 
ATOM     11  O   UNL     1       2.187   3.032  22.294  0.00  0.00    +0.000 OA
ATOM     12  C   UNL     1       3.108   2.688  20.101  0.00  0.00    +0.000 C 
ATOM     13  S   UNL     1       4.500   3.478  19.262  0.00  0.00    +0.000 S 
ATOM     14  H   UNL     1       1.824   5.337  21.727  0.00  0.00    +0.000 HD
ENDBRANCH   1   3
BRANCH   1  15
ATOM     15  O   UNL     1       0.825   9.074  18.898  0.00  0.00    +0.000 OA
BRANCH  15  17
ATOM     16  C   UNL     1       0.004   9.985  20.982  0.00  0.00    +0.000 C 
ATOM     17  C   UNL     1       0.769  10.273  19.691  0.00  0.00    +0.000 C 
BRANCH  17  18
ATOM     18  C   UNL     1       0.063  11.385  18.902  0.00  0.00    +0.000 C 
ATOM     19  O   UNL     1       0.659  12.388  18.506  0.00  0.00    +0.000 OA
BRANCH  18  20
ATOM     20  C   UNL     1      -1.390  11.252  18.556  0.00  0.00    +0.000 A 
ATOM     21  C   UNL     1      -2.386  12.057  19.124  0.00  0.00    +0.000 A 
ATOM     22  C   UNL     1      -3.726  11.873  18.761  0.00  0.00    +0.000 A 
ATOM     23  C   UNL     1      -4.067  10.886  17.843  0.00  0.00    +0.000 A 
ATOM     24  F   UNL     1      -5.351  10.715  17.505  0.00  0.00    +0.000 F 
ATOM     25  C   UNL     1      -3.096  10.074  17.275  0.00  0.00    +0.000 A 
ATOM     26  C   UNL     1      -1.758  10.259  17.630  0.00  0.00    +0.000 A 
ENDBRANCH  18  20
ENDBRANCH  17  18
ENDBRANCH  15  17
ENDBRANCH   1  15
TORSDOF 5
ENDMDL
MODEL 9
REMARK VINA RESULT:      -7.8      4.033      6.725
REMARK  Name = 
REMARK  6 active torsions:
REMARK  status: ('A' for Active; 'I' for Inactive)
REMARK    1  A    between atoms: C_1  and  C_2
REMARK    2  A    between atoms: C_2  and  O_3
REMARK    3  A    between atoms: C_2  and  C_17
REMARK    4  A    between atoms: O_3  and  C_4
REMARK    5  A    between atoms: C_4  and  C_6
REMARK    6  A    between atoms: C_17  and  C_19
REMARK                            x       y       z     vdW  Elec       q    Type
REMARK                         _______ _______ _______ _____ _____    ______ ____
ROOT
ATOM      1  C   UNL     1       4.309   2.229  20.279  0.00  0.00    +0.000 C 
ATOM      2  O   UNL     1       5.177   1.845  21.047  0.00  0.00    +0.000 OA
ENDROOT
BRANCH   1   3
ATOM      3  C   UNL     1       4.598   3.055  19.077  0.00  0.00    +0.000 A 
ATOM      4  C   UNL     1       4.121   2.613  17.835  0.00  0.00    +0.000 A 
ATOM      5  C   UNL     1       4.432   3.316  16.669  0.00  0.00    +0.000 A 
ATOM      6  C   UNL     1       5.244   4.452  16.729  0.00  0.00    +0.000 A 
ATOM      7  C   UNL     1       5.706   4.907  17.974  0.00  0.00    +0.000 A 
ATOM      8  C   UNL     1       5.366   4.224  19.145  0.00  0.00    +0.000 A 
ATOM      9  N   UNL     1       6.503   6.057  18.095  0.00  0.00    +0.000 N 
ATOM     10  C   UNL     1       7.144   6.699  17.068  0.00  0.00    +0.000 C 
ATOM     11  O   UNL     1       7.759   7.741  17.297  0.00  0.00    +0.000 OA
ATOM     12  C   UNL     1       7.213   6.006  15.726  0.00  0.00    +0.000 C 
ATOM     13  S   UNL     1       5.618   5.322  15.222  0.00  0.00    +0.000 S 
ATOM     14  H   UNL     1       6.637   6.481  19.005  0.00  0.00    +0.000 HD
ENDBRANCH   1   3
BRANCH   1  15
ATOM     15  O   UNL     1       2.978   2.015  20.421  0.00  0.00    +0.000 OA
BRANCH  15  17
ATOM     16  C   UNL     1       1.378   2.527  22.160  0.00  0.00    +0.000 C 
ATOM     17  C   UNL     1       2.245   3.090  21.034  0.00  0.00    +0.000 C 
BRANCH  17  18
ATOM     18  C   UNL     1       1.358   3.778  19.986  0.00  0.00    +0.000 C 
ATOM     19  O   UNL     1       0.342   3.246  19.537  0.00  0.00    +0.000 OA
BRANCH  18  20
ATOM     20  C   UNL     1       1.694   5.160  19.511  0.00  0.00    +0.000 A 
ATOM     21  C   UNL     1       1.981   5.455  18.171  0.00  0.00    +0.000 A 
ATOM     22  C   UNL     1       2.296   6.767  17.796  0.00  0.00    +0.000 A 
ATOM     23  C   UNL     1       2.331   7.774  18.755  0.00  0.00    +0.000 A 
ATOM     24  F   UNL     1       2.638   9.024  18.387  0.00  0.00    +0.000 F 
ATOM     25  C   UNL     1       2.057   7.499  20.087  0.00  0.00    +0.000 A 
ATOM     26  C   UNL     1       1.737   6.192  20.463  0.00  0.00    +0.000 A 
ENDBRANCH  18  20
ENDBRANCH  17  18
ENDBRANCH  15  17
ENDBRANCH   1  15
TORSDOF 5
ENDMDL
