MODEL 1
REMARK VINA RESULT:      -7.8      0.000      0.000
REMARK  Name = 
REMARK  4 active torsions:
REMARK  status: ('A' for Active; 'I' for Inactive)
REMARK    1  A    between atoms: C_2  and  C_10
REMARK    2  A    between atoms: N_3  and  C_4
REMARK    3  A    between atoms: CA_13  and  C_14
REMARK    4  A    between atoms: C_14  and  OXT_16
REMARK                            x       y       z     vdW  Elec       q    Type
REMARK                         _______ _______ _______ _____ _____    ______ ____
ROOT
ATOM      1  O   UNL     1       5.731   4.961  19.015  0.00  0.00    +0.000 OA
ATOM      2  C   UNL     1       5.091   4.546  18.057  0.00  0.00    +0.000 C 
ATOM      3  N   UNL     1       3.863   3.907  18.082  0.00  0.00    +0.000 N 
ATOM      4  H   UNL     1       3.555   3.444  17.236  0.00  0.00    +0.000 HD
ENDROOT
BRANCH   3   5
ATOM      5  C   UNL     1       3.086   3.656  19.235  0.00  0.00    +0.000 A 
ATOM      6  C   UNL     1       3.475   2.773  20.243  0.00  0.00    +0.000 A 
ATOM      7  C   UNL     1       2.643   2.535  21.341  0.00  0.00    +0.000 A 
ATOM      8  C   UNL     1       1.414   3.182  21.440  0.00  0.00    +0.000 A 
ATOM      9  C   UNL     1       1.027   4.085  20.452  0.00  0.00    +0.000 A 
ATOM     10  C   UNL     1       1.864   4.330  19.360  0.00  0.00    +0.000 A 
ENDBRANCH   3   5
BRANCH   2  11
ATOM     11  C   UNL     1       5.719   4.655  16.723  0.00  0.00    +0.000 A 
ATOM     12  C   UNL     1       5.209   4.018  15.589  0.00  0.00    +0.000 A 
ATOM     13  C   UNL     1       5.867   4.176  14.369  0.00  0.00    +0.000 A 
ATOM     14  CA  UNL     1       7.013   4.963  14.338  0.00  0.00    +0.000 A 
ATOM     15  N   UNL     1       7.530   5.616  15.419  0.00  0.00    +0.000 NA
ATOM     16  C   UNL     1       6.855   5.452  16.587  0.00  0.00    +0.000 A 
BRANCH  14  17
ATOM     17  C   UNL     1       7.772   5.136  13.066  0.00  0.00    +0.000 C 
ATOM     18  O   UNL     1       7.484   4.607  12.008  0.00  0.00    +0.000 OA
BRANCH  17  19
ATOM     19  OXT UNL     1       8.837   5.950  13.256  0.00  0.00    +0.000 OA
ATOM     20  HXT UNL     1       9.372   5.604  14.009  0.00  0.00    +0.000 HD
ENDBRANCH  17  19
ENDBRANCH  14  17
ENDBRANCH   2  11
TORSDOF 4
ENDMDL
MODEL 2
REMARK VINA RESULT:      -7.7      0.176      1.372
REMARK  Name = 
REMARK  4 active torsions:
REMARK  status: ('A' for Active; 'I' for Inactive)
REMARK    1  A    between atoms: C_2  and  C_10
REMARK    2  A    between atoms: N_3  and  C_4
REMARK    3  A    between atoms: CA_13  and  C_14
REMARK    4  A    between atoms: C_14  and  OXT_16
REMARK                            x       y       z     vdW  Elec       q    Type
REMARK                         _______ _______ _______ _____ _____    ______ ____
ROOT
ATOM      1  O   UNL     1       5.480   5.172  19.025  0.00  0.00    +0.000 OA
ATOM      2  C   UNL     1       4.948   4.635  18.063  0.00  0.00    +0.000 C 
ATOM      3  N   UNL     1       3.794   3.869  18.061  0.00  0.00    +0.000 N 
ATOM      4  H   UNL     1       3.589   3.327  17.231  0.00  0.00    +0.000 HD
ENDROOT
BRANCH   3   5
ATOM      5  C   UNL     1       2.979   3.602  19.183  0.00  0.00    +0.000 A 
ATOM      6  C   UNL     1       1.704   4.145  19.350  0.00  0.00    +0.000 A 
ATOM      7  C   UNL     1       0.961   3.875  20.503  0.00  0.00    +0.000 A 
ATOM      8  C   UNL     1       1.488   3.057  21.498  0.00  0.00    +0.000 A 
ATOM      9  C   UNL     1       2.749   2.489  21.331  0.00  0.00    +0.000 A 
ATOM     10  C   UNL     1       3.487   2.750  20.173  0.00  0.00    +0.000 A 
ENDBRANCH   3   5
BRANCH   2  11
ATOM     11  C   UNL     1       5.641   4.734  16.761  0.00  0.00    +0.000 A 
ATOM     12  C   UNL     1       5.233   4.028  15.626  0.00  0.00    +0.000 A 
ATOM     13  C   UNL     1       5.947   4.182  14.438  0.00  0.00    +0.000 A 
ATOM     14  CA  UNL     1       7.045   5.036  14.437  0.00  0.00    +0.000 A 
ATOM     15  N   UNL     1       7.462   5.756  15.519  0.00  0.00    +0.000 NA
ATOM     16  C   UNL     1       6.735   5.593  16.654  0.00  0.00    +0.000 A 
BRANCH  14  17
ATOM     17  C   UNL     1       7.862   5.208  13.202  0.00  0.00    +0.000 C 
ATOM     18  O   UNL     1       8.836   5.932  13.109  0.00  0.00    +0.000 OA
BRANCH  17  19
ATOM     19  OXT UNL     1       7.359   4.459  12.192  0.00  0.00    +0.000 OA
ATOM     20  HXT UNL     1       7.738   4.779  11.340  0.00  0.00    +0.000 HD
ENDBRANCH  17  19
ENDBRANCH  14  17
ENDBRANCH   2  11
TORSDOF 4
ENDMDL
MODEL 3
REMARK VINA RESULT:      -7.3      0.705      1.032
REMARK  Name = 
REMARK  4 active torsions:
REMARK  status: ('A' for Active; 'I' for Inactive)
REMARK    1  A    between atoms: C_2  and  C_10
REMARK    2  A    between atoms: N_3  and  C_4
REMARK    3  A    between atoms: CA_13  and  C_14
REMARK    4  A    between atoms: C_14  and  OXT_16
REMARK                            x       y       z     vdW  Elec       q    Type
REMARK                         _______ _______ _______ _____ _____    ______ ____
ROOT
ATOM      1  O   UNL     1       5.825   4.121  19.068  0.00  0.00    +0.000 OA
ATOM      2  C   UNL     1       5.089   4.171  18.092  0.00  0.00    +0.000 C 
ATOM      3  N   UNL     1       3.724   3.938  18.057  0.00  0.00    +0.000 N 
ATOM      4  H   UNL     1       3.289   3.818  17.151  0.00  0.00    +0.000 HD
ENDROOT
BRANCH   3   5
ATOM      5  C   UNL     1       2.909   3.639  19.172  0.00  0.00    +0.000 A 
ATOM      6  C   UNL     1       2.474   2.349  19.479  0.00  0.00    +0.000 A 
ATOM      7  C   UNL     1       1.635   2.124  20.574  0.00  0.00    +0.000 A 
ATOM      8  C   UNL     1       1.226   3.187  21.372  0.00  0.00    +0.000 A 
ATOM      9  C   UNL     1       1.674   4.476  21.091  0.00  0.00    +0.000 A 
ATOM     10  C   UNL     1       2.523   4.700  20.002  0.00  0.00    +0.000 A 
ENDBRANCH   3   5
BRANCH   2  11
ATOM     11  C   UNL     1       5.718   4.429  16.779  0.00  0.00    +0.000 A 
ATOM     12  C   UNL     1       4.986   4.537  15.593  0.00  0.00    +0.000 A 
ATOM     13  C   UNL     1       5.663   4.781  14.398  0.00  0.00    +0.000 A 
ATOM     14  CA  UNL     1       7.048   4.903  14.441  0.00  0.00    +0.000 A 
ATOM     15  N   UNL     1       7.794   4.825  15.581  0.00  0.00    +0.000 NA
ATOM     16  C   UNL     1       7.101   4.601  16.727  0.00  0.00    +0.000 A 
BRANCH  14  17
ATOM     17  C   UNL     1       7.821   5.131  13.186  0.00  0.00    +0.000 C 
ATOM     18  O   UNL     1       8.764   5.894  13.080  0.00  0.00    +0.000 OA
BRANCH  17  19
ATOM     19  OXT UNL     1       7.318   4.381  12.176  0.00  0.00    +0.000 OA
ATOM     20  HXT UNL     1       7.809   3.527  12.140  0.00  0.00    +0.000 HD
ENDBRANCH  17  19
ENDBRANCH  14  17
ENDBRANCH   2  11
TORSDOF 4
ENDMDL
MODEL 4
REMARK VINA RESULT:      -7.2      2.292      7.434
REMARK  Name = 
REMARK  4 active torsions:
REMARK  status: ('A' for Active; 'I' for Inactive)
REMARK    1  A    between atoms: C_2  and  C_10
REMARK    2  A    between atoms: N_3  and  C_4
REMARK    3  A    between atoms: CA_13  and  C_14
REMARK    4  A    between atoms: C_14  and  OXT_16
REMARK                            x       y       z     vdW  Elec       q    Type
REMARK                         _______ _______ _______ _____ _____    ______ ____
ROOT
ATOM      1  O   UNL     1       4.739   6.142  16.270  0.00  0.00    +0.000 OA
ATOM      2  C   UNL     1       4.735   4.935  16.474  0.00  0.00    +0.000 C 
ATOM      3  N   UNL     1       5.310   3.950  15.688  0.00  0.00    +0.000 N 
ATOM      4  H   UNL     1       5.053   2.989  15.874  0.00  0.00    +0.000 HD
ENDROOT
BRANCH   3   5
ATOM      5  C   UNL     1       6.061   4.166  14.512  0.00  0.00    +0.000 A 
ATOM      6  C   UNL     1       7.177   5.003  14.457  0.00  0.00    +0.000 A 
ATOM      7  C   UNL     1       7.855   5.208  13.252  0.00  0.00    +0.000 A 
ATOM      8  C   UNL     1       7.423   4.575  12.091  0.00  0.00    +0.000 A 
ATOM      9  C   UNL     1       6.326   3.717  12.138  0.00  0.00    +0.000 A 
ATOM     10  C   UNL     1       5.655   3.504  13.346  0.00  0.00    +0.000 A 
ENDBRANCH   3   5
BRANCH   2  11
ATOM     11  C   UNL     1       3.968   4.446  17.639  0.00  0.00    +0.000 A 
ATOM     12  C   UNL     1       2.599   4.677  17.799  0.00  0.00    +0.000 A 
ATOM     13  C   UNL     1       1.955   4.178  18.931  0.00  0.00    +0.000 A 
ATOM     14  CA  UNL     1       2.711   3.470  19.859  0.00  0.00    +0.000 A 
ATOM     15  N   UNL     1       4.044   3.207  19.727  0.00  0.00    +0.000 NA
ATOM     16  C   UNL     1       4.635   3.695  18.606  0.00  0.00    +0.000 A 
BRANCH  14  17
ATOM     17  C   UNL     1       2.077   2.945  21.102  0.00  0.00    +0.000 C 
ATOM     18  O   UNL     1       2.686   2.537  22.074  0.00  0.00    +0.000 OA
BRANCH  17  19
ATOM     19  OXT UNL     1       0.727   2.971  20.993  0.00  0.00    +0.000 OA
ATOM     20  HXT UNL     1       0.376   3.693  21.565  0.00  0.00    +0.000 HD
ENDBRANCH  17  19
ENDBRANCH  14  17
ENDBRANCH   2  11
TORSDOF 4
ENDMDL
MODEL 5
REMARK VINA RESULT:      -7.0      1.007      1.490
REMARK  Name = 
REMARK  4 active torsions:
REMARK  status: ('A' for Active; 'I' for Inactive)
REMARK    1  A    between atoms: C_2  and  C_10
REMARK    2  A    between atoms: N_3  and  C_4
REMARK    3  A    between atoms: CA_13  and  C_14
REMARK    4  A    between atoms: C_14  and  OXT_16
REMARK                            x       y       z     vdW  Elec       q    Type
REMARK                         _______ _______ _______ _____ _____    ______ ____
ROOT
ATOM      1  O   UNL     1       3.540   5.853  17.907  0.00  0.00    +0.000 OA
ATOM      2  C   UNL     1       3.938   4.761  17.524  0.00  0.00    +0.000 C 
ATOM      3  N   UNL     1       3.676   3.525  18.091  0.00  0.00    +0.000 N 
ATOM      4  H   UNL     1       4.234   2.738  17.787  0.00  0.00    +0.000 HD
ENDROOT
BRANCH   3   5
ATOM      5  C   UNL     1       2.846   3.290  19.210  0.00  0.00    +0.000 A 
ATOM      6  C   UNL     1       1.478   3.567  19.221  0.00  0.00    +0.000 A 
ATOM      7  C   UNL     1       0.718   3.350  20.374  0.00  0.00    +0.000 A 
ATOM      8  C   UNL     1       1.320   2.853  21.526  0.00  0.00    +0.000 A 
ATOM      9  C   UNL     1       2.679   2.549  21.519  0.00  0.00    +0.000 A 
ATOM     10  C   UNL     1       3.437   2.756  20.362  0.00  0.00    +0.000 A 
ENDBRANCH   3   5
BRANCH   2  11
ATOM     11  C   UNL     1       4.870   4.743  16.376  0.00  0.00    +0.000 A 
ATOM     12  C   UNL     1       5.331   3.561  15.790  0.00  0.00    +0.000 A 
ATOM     13  C   UNL     1       6.210   3.637  14.710  0.00  0.00    +0.000 A 
ATOM     14  CA  UNL     1       6.595   4.897  14.264  0.00  0.00    +0.000 A 
ATOM     15  N   UNL     1       6.151   6.073  14.797  0.00  0.00    +0.000 NA
ATOM     16  C   UNL     1       5.285   5.960  15.837  0.00  0.00    +0.000 A 
BRANCH  14  17
ATOM     17  C   UNL     1       7.559   5.033  13.135  0.00  0.00    +0.000 C 
ATOM     18  O   UNL     1       7.416   4.532  12.035  0.00  0.00    +0.000 OA
BRANCH  17  19
ATOM     19  OXT UNL     1       8.626   5.780  13.509  0.00  0.00    +0.000 OA
ATOM     20  HXT UNL     1       8.854   5.561  14.443  0.00  0.00    +0.000 HD
ENDBRANCH  17  19
ENDBRANCH  14  17
ENDBRANCH   2  11
TORSDOF 4
ENDMDL
MODEL 6
REMARK VINA RESULT:      -6.9      2.323      7.485
REMARK  Name = 
REMARK  4 active torsions:
REMARK  status: ('A' for Active; 'I' for Inactive)
REMARK    1  A    between atoms: C_2  and  C_10
REMARK    2  A    between atoms: N_3  and  C_4
REMARK    3  A    between atoms: CA_13  and  C_14
REMARK    4  A    between atoms: C_14  and  OXT_16
REMARK                            x       y       z     vdW  Elec       q    Type
REMARK                         _______ _______ _______ _____ _____    ______ ____
ROOT
ATOM      1  O   UNL     1       4.814   6.247  16.252  0.00  0.00    +0.000 OA
ATOM      2  C   UNL     1       4.766   5.049  16.498  0.00  0.00    +0.000 C 
ATOM      3  N   UNL     1       5.240   4.012  15.713  0.00  0.00    +0.000 N 
ATOM      4  H   UNL     1       4.951   3.071  15.949  0.00  0.00    +0.000 HD
ENDROOT
BRANCH   3   5
ATOM      5  C   UNL     1       5.922   4.151  14.484  0.00  0.00    +0.000 A 
ATOM      6  C   UNL     1       5.524   3.508  13.310  0.00  0.00    +0.000 A 
ATOM      7  C   UNL     1       6.264   3.654  12.134  0.00  0.00    +0.000 A 
ATOM      8  C   UNL     1       7.408   4.447  12.121  0.00  0.00    +0.000 A 
ATOM      9  C   UNL     1       7.800   5.114  13.279  0.00  0.00    +0.000 A 
ATOM     10  C   UNL     1       7.053   4.976  14.453  0.00  0.00    +0.000 A 
ENDBRANCH   3   5
BRANCH   2  11
ATOM     11  C   UNL     1       4.054   4.637  17.727  0.00  0.00    +0.000 A 
ATOM     12  C   UNL     1       3.840   5.498  18.806  0.00  0.00    +0.000 A 
ATOM     13  C   UNL     1       3.159   5.024  19.927  0.00  0.00    +0.000 A 
ATOM     14  CA  UNL     1       2.723   3.703  19.921  0.00  0.00    +0.000 A 
ATOM     15  N   UNL     1       2.895   2.839  18.878  0.00  0.00    +0.000 NA
ATOM     16  C   UNL     1       3.550   3.339  17.799  0.00  0.00    +0.000 A 
BRANCH  14  17
ATOM     17  C   UNL     1       2.019   3.138  21.108  0.00  0.00    +0.000 C 
ATOM     18  O   UNL     1       2.564   2.807  22.145  0.00  0.00    +0.000 OA
BRANCH  17  19
ATOM     19  OXT UNL     1       0.691   3.030  20.866  0.00  0.00    +0.000 OA
ATOM     20  HXT UNL     1       0.533   2.227  20.315  0.00  0.00    +0.000 HD
ENDBRANCH  17  19
ENDBRANCH  14  17
ENDBRANCH   2  11
TORSDOF 4
ENDMDL
MODEL 7
REMARK VINA RESULT:      -6.9      2.330      7.462
REMARK  Name = 
REMARK  4 active torsions:
REMARK  status: ('A' for Active; 'I' for Inactive)
REMARK    1  A    between atoms: C_2  and  C_10
REMARK    2  A    between atoms: N_3  and  C_4
REMARK    3  A    between atoms: CA_13  and  C_14
REMARK    4  A    between atoms: C_14  and  OXT_16
REMARK                            x       y       z     vdW  Elec       q    Type
REMARK                         _______ _______ _______ _____ _____    ______ ____
ROOT
ATOM      1  O   UNL     1       4.816   5.960  16.349  0.00  0.00    +0.000 OA
ATOM      2  C   UNL     1       4.812   4.744  16.487  0.00  0.00    +0.000 C 
ATOM      3  N   UNL     1       5.332   3.799  15.620  0.00  0.00    +0.000 N 
ATOM      4  H   UNL     1       5.077   2.830  15.768  0.00  0.00    +0.000 HD
ENDROOT
BRANCH   3   5
ATOM      5  C   UNL     1       6.019   4.072  14.416  0.00  0.00    +0.000 A 
ATOM      6  C   UNL     1       5.676   3.496  13.191  0.00  0.00    +0.000 A 
ATOM      7  C   UNL     1       6.420   3.775  12.041  0.00  0.00    +0.000 A 
ATOM      8  C   UNL     1       7.512   4.636  12.106  0.00  0.00    +0.000 A 
ATOM      9  C   UNL     1       7.847   5.237  13.317  0.00  0.00    +0.000 A 
ATOM     10  C   UNL     1       7.097   4.965  14.465  0.00  0.00    +0.000 A 
ENDBRANCH   3   5
BRANCH   2  11
ATOM     11  C   UNL     1       4.106   4.198  17.666  0.00  0.00    +0.000 A 
ATOM     12  C   UNL     1       3.737   2.855  17.776  0.00  0.00    +0.000 A 
ATOM     13  C   UNL     1       3.073   2.425  18.925  0.00  0.00    +0.000 A 
ATOM     14  CA  UNL     1       2.802   3.363  19.916  0.00  0.00    +0.000 A 
ATOM     15  N   UNL     1       3.164   4.678  19.854  0.00  0.00    +0.000 NA
ATOM     16  C   UNL     1       3.822   5.056  18.728  0.00  0.00    +0.000 A 
BRANCH  14  17
ATOM     17  C   UNL     1       2.064   2.962  21.149  0.00  0.00    +0.000 C 
ATOM     18  O   UNL     1       2.590   2.606  22.188  0.00  0.00    +0.000 OA
BRANCH  17  19
ATOM     19  OXT UNL     1       0.727   3.034  20.945  0.00  0.00    +0.000 OA
ATOM     20  HXT UNL     1       0.334   3.628  21.627  0.00  0.00    +0.000 HD
ENDBRANCH  17  19
ENDBRANCH  14  17
ENDBRANCH   2  11
TORSDOF 4
ENDMDL
MODEL 8
REMARK VINA RESULT:      -6.9      0.807      1.638
REMARK  Name = 
REMARK  4 active torsions:
REMARK  status: ('A' for Active; 'I' for Inactive)
REMARK    1  A    between atoms: C_2  and  C_10
REMARK    2  A    between atoms: N_3  and  C_4
REMARK    3  A    between atoms: CA_13  and  C_14
REMARK    4  A    between atoms: C_14  and  OXT_16
REMARK                            x       y       z     vdW  Elec       q    Type
REMARK                         _______ _______ _______ _____ _____    ______ ____
ROOT
ATOM      1  O   UNL     1       5.199   5.288  19.024  0.00  0.00    +0.000 OA
ATOM      2  C   UNL     1       4.797   4.590  18.102  0.00  0.00    +0.000 C 
ATOM      3  N   UNL     1       3.759   3.675  18.133  0.00  0.00    +0.000 N 
ATOM      4  H   UNL     1       3.675   3.031  17.356  0.00  0.00    +0.000 HD
ENDROOT
BRANCH   3   5
ATOM      5  C   UNL     1       2.926   3.408  19.242  0.00  0.00    +0.000 A 
ATOM      6  C   UNL     1       1.594   3.818  19.317  0.00  0.00    +0.000 A 
ATOM      7  C   UNL     1       0.833   3.559  20.460  0.00  0.00    +0.000 A 
ATOM      8  C   UNL     1       1.398   2.884  21.538  0.00  0.00    +0.000 A 
ATOM      9  C   UNL     1       2.719   2.447  21.465  0.00  0.00    +0.000 A 
ATOM     10  C   UNL     1       3.477   2.697  20.317  0.00  0.00    +0.000 A 
ENDBRANCH   3   5
BRANCH   2  11
ATOM     11  C   UNL     1       5.542   4.657  16.826  0.00  0.00    +0.000 A 
ATOM     12  C   UNL     1       6.893   5.004  16.753  0.00  0.00    +0.000 A 
ATOM     13  C   UNL     1       7.517   5.043  15.506  0.00  0.00    +0.000 A 
ATOM     14  CA  UNL     1       6.757   4.736  14.381  0.00  0.00    +0.000 A 
ATOM     15  N   UNL     1       5.441   4.374  14.415  0.00  0.00    +0.000 NA
ATOM     16  C   UNL     1       4.871   4.332  15.648  0.00  0.00    +0.000 A 
BRANCH  14  17
ATOM     17  C   UNL     1       7.367   4.796  13.022  0.00  0.00    +0.000 C 
ATOM     18  O   UNL     1       7.071   4.065  12.095  0.00  0.00    +0.000 OA
BRANCH  17  19
ATOM     19  OXT UNL     1       8.309   5.768  12.968  0.00  0.00    +0.000 OA
ATOM     20  HXT UNL     1       9.065   5.447  12.421  0.00  0.00    +0.000 HD
ENDBRANCH  17  19
ENDBRANCH  14  17
ENDBRANCH   2  11
TORSDOF 4
ENDMDL
MODEL 9
REMARK VINA RESULT:      -6.9      2.321      7.471
REMARK  Name = 
REMARK  4 active torsions:
REMARK  status: ('A' for Active; 'I' for Inactive)
REMARK    1  A    between atoms: C_2  and  C_10
REMARK    2  A    between atoms: N_3  and  C_4
REMARK    3  A    between atoms: CA_13  and  C_14
REMARK    4  A    between atoms: C_14  and  OXT_16
REMARK                            x       y       z     vdW  Elec       q    Type
REMARK                         _______ _______ _______ _____ _____    ______ ____
ROOT
ATOM      1  O   UNL     1       4.700   6.104  16.254  0.00  0.00    +0.000 OA
ATOM      2  C   UNL     1       4.808   4.916  16.528  0.00  0.00    +0.000 C 
ATOM      3  N   UNL     1       5.436   3.936  15.778  0.00  0.00    +0.000 N 
ATOM      4  H   UNL     1       5.270   2.969  16.031  0.00  0.00    +0.000 HD
ENDROOT
BRANCH   3   5
ATOM      5  C   UNL     1       6.120   4.140  14.560  0.00  0.00    +0.000 A 
ATOM      6  C   UNL     1       7.218   4.993  14.431  0.00  0.00    +0.000 A 
ATOM      7  C   UNL     1       7.828   5.185  13.188  0.00  0.00    +0.000 A 
ATOM      8  C   UNL     1       7.346   4.522  12.063  0.00  0.00    +0.000 A 
ATOM      9  C   UNL     1       6.267   3.649  12.184  0.00  0.00    +0.000 A 
ATOM     10  C   UNL     1       5.664   3.449  13.429  0.00  0.00    +0.000 A 
ENDBRANCH   3   5
BRANCH   2  11
ATOM     11  C   UNL     1       4.130   4.437  17.752  0.00  0.00    +0.000 A 
ATOM     12  C   UNL     1       4.597   3.357  18.506  0.00  0.00    +0.000 A 
ATOM     13  C   UNL     1       3.894   2.972  19.648  0.00  0.00    +0.000 A 
ATOM     14  CA  UNL     1       2.748   3.685  19.985  0.00  0.00    +0.000 A 
ATOM     15  N   UNL     1       2.273   4.757  19.285  0.00  0.00    +0.000 NA
ATOM     16  C   UNL     1       2.991   5.112  18.188  0.00  0.00    +0.000 A 
BRANCH  14  17
ATOM     17  C   UNL     1       1.942   3.293  21.176  0.00  0.00    +0.000 C 
ATOM     18  O   UNL     1       2.382   3.180  22.306  0.00  0.00    +0.000 OA
BRANCH  17  19
ATOM     19  OXT UNL     1       0.655   3.063  20.823  0.00  0.00    +0.000 OA
ATOM     20  HXT UNL     1       0.621   2.263  20.248  0.00  0.00    +0.000 HD
ENDBRANCH  17  19
ENDBRANCH  14  17
ENDBRANCH   2  11
TORSDOF 4
ENDMDL
