MODEL 1
REMARK VINA RESULT:      -6.7      0.000      0.000
REMARK  Name = 
REMARK  11 active torsions:
REMARK  status: ('A' for Active; 'I' for Inactive)
REMARK    1  A    between atoms: C_1  and  N_2
REMARK    2  A    between atoms: N_2  and  C_3
REMARK    3  A    between atoms: N_2  and  C_4
REMARK    4  A    between atoms: C_4  and  C_5
REMARK    5  A    between atoms: C_5  and  C_6
REMARK    6  A    between atoms: C_6  and  C_7
REMARK    7  A    between atoms: C_7  and  C_8
REMARK    8  A    between atoms: C_8  and  N_9
REMARK    9  A    between atoms: N_9  and  C_10
REMARK   10  A    between atoms: N_9  and  C_11
REMARK   11  A    between atoms: C_11  and  C_12
REMARK                            x       y       z     vdW  Elec       q    Type
REMARK                         _______ _______ _______ _____ _____    ______ ____
ROOT
ATOM      1  N   UNL     1       6.674   6.160  17.851  0.00  0.00    +0.000 NA
ATOM      2  C   UNL     1       7.583   7.290  17.545  0.00  0.00    +0.000 C 
ENDROOT
BRANCH   1   3
ATOM      3  C   UNL     1       7.210   4.908  17.258  0.00  0.00    +0.000 C 
BRANCH   3   4
ATOM      4  C   UNL     1       7.067   4.887  15.728  0.00  0.00    +0.000 C 
BRANCH   4   5
ATOM      5  C   UNL     1       6.142   3.773  15.227  0.00  0.00    +0.000 C 
BRANCH   5   6
ATOM      6  C   UNL     1       5.588   4.203  13.861  0.00  0.00    +0.000 C 
BRANCH   6   7
ATOM      7  C   UNL     1       6.317   3.567  12.675  0.00  0.00    +0.000 C 
BRANCH   7   9
ATOM      8  C   UNL     1       4.318   3.135  11.346  0.00  0.00    +0.000 C 
ATOM      9  N   UNL     1       5.486   2.533  12.029  0.00  0.00    +0.000 NA
ATOM     10  C   UNL     1       6.250   1.671  11.112  0.00  0.00    +0.000 C 
ENDBRANCH   7   9
ENDBRANCH   6   7
ENDBRANCH   5   6
ENDBRANCH   4   5
ENDBRANCH   3   4
ENDBRANCH   1   3
BRANCH   1  11
ATOM     11  C   UNL     1       5.288   6.383  17.361  0.00  0.00    +0.000 C 
BRANCH  11  12
ATOM     12  C   UNL     1       4.252   5.557  18.100  0.00  0.00    +0.000 A 
ATOM     13  C   UNL     1       4.068   5.518  19.491  0.00  0.00    +0.000 A 
ATOM     14  C   UNL     1       2.973   4.701  19.651  0.00  0.00    +0.000 A 
ATOM     15  C   UNL     1       2.292   4.341  20.813  0.00  0.00    +0.000 A 
ATOM     16  C   UNL     1       1.183   3.485  20.673  0.00  0.00    +0.000 A 
ATOM     17  C   UNL     1       0.805   3.007  19.400  0.00  0.00    +0.000 A 
ATOM     18  C   UNL     1       1.521   3.397  18.247  0.00  0.00    +0.000 A 
ATOM     19  C   UNL     1       2.599   4.262  18.421  0.00  0.00    +0.000 A 
ATOM     20  O   UNL     1       3.380   4.790  17.494  0.00  0.00    +0.000 OA
ENDBRANCH  11  12
ENDBRANCH   1  11
TORSDOF 8
ENDMDL
MODEL 2
REMARK VINA RESULT:      -6.3      2.225      6.761
REMARK  Name = 
REMARK  11 active torsions:
REMARK  status: ('A' for Active; 'I' for Inactive)
REMARK    1  A    between atoms: C_1  and  N_2
REMARK    2  A    between atoms: N_2  and  C_3
REMARK    3  A    between atoms: N_2  and  C_4
REMARK    4  A    between atoms: C_4  and  C_5
REMARK    5  A    between atoms: C_5  and  C_6
REMARK    6  A    between atoms: C_6  and  C_7
REMARK    7  A    between atoms: C_7  and  C_8
REMARK    8  A    between atoms: C_8  and  N_9
REMARK    9  A    between atoms: N_9  and  C_10
REMARK   10  A    between atoms: N_9  and  C_11
REMARK   11  A    between atoms: C_11  and  C_12
REMARK                            x       y       z     vdW  Elec       q    Type
REMARK                         _______ _______ _______ _____ _____    ______ ____
ROOT
ATOM      1  N   UNL     1       7.246   5.724  18.200  0.00  0.00    +0.000 NA
ATOM      2  C   UNL     1       7.821   4.425  17.778  0.00  0.00    +0.000 C 
ENDROOT
BRANCH   1   3
ATOM      3  C   UNL     1       6.415   5.536  19.417  0.00  0.00    +0.000 C 
BRANCH   3   4
ATOM      4  C   UNL     1       5.148   4.716  19.128  0.00  0.00    +0.000 C 
BRANCH   4   5
ATOM      5  C   UNL     1       3.855   5.487  19.414  0.00  0.00    +0.000 C 
BRANCH   5   6
ATOM      6  C   UNL     1       2.679   4.631  18.924  0.00  0.00    +0.000 C 
BRANCH   6   7
ATOM      7  C   UNL     1       1.538   4.519  19.937  0.00  0.00    +0.000 C 
BRANCH   7   9
ATOM      8  C   UNL     1       1.666   2.200  19.188  0.00  0.00    +0.000 C 
ATOM      9  N   UNL     1       1.273   3.110  20.289  0.00  0.00    +0.000 NA
ATOM     10  C   UNL     1       1.901   2.707  21.559  0.00  0.00    +0.000 C 
ENDBRANCH   7   9
ENDBRANCH   6   7
ENDBRANCH   5   6
ENDBRANCH   4   5
ENDBRANCH   3   4
ENDBRANCH   1   3
BRANCH   1  11
ATOM     11  C   UNL     1       6.427   6.367  17.138  0.00  0.00    +0.000 C 
BRANCH  11  12
ATOM     12  C   UNL     1       6.410   5.583  15.838  0.00  0.00    +0.000 A 
ATOM     13  C   UNL     1       5.415   4.680  15.435  0.00  0.00    +0.000 A 
ATOM     14  C   UNL     1       5.811   4.304  14.172  0.00  0.00    +0.000 A 
ATOM     15  C   UNL     1       5.181   3.465  13.253  0.00  0.00    +0.000 A 
ATOM     16  C   UNL     1       5.822   3.265  12.016  0.00  0.00    +0.000 A 
ATOM     17  C   UNL     1       7.061   3.885  11.744  0.00  0.00    +0.000 A 
ATOM     18  C   UNL     1       7.664   4.729  12.701  0.00  0.00    +0.000 A 
ATOM     19  C   UNL     1       6.992   4.921  13.906  0.00  0.00    +0.000 A 
ATOM     20  O   UNL     1       7.339   5.692  14.922  0.00  0.00    +0.000 OA
ENDBRANCH  11  12
ENDBRANCH   1  11
TORSDOF 8
ENDMDL
MODEL 3
REMARK VINA RESULT:      -6.2      3.127      6.292
REMARK  Name = 
REMARK  11 active torsions:
REMARK  status: ('A' for Active; 'I' for Inactive)
REMARK    1  A    between atoms: C_1  and  N_2
REMARK    2  A    between atoms: N_2  and  C_3
REMARK    3  A    between atoms: N_2  and  C_4
REMARK    4  A    between atoms: C_4  and  C_5
REMARK    5  A    between atoms: C_5  and  C_6
REMARK    6  A    between atoms: C_6  and  C_7
REMARK    7  A    between atoms: C_7  and  C_8
REMARK    8  A    between atoms: C_8  and  N_9
REMARK    9  A    between atoms: N_9  and  C_10
REMARK   10  A    between atoms: N_9  and  C_11
REMARK   11  A    between atoms: C_11  and  C_12
REMARK                            x       y       z     vdW  Elec       q    Type
REMARK                         _______ _______ _______ _____ _____    ______ ____
ROOT
ATOM      1  N   UNL     1       6.650   5.954  17.602  0.00  0.00    +0.000 NA
ATOM      2  C   UNL     1       6.865   5.922  16.137  0.00  0.00    +0.000 C 
ENDROOT
BRANCH   1   3
ATOM      3  C   UNL     1       7.761   6.689  18.259  0.00  0.00    +0.000 C 
BRANCH   3   4
ATOM      4  C   UNL     1       7.901   8.122  17.720  0.00  0.00    +0.000 C 
BRANCH   4   5
ATOM      5  C   UNL     1       8.673   9.046  18.667  0.00  0.00    +0.000 C 
BRANCH   5   6
ATOM      6  C   UNL     1       8.635  10.463  18.075  0.00  0.00    +0.000 C 
BRANCH   6   7
ATOM      7  C   UNL     1      10.008  11.134  18.003  0.00  0.00    +0.000 C 
BRANCH   7   9
ATOM      8  C   UNL     1      10.881  13.243  17.141  0.00  0.00    +0.000 C 
ATOM      9  N   UNL     1       9.885  12.605  18.032  0.00  0.00    +0.000 NA
ATOM     10  C   UNL     1       8.523  13.074  17.727  0.00  0.00    +0.000 C 
ENDBRANCH   7   9
ENDBRANCH   6   7
ENDBRANCH   5   6
ENDBRANCH   4   5
ENDBRANCH   3   4
ENDBRANCH   1   3
BRANCH   1  11
ATOM     11  C   UNL     1       6.536   4.597  18.199  0.00  0.00    +0.000 C 
BRANCH  11  12
ATOM     12  C   UNL     1       5.147   4.289  18.727  0.00  0.00    +0.000 A 
ATOM     13  C   UNL     1       3.940   4.759  18.187  0.00  0.00    +0.000 A 
ATOM     14  C   UNL     1       2.979   4.143  18.958  0.00  0.00    +0.000 A 
ATOM     15  C   UNL     1       1.589   4.185  18.852  0.00  0.00    +0.000 A 
ATOM     16  C   UNL     1       0.847   3.438  19.785  0.00  0.00    +0.000 A 
ATOM     17  C   UNL     1       1.504   2.698  20.792  0.00  0.00    +0.000 A 
ATOM     18  C   UNL     1       2.914   2.680  20.864  0.00  0.00    +0.000 A 
ATOM     19  C   UNL     1       3.617   3.414  19.910  0.00  0.00    +0.000 A 
ATOM     20  O   UNL     1       4.925   3.511  19.756  0.00  0.00    +0.000 OA
ENDBRANCH  11  12
ENDBRANCH   1  11
TORSDOF 8
ENDMDL
MODEL 4
REMARK VINA RESULT:      -6.2      3.356      6.962
REMARK  Name = 
REMARK  11 active torsions:
REMARK  status: ('A' for Active; 'I' for Inactive)
REMARK    1  A    between atoms: C_1  and  N_2
REMARK    2  A    between atoms: N_2  and  C_3
REMARK    3  A    between atoms: N_2  and  C_4
REMARK    4  A    between atoms: C_4  and  C_5
REMARK    5  A    between atoms: C_5  and  C_6
REMARK    6  A    between atoms: C_6  and  C_7
REMARK    7  A    between atoms: C_7  and  C_8
REMARK    8  A    between atoms: C_8  and  N_9
REMARK    9  A    between atoms: N_9  and  C_10
REMARK   10  A    between atoms: N_9  and  C_11
REMARK   11  A    between atoms: C_11  and  C_12
REMARK                            x       y       z     vdW  Elec       q    Type
REMARK                         _______ _______ _______ _____ _____    ______ ____
ROOT
ATOM      1  N   UNL     1       7.582   6.055  17.134  0.00  0.00    +0.000 NA
ATOM      2  C   UNL     1       7.409   5.359  18.430  0.00  0.00    +0.000 C 
ENDROOT
BRANCH   1   3
ATOM      3  C   UNL     1       7.340   7.510  17.307  0.00  0.00    +0.000 C 
BRANCH   3   4
ATOM      4  C   UNL     1       8.297   8.135  18.334  0.00  0.00    +0.000 C 
BRANCH   4   5
ATOM      5  C   UNL     1       8.452   9.650  18.166  0.00  0.00    +0.000 C 
BRANCH   5   6
ATOM      6  C   UNL     1       9.353  10.158  19.301  0.00  0.00    +0.000 C 
BRANCH   6   7
ATOM      7  C   UNL     1      10.149  11.413  18.936  0.00  0.00    +0.000 C 
BRANCH   7   9
ATOM      8  C   UNL     1      11.560  13.217  19.777  0.00  0.00    +0.000 C 
ATOM      9  N   UNL     1      10.837  11.970  20.118  0.00  0.00    +0.000 NA
ATOM     10  C   UNL     1       9.936  12.177  21.264  0.00  0.00    +0.000 C 
ENDBRANCH   7   9
ENDBRANCH   6   7
ENDBRANCH   5   6
ENDBRANCH   4   5
ENDBRANCH   3   4
ENDBRANCH   1   3
BRANCH   1  11
ATOM     11  C   UNL     1       6.686   5.529  16.070  0.00  0.00    +0.000 C 
BRANCH  11  12
ATOM     12  C   UNL     1       5.366   5.005  16.605  0.00  0.00    +0.000 A 
ATOM     13  C   UNL     1       4.942   3.667  16.585  0.00  0.00    +0.000 A 
ATOM     14  C   UNL     1       3.737   3.699  17.249  0.00  0.00    +0.000 A 
ATOM     15  C   UNL     1       2.878   2.653  17.587  0.00  0.00    +0.000 A 
ATOM     16  C   UNL     1       1.702   2.984  18.286  0.00  0.00    +0.000 A 
ATOM     17  C   UNL     1       1.414   4.329  18.605  0.00  0.00    +0.000 A 
ATOM     18  C   UNL     1       2.311   5.358  18.246  0.00  0.00    +0.000 A 
ATOM     19  C   UNL     1       3.476   4.992  17.574  0.00  0.00    +0.000 A 
ATOM     20  O   UNL     1       4.470   5.768  17.180  0.00  0.00    +0.000 OA
ENDBRANCH  11  12
ENDBRANCH   1  11
TORSDOF 8
ENDMDL
MODEL 5
REMARK VINA RESULT:      -6.2      3.234      6.501
REMARK  Name = 
REMARK  11 active torsions:
REMARK  status: ('A' for Active; 'I' for Inactive)
REMARK    1  A    between atoms: C_1  and  N_2
REMARK    2  A    between atoms: N_2  and  C_3
REMARK    3  A    between atoms: N_2  and  C_4
REMARK    4  A    between atoms: C_4  and  C_5
REMARK    5  A    between atoms: C_5  and  C_6
REMARK    6  A    between atoms: C_6  and  C_7
REMARK    7  A    between atoms: C_7  and  C_8
REMARK    8  A    between atoms: C_8  and  N_9
REMARK    9  A    between atoms: N_9  and  C_10
REMARK   10  A    between atoms: N_9  and  C_11
REMARK   11  A    between atoms: C_11  and  C_12
REMARK                            x       y       z     vdW  Elec       q    Type
REMARK                         _______ _______ _______ _____ _____    ______ ____
ROOT
ATOM      1  N   UNL     1       6.222   6.653  17.627  0.00  0.00    +0.000 NA
ATOM      2  C   UNL     1       5.358   6.532  16.430  0.00  0.00    +0.000 C 
ENDROOT
BRANCH   1   3
ATOM      3  C   UNL     1       7.583   7.091  17.225  0.00  0.00    +0.000 C 
BRANCH   3   4
ATOM      4  C   UNL     1       8.194   8.074  18.236  0.00  0.00    +0.000 C 
BRANCH   4   5
ATOM      5  C   UNL     1       8.046   9.539  17.815  0.00  0.00    +0.000 C 
BRANCH   5   6
ATOM      6  C   UNL     1       9.212  10.325  18.431  0.00  0.00    +0.000 C 
BRANCH   6   7
ATOM      7  C   UNL     1       9.107  11.838  18.227  0.00  0.00    +0.000 C 
BRANCH   7   9
ATOM      8  C   UNL     1      11.369  11.563  19.098  0.00  0.00    +0.000 C 
ATOM      9  N   UNL     1      10.306  12.530  18.739  0.00  0.00    +0.000 NA
ATOM     10  C   UNL     1      10.815  13.558  17.815  0.00  0.00    +0.000 C 
ENDBRANCH   7   9
ENDBRANCH   6   7
ENDBRANCH   5   6
ENDBRANCH   4   5
ENDBRANCH   3   4
ENDBRANCH   1   3
BRANCH   1  11
ATOM     11  C   UNL     1       6.320   5.386  18.400  0.00  0.00    +0.000 C 
BRANCH  11  12
ATOM     12  C   UNL     1       4.969   4.822  18.799  0.00  0.00    +0.000 A 
ATOM     13  C   UNL     1       4.441   3.587  18.396  0.00  0.00    +0.000 A 
ATOM     14  C   UNL     1       3.250   3.504  19.080  0.00  0.00    +0.000 A 
ATOM     15  C   UNL     1       2.315   2.470  19.121  0.00  0.00    +0.000 A 
ATOM     16  C   UNL     1       1.176   2.659  19.926  0.00  0.00    +0.000 A 
ATOM     17  C   UNL     1       0.999   3.864  20.641  0.00  0.00    +0.000 A 
ATOM     18  C   UNL     1       1.970   4.886  20.574  0.00  0.00    +0.000 A 
ATOM     19  C   UNL     1       3.095   4.655  19.784  0.00  0.00    +0.000 A 
ATOM     20  O   UNL     1       4.143   5.440  19.606  0.00  0.00    +0.000 OA
ENDBRANCH  11  12
ENDBRANCH   1  11
TORSDOF 8
ENDMDL
MODEL 6
REMARK VINA RESULT:      -6.1      3.306      6.585
REMARK  Name = 
REMARK  11 active torsions:
REMARK  status: ('A' for Active; 'I' for Inactive)
REMARK    1  A    between atoms: C_1  and  N_2
REMARK    2  A    between atoms: N_2  and  C_3
REMARK    3  A    between atoms: N_2  and  C_4
REMARK    4  A    between atoms: C_4  and  C_5
REMARK    5  A    between atoms: C_5  and  C_6
REMARK    6  A    between atoms: C_6  and  C_7
REMARK    7  A    between atoms: C_7  and  C_8
REMARK    8  A    between atoms: C_8  and  N_9
REMARK    9  A    between atoms: N_9  and  C_10
REMARK   10  A    between atoms: N_9  and  C_11
REMARK   11  A    between atoms: C_11  and  C_12
REMARK                            x       y       z     vdW  Elec       q    Type
REMARK                         _______ _______ _______ _____ _____    ______ ____
ROOT
ATOM      1  N   UNL     1       6.606   6.346  17.891  0.00  0.00    +0.000 NA
ATOM      2  C   UNL     1       6.380   6.422  16.429  0.00  0.00    +0.000 C 
ENDROOT
BRANCH   1   3
ATOM      3  C   UNL     1       7.938   6.912  18.225  0.00  0.00    +0.000 C 
BRANCH   3   4
ATOM      4  C   UNL     1       8.050   8.393  17.828  0.00  0.00    +0.000 C 
BRANCH   4   5
ATOM      5  C   UNL     1       8.845   9.226  18.838  0.00  0.00    +0.000 C 
BRANCH   5   6
ATOM      6  C   UNL     1       9.028  10.631  18.247  0.00  0.00    +0.000 C 
BRANCH   6   7
ATOM      7  C   UNL     1       9.299  11.709  19.299  0.00  0.00    +0.000 C 
BRANCH   7   9
ATOM      8  C   UNL     1      10.258  12.810  17.344  0.00  0.00    +0.000 C 
ATOM      9  N   UNL     1      10.298  12.683  18.820  0.00  0.00    +0.000 NA
ATOM     10  C   UNL     1      10.175  14.000  19.468  0.00  0.00    +0.000 C 
ENDBRANCH   7   9
ENDBRANCH   6   7
ENDBRANCH   5   6
ENDBRANCH   4   5
ENDBRANCH   3   4
ENDBRANCH   1   3
BRANCH   1  11
ATOM     11  C   UNL     1       6.514   4.958  18.419  0.00  0.00    +0.000 C 
BRANCH  11  12
ATOM     12  C   UNL     1       5.155   4.632  19.011  0.00  0.00    +0.000 A 
ATOM     13  C   UNL     1       4.197   5.565  19.435  0.00  0.00    +0.000 A 
ATOM     14  C   UNL     1       3.127   4.784  19.808  0.00  0.00    +0.000 A 
ATOM     15  C   UNL     1       1.862   5.161  20.260  0.00  0.00    +0.000 A 
ATOM     16  C   UNL     1       0.952   4.133  20.564  0.00  0.00    +0.000 A 
ATOM     17  C   UNL     1       1.331   2.779  20.428  0.00  0.00    +0.000 A 
ATOM     18  C   UNL     1       2.620   2.440  19.966  0.00  0.00    +0.000 A 
ATOM     19  C   UNL     1       3.489   3.484  19.654  0.00  0.00    +0.000 A 
ATOM     20  O   UNL     1       4.716   3.409  19.170  0.00  0.00    +0.000 OA
ENDBRANCH  11  12
ENDBRANCH   1  11
TORSDOF 8
ENDMDL
MODEL 7
REMARK VINA RESULT:      -6.1      3.239      6.588
REMARK  Name = 
REMARK  11 active torsions:
REMARK  status: ('A' for Active; 'I' for Inactive)
REMARK    1  A    between atoms: C_1  and  N_2
REMARK    2  A    between atoms: N_2  and  C_3
REMARK    3  A    between atoms: N_2  and  C_4
REMARK    4  A    between atoms: C_4  and  C_5
REMARK    5  A    between atoms: C_5  and  C_6
REMARK    6  A    between atoms: C_6  and  C_7
REMARK    7  A    between atoms: C_7  and  C_8
REMARK    8  A    between atoms: C_8  and  N_9
REMARK    9  A    between atoms: N_9  and  C_10
REMARK   10  A    between atoms: N_9  and  C_11
REMARK   11  A    between atoms: C_11  and  C_12
REMARK                            x       y       z     vdW  Elec       q    Type
REMARK                         _______ _______ _______ _____ _____    ______ ____
ROOT
ATOM      1  N   UNL     1       7.885   5.701  18.070  0.00  0.00    +0.000 NA
ATOM      2  C   UNL     1       7.660   5.613  19.531  0.00  0.00    +0.000 C 
ENDROOT
BRANCH   1   3
ATOM      3  C   UNL     1       7.483   7.043  17.577  0.00  0.00    +0.000 C 
BRANCH   3   4
ATOM      4  C   UNL     1       8.285   8.168  18.251  0.00  0.00    +0.000 C 
BRANCH   4   5
ATOM      5  C   UNL     1       7.974   9.554  17.677  0.00  0.00    +0.000 C 
BRANCH   5   6
ATOM      6  C   UNL     1       9.031  10.531  18.212  0.00  0.00    +0.000 C 
BRANCH   6   7
ATOM      7  C   UNL     1       9.345  10.341  19.697  0.00  0.00    +0.000 C 
BRANCH   7   9
ATOM      8  C   UNL     1      11.269  11.642  18.950  0.00  0.00    +0.000 C 
ATOM      9  N   UNL     1      10.474  11.195  20.117  0.00  0.00    +0.000 NA
ATOM     10  C   UNL     1      10.053  12.340  20.942  0.00  0.00    +0.000 C 
ENDBRANCH   7   9
ENDBRANCH   6   7
ENDBRANCH   5   6
ENDBRANCH   4   5
ENDBRANCH   3   4
ENDBRANCH   1   3
BRANCH   1  11
ATOM     11  C   UNL     1       7.151   4.656  17.307  0.00  0.00    +0.000 C 
BRANCH  11  12
ATOM     12  C   UNL     1       5.736   4.432  17.808  0.00  0.00    +0.000 A 
ATOM     13  C   UNL     1       4.568   4.961  17.238  0.00  0.00    +0.000 A 
ATOM     14  C   UNL     1       3.560   4.409  17.995  0.00  0.00    +0.000 A 
ATOM     15  C   UNL     1       2.177   4.527  17.858  0.00  0.00    +0.000 A 
ATOM     16  C   UNL     1       1.375   3.833  18.784  0.00  0.00    +0.000 A 
ATOM     17  C   UNL     1       1.968   3.070  19.813  0.00  0.00    +0.000 A 
ATOM     18  C   UNL     1       3.373   2.975  19.915  0.00  0.00    +0.000 A 
ATOM     19  C   UNL     1       4.135   3.657  18.968  0.00  0.00    +0.000 A 
ATOM     20  O   UNL     1       5.450   3.679  18.841  0.00  0.00    +0.000 OA
ENDBRANCH  11  12
ENDBRANCH   1  11
TORSDOF 8
ENDMDL
MODEL 8
REMARK VINA RESULT:      -6.1      3.299      6.189
REMARK  Name = 
REMARK  11 active torsions:
REMARK  status: ('A' for Active; 'I' for Inactive)
REMARK    1  A    between atoms: C_1  and  N_2
REMARK    2  A    between atoms: N_2  and  C_3
REMARK    3  A    between atoms: N_2  and  C_4
REMARK    4  A    between atoms: C_4  and  C_5
REMARK    5  A    between atoms: C_5  and  C_6
REMARK    6  A    between atoms: C_6  and  C_7
REMARK    7  A    between atoms: C_7  and  C_8
REMARK    8  A    between atoms: C_8  and  N_9
REMARK    9  A    between atoms: N_9  and  C_10
REMARK   10  A    between atoms: N_9  and  C_11
REMARK   11  A    between atoms: C_11  and  C_12
REMARK                            x       y       z     vdW  Elec       q    Type
REMARK                         _______ _______ _______ _____ _____    ______ ____
ROOT
ATOM      1  N   UNL     1       6.452   5.623  17.833  0.00  0.00    +0.000 NA
ATOM      2  C   UNL     1       6.950   5.345  19.200  0.00  0.00    +0.000 C 
ENDROOT
BRANCH   1   3
ATOM      3  C   UNL     1       7.461   6.410  17.079  0.00  0.00    +0.000 C 
BRANCH   3   4
ATOM      4  C   UNL     1       7.301   7.921  17.307  0.00  0.00    +0.000 C 
BRANCH   4   5
ATOM      5  C   UNL     1       8.367   8.503  18.241  0.00  0.00    +0.000 C 
BRANCH   5   6
ATOM      6  C   UNL     1       8.396  10.023  18.030  0.00  0.00    +0.000 C 
BRANCH   6   7
ATOM      7  C   UNL     1       9.574  10.716  18.719  0.00  0.00    +0.000 C 
BRANCH   7   9
ATOM      8  C   UNL     1       9.578  13.063  19.383  0.00  0.00    +0.000 C 
ATOM      9  N   UNL     1       9.718  12.110  18.257  0.00  0.00    +0.000 NA
ATOM     10  C   UNL     1      10.969  12.344  17.517  0.00  0.00    +0.000 C 
ENDBRANCH   7   9
ENDBRANCH   6   7
ENDBRANCH   5   6
ENDBRANCH   4   5
ENDBRANCH   3   4
ENDBRANCH   1   3
BRANCH   1  11
ATOM     11  C   UNL     1       5.154   6.349  17.826  0.00  0.00    +0.000 C 
BRANCH  11  12
ATOM     12  C   UNL     1       3.987   5.495  18.286  0.00  0.00    +0.000 A 
ATOM     13  C   UNL     1       3.340   4.508  17.528  0.00  0.00    +0.000 A 
ATOM     14  C   UNL     1       2.422   3.975  18.404  0.00  0.00    +0.000 A 
ATOM     15  C   UNL     1       1.531   2.917  18.227  0.00  0.00    +0.000 A 
ATOM     16  C   UNL     1       0.705   2.579  19.316  0.00  0.00    +0.000 A 
ATOM     17  C   UNL     1       0.780   3.308  20.523  0.00  0.00    +0.000 A 
ATOM     18  C   UNL     1       1.698   4.372  20.662  0.00  0.00    +0.000 A 
ATOM     19  C   UNL     1       2.515   4.664  19.571  0.00  0.00    +0.000 A 
ATOM     20  O   UNL     1       3.466   5.577  19.485  0.00  0.00    +0.000 OA
ENDBRANCH  11  12
ENDBRANCH   1  11
TORSDOF 8
ENDMDL
MODEL 9
REMARK VINA RESULT:      -6.0      2.895      5.106
REMARK  Name = 
REMARK  11 active torsions:
REMARK  status: ('A' for Active; 'I' for Inactive)
REMARK    1  A    between atoms: C_1  and  N_2
REMARK    2  A    between atoms: N_2  and  C_3
REMARK    3  A    between atoms: N_2  and  C_4
REMARK    4  A    between atoms: C_4  and  C_5
REMARK    5  A    between atoms: C_5  and  C_6
REMARK    6  A    between atoms: C_6  and  C_7
REMARK    7  A    between atoms: C_7  and  C_8
REMARK    8  A    between atoms: C_8  and  N_9
REMARK    9  A    between atoms: N_9  and  C_10
REMARK   10  A    between atoms: N_9  and  C_11
REMARK   11  A    between atoms: C_11  and  C_12
REMARK                            x       y       z     vdW  Elec       q    Type
REMARK                         _______ _______ _______ _____ _____    ______ ____
ROOT
ATOM      1  N   UNL     1       3.348   3.639  18.897  0.00  0.00    +0.000 NA
ATOM      2  C   UNL     1       3.145   2.635  19.967  0.00  0.00    +0.000 C 
ENDROOT
BRANCH   1   3
ATOM      3  C   UNL     1       4.114   3.034  17.777  0.00  0.00    +0.000 C 
BRANCH   3   4
ATOM      4  C   UNL     1       4.321   4.024  16.620  0.00  0.00    +0.000 C 
BRANCH   4   5
ATOM      5  C   UNL     1       5.662   3.837  15.903  0.00  0.00    +0.000 C 
BRANCH   5   6
ATOM      6  C   UNL     1       6.751   4.491  16.765  0.00  0.00    +0.000 C 
BRANCH   6   7
ATOM      7  C   UNL     1       6.715   6.021  16.742  0.00  0.00    +0.000 C 
BRANCH   7   9
ATOM      8  C   UNL     1       7.725   8.072  17.593  0.00  0.00    +0.000 C 
ATOM      9  N   UNL     1       7.786   6.592  17.581  0.00  0.00    +0.000 NA
ATOM     10  C   UNL     1       7.793   6.051  18.951  0.00  0.00    +0.000 C 
ENDBRANCH   7   9
ENDBRANCH   6   7
ENDBRANCH   5   6
ENDBRANCH   4   5
ENDBRANCH   3   4
ENDBRANCH   1   3
BRANCH   1  11
ATOM     11  C   UNL     1       4.054   4.858  19.375  0.00  0.00    +0.000 C 
BRANCH  11  12
ATOM     12  C   UNL     1       3.193   6.107  19.322  0.00  0.00    +0.000 A 
ATOM     13  C   UNL     1       2.365   6.581  20.351  0.00  0.00    +0.000 A 
ATOM     14  C   UNL     1       1.873   7.765  19.851  0.00  0.00    +0.000 A 
ATOM     15  C   UNL     1       1.040   8.709  20.453  0.00  0.00    +0.000 A 
ATOM     16  C   UNL     1       0.702   9.847  19.698  0.00  0.00    +0.000 A 
ATOM     17  C   UNL     1       1.182   9.998  18.378  0.00  0.00    +0.000 A 
ATOM     18  C   UNL     1       2.024   9.020  17.806  0.00  0.00    +0.000 A 
ATOM     19  C   UNL     1       2.356   7.917  18.591  0.00  0.00    +0.000 A 
ATOM     20  O   UNL     1       3.153   6.908  18.286  0.00  0.00    +0.000 OA
ENDBRANCH  11  12
ENDBRANCH   1  11
TORSDOF 8
ENDMDL
