MODEL 1
REMARK VINA RESULT:      -6.7      0.000      0.000
REMARK  Name = 
REMARK  2 active torsions:
REMARK  status: ('A' for Active; 'I' for Inactive)
REMARK    1  A    between atoms: C_1  and  C_2
REMARK    2  A    between atoms: N_7  and  C_8
REMARK                            x       y       z     vdW  Elec       q    Type
REMARK                         _______ _______ _______ _____ _____    ______ ____
ROOT
ATOM      1  C   UNL     1       5.464   4.244  14.746  0.00  0.00    +0.000 C 
ATOM      2  C   UNL     1       5.767   4.216  16.246  0.00  0.00    +0.000 C 
ATOM      3  C   UNL     1       7.206   4.730  16.553  0.00  0.00    +0.000 C 
ATOM      4  N   UNL     1       7.407   6.180  16.342  0.00  0.00    +0.000 NA
ATOM      5  C   UNL     1       6.413   6.910  17.157  0.00  0.00    +0.000 C 
ATOM      6  C   UNL     1       4.953   6.499  16.875  0.00  0.00    +0.000 C 
ATOM      7  N   UNL     1       4.773   5.040  16.972  0.00  0.00    +0.000 N 
ATOM      8  H   UNL     1       7.225   6.388  15.360  0.00  0.00    +0.000 HD
ENDROOT
BRANCH   7   9
ATOM      9  C   UNL     1       3.924   4.467  17.904  0.00  0.00    +0.000 A 
ATOM     10  C   UNL     1       2.546   4.740  17.896  0.00  0.00    +0.000 A 
ATOM     11  C   UNL     1       1.679   4.214  18.865  0.00  0.00    +0.000 A 
ATOM     12  C   UNL     1       2.184   3.393  19.866  0.00  0.00    +0.000 A 
ATOM     13 CL   UNL     1       1.136   2.763  21.073  0.00  0.00    +0.000 Cl
ATOM     14  C   UNL     1       3.537   3.086  19.894  0.00  0.00    +0.000 A 
ATOM     15  C   UNL     1       4.391   3.616  18.919  0.00  0.00    +0.000 A 
ENDBRANCH   7   9
TORSDOF 1
ENDMDL
MODEL 2
REMARK VINA RESULT:      -6.6      1.149      1.548
REMARK  Name = 
REMARK  2 active torsions:
REMARK  status: ('A' for Active; 'I' for Inactive)
REMARK    1  A    between atoms: C_1  and  C_2
REMARK    2  A    between atoms: N_7  and  C_8
REMARK                            x       y       z     vdW  Elec       q    Type
REMARK                         _______ _______ _______ _____ _____    ______ ____
ROOT
ATOM      1  C   UNL     1       6.328   4.171  14.638  0.00  0.00    +0.000 C 
ATOM      2  C   UNL     1       6.165   4.200  16.159  0.00  0.00    +0.000 C 
ATOM      3  C   UNL     1       7.401   4.838  16.860  0.00  0.00    +0.000 C 
ATOM      4  N   UNL     1       7.550   6.295  16.653  0.00  0.00    +0.000 NA
ATOM      5  C   UNL     1       6.305   6.957  17.099  0.00  0.00    +0.000 C 
ATOM      6  C   UNL     1       5.033   6.420  16.411  0.00  0.00    +0.000 C 
ATOM      7  N   UNL     1       4.940   4.953  16.515  0.00  0.00    +0.000 N 
ATOM      8  H   UNL     1       7.659   6.466  15.654  0.00  0.00    +0.000 HD
ENDROOT
BRANCH   7   9
ATOM      9  C   UNL     1       3.892   4.332  17.175  0.00  0.00    +0.000 A 
ATOM     10  C   UNL     1       3.826   2.932  17.276  0.00  0.00    +0.000 A 
ATOM     11  C   UNL     1       2.746   2.282  17.891  0.00  0.00    +0.000 A 
ATOM     12  C   UNL     1       1.705   3.033  18.424  0.00  0.00    +0.000 A 
ATOM     13 CL   UNL     1       0.365   2.247  19.158  0.00  0.00    +0.000 Cl
ATOM     14  C   UNL     1       1.747   4.419  18.360  0.00  0.00    +0.000 A 
ATOM     15  C   UNL     1       2.832   5.055  17.745  0.00  0.00    +0.000 A 
ENDBRANCH   7   9
TORSDOF 1
ENDMDL
MODEL 3
REMARK VINA RESULT:      -6.6      1.283      2.006
REMARK  Name = 
REMARK  2 active torsions:
REMARK  status: ('A' for Active; 'I' for Inactive)
REMARK    1  A    between atoms: C_1  and  C_2
REMARK    2  A    between atoms: N_7  and  C_8
REMARK                            x       y       z     vdW  Elec       q    Type
REMARK                         _______ _______ _______ _____ _____    ______ ____
ROOT
ATOM      1  C   UNL     1       4.963   6.528  16.208  0.00  0.00    +0.000 C 
ATOM      2  C   UNL     1       5.070   5.093  16.728  0.00  0.00    +0.000 C 
ATOM      3  C   UNL     1       6.203   4.302  16.009  0.00  0.00    +0.000 C 
ATOM      4  N   UNL     1       7.576   4.734  16.350  0.00  0.00    +0.000 NA
ATOM      5  C   UNL     1       7.739   4.650  17.817  0.00  0.00    +0.000 C 
ATOM      6  C   UNL     1       6.685   5.453  18.607  0.00  0.00    +0.000 C 
ATOM      7  N   UNL     1       5.315   5.108  18.189  0.00  0.00    +0.000 N 
ATOM      8  H   UNL     1       7.681   5.709  16.075  0.00  0.00    +0.000 HD
ENDROOT
BRANCH   7   9
ATOM      9  C   UNL     1       4.400   4.552  19.067  0.00  0.00    +0.000 A 
ATOM     10  C   UNL     1       4.410   3.176  19.353  0.00  0.00    +0.000 A 
ATOM     11  C   UNL     1       3.456   2.587  20.195  0.00  0.00    +0.000 A 
ATOM     12  C   UNL     1       2.469   3.375  20.775  0.00  0.00    +0.000 A 
ATOM     13 CL   UNL     1       1.281   2.659  21.789  0.00  0.00    +0.000 Cl
ATOM     14  C   UNL     1       2.440   4.741  20.530  0.00  0.00    +0.000 A 
ATOM     15  C   UNL     1       3.399   5.317  19.689  0.00  0.00    +0.000 A 
ENDBRANCH   7   9
TORSDOF 1
ENDMDL
MODEL 4
REMARK VINA RESULT:      -6.6      1.259      1.689
REMARK  Name = 
REMARK  2 active torsions:
REMARK  status: ('A' for Active; 'I' for Inactive)
REMARK    1  A    between atoms: C_1  and  C_2
REMARK    2  A    between atoms: N_7  and  C_8
REMARK                            x       y       z     vdW  Elec       q    Type
REMARK                         _______ _______ _______ _____ _____    ______ ____
ROOT
ATOM      1  C   UNL     1       4.995   6.589  16.194  0.00  0.00    +0.000 C 
ATOM      2  C   UNL     1       5.078   5.135  16.663  0.00  0.00    +0.000 C 
ATOM      3  C   UNL     1       6.225   4.362  15.946  0.00  0.00    +0.000 C 
ATOM      4  N   UNL     1       7.592   4.771  16.339  0.00  0.00    +0.000 NA
ATOM      5  C   UNL     1       7.715   4.633  17.805  0.00  0.00    +0.000 C 
ATOM      6  C   UNL     1       6.646   5.415  18.596  0.00  0.00    +0.000 C 
ATOM      7  N   UNL     1       5.285   5.095  18.130  0.00  0.00    +0.000 N 
ATOM      8  H   UNL     1       7.710   5.756  16.102  0.00  0.00    +0.000 HD
ENDROOT
BRANCH   7   9
ATOM      9  C   UNL     1       4.343   4.515  18.962  0.00  0.00    +0.000 A 
ATOM     10  C   UNL     1       3.391   5.297  19.638  0.00  0.00    +0.000 A 
ATOM     11  C   UNL     1       2.465   4.734  20.528  0.00  0.00    +0.000 A 
ATOM     12  C   UNL     1       2.475   3.363  20.755  0.00  0.00    +0.000 A 
ATOM     13 CL   UNL     1       1.361   2.665  21.862  0.00  0.00    +0.000 Cl
ATOM     14  C   UNL     1       3.388   2.557  20.090  0.00  0.00    +0.000 A 
ATOM     15  C   UNL     1       4.306   3.132  19.202  0.00  0.00    +0.000 A 
ENDBRANCH   7   9
TORSDOF 1
ENDMDL
MODEL 5
REMARK VINA RESULT:      -6.6      0.858      1.074
REMARK  Name = 
REMARK  2 active torsions:
REMARK  status: ('A' for Active; 'I' for Inactive)
REMARK    1  A    between atoms: C_1  and  C_2
REMARK    2  A    between atoms: N_7  and  C_8
REMARK                            x       y       z     vdW  Elec       q    Type
REMARK                         _______ _______ _______ _____ _____    ______ ____
ROOT
ATOM      1  C   UNL     1       5.467   4.395  14.604  0.00  0.00    +0.000 C 
ATOM      2  C   UNL     1       5.664   4.330  16.120  0.00  0.00    +0.000 C 
ATOM      3  C   UNL     1       7.126   4.682  16.527  0.00  0.00    +0.000 C 
ATOM      4  N   UNL     1       7.498   6.102  16.344  0.00  0.00    +0.000 NA
ATOM      5  C   UNL     1       6.537   6.935  17.098  0.00  0.00    +0.000 C 
ATOM      6  C   UNL     1       5.064   6.687  16.715  0.00  0.00    +0.000 C 
ATOM      7  N   UNL     1       4.719   5.257  16.786  0.00  0.00    +0.000 N 
ATOM      8  H   UNL     1       7.407   6.330  15.355  0.00  0.00    +0.000 HD
ENDROOT
BRANCH   7   9
ATOM      9  C   UNL     1       3.752   4.779  17.654  0.00  0.00    +0.000 A 
ATOM     10  C   UNL     1       3.585   5.334  18.934  0.00  0.00    +0.000 A 
ATOM     11  C   UNL     1       2.650   4.827  19.846  0.00  0.00    +0.000 A 
ATOM     12  C   UNL     1       1.852   3.747  19.486  0.00  0.00    +0.000 A 
ATOM     13 CL   UNL     1       0.719   3.102  20.605  0.00  0.00    +0.000 Cl
ATOM     14  C   UNL     1       1.975   3.186  18.223  0.00  0.00    +0.000 A 
ATOM     15  C   UNL     1       2.913   3.703  17.320  0.00  0.00    +0.000 A 
ENDBRANCH   7   9
TORSDOF 1
ENDMDL
MODEL 6
REMARK VINA RESULT:      -6.3      1.250      2.477
REMARK  Name = 
REMARK  2 active torsions:
REMARK  status: ('A' for Active; 'I' for Inactive)
REMARK    1  A    between atoms: C_1  and  C_2
REMARK    2  A    between atoms: N_7  and  C_8
REMARK                            x       y       z     vdW  Elec       q    Type
REMARK                         _______ _______ _______ _____ _____    ______ ____
ROOT
ATOM      1  C   UNL     1       7.706   5.577  19.299  0.00  0.00    +0.000 C 
ATOM      2  C   UNL     1       6.449   5.910  18.492  0.00  0.00    +0.000 C 
ATOM      3  C   UNL     1       6.741   6.955  17.375  0.00  0.00    +0.000 C 
ATOM      4  N   UNL     1       7.564   6.453  16.252  0.00  0.00    +0.000 NA
ATOM      5  C   UNL     1       6.897   5.262  15.684  0.00  0.00    +0.000 C 
ATOM      6  C   UNL     1       6.620   4.151  16.718  0.00  0.00    +0.000 C 
ATOM      7  N   UNL     1       5.899   4.672  17.892  0.00  0.00    +0.000 N 
ATOM      8  H   UNL     1       8.467   6.163  16.625  0.00  0.00    +0.000 HD
ENDROOT
BRANCH   7   9
ATOM      9  C   UNL     1       4.637   4.218  18.238  0.00  0.00    +0.000 A 
ATOM     10  C   UNL     1       4.448   3.363  19.337  0.00  0.00    +0.000 A 
ATOM     11  C   UNL     1       3.187   2.848  19.668  0.00  0.00    +0.000 A 
ATOM     12  C   UNL     1       2.080   3.189  18.898  0.00  0.00    +0.000 A 
ATOM     13 CL   UNL     1       0.534   2.545  19.281  0.00  0.00    +0.000 Cl
ATOM     14  C   UNL     1       2.226   4.047  17.818  0.00  0.00    +0.000 A 
ATOM     15  C   UNL     1       3.491   4.556  17.498  0.00  0.00    +0.000 A 
ENDBRANCH   7   9
TORSDOF 1
ENDMDL
MODEL 7
REMARK VINA RESULT:      -6.3      1.247      2.182
REMARK  Name = 
REMARK  2 active torsions:
REMARK  status: ('A' for Active; 'I' for Inactive)
REMARK    1  A    between atoms: C_1  and  C_2
REMARK    2  A    between atoms: N_7  and  C_8
REMARK                            x       y       z     vdW  Elec       q    Type
REMARK                         _______ _______ _______ _____ _____    ______ ____
ROOT
ATOM      1  C   UNL     1       7.796   5.559  19.311  0.00  0.00    +0.000 C 
ATOM      2  C   UNL     1       6.526   5.880  18.521  0.00  0.00    +0.000 C 
ATOM      3  C   UNL     1       6.783   6.960  17.428  0.00  0.00    +0.000 C 
ATOM      4  N   UNL     1       7.612   6.508  16.289  0.00  0.00    +0.000 NA
ATOM      5  C   UNL     1       6.973   5.315  15.695  0.00  0.00    +0.000 C 
ATOM      6  C   UNL     1       6.731   4.171  16.701  0.00  0.00    +0.000 C 
ATOM      7  N   UNL     1       6.004   4.643  17.893  0.00  0.00    +0.000 N 
ATOM      8  H   UNL     1       8.525   6.232  16.648  0.00  0.00    +0.000 HD
ENDROOT
BRANCH   7   9
ATOM      9  C   UNL     1       4.757   4.148  18.234  0.00  0.00    +0.000 A 
ATOM     10  C   UNL     1       3.613   4.482  17.489  0.00  0.00    +0.000 A 
ATOM     11  C   UNL     1       2.335   4.036  17.852  0.00  0.00    +0.000 A 
ATOM     12  C   UNL     1       2.179   3.234  18.976  0.00  0.00    +0.000 A 
ATOM     13 CL   UNL     1       0.614   2.701  19.444  0.00  0.00    +0.000 Cl
ATOM     14  C   UNL     1       3.289   2.867  19.724  0.00  0.00    +0.000 A 
ATOM     15  C   UNL     1       4.561   3.318  19.350  0.00  0.00    +0.000 A 
ENDBRANCH   7   9
TORSDOF 1
ENDMDL
MODEL 8
REMARK VINA RESULT:      -6.2      1.175      1.462
REMARK  Name = 
REMARK  2 active torsions:
REMARK  status: ('A' for Active; 'I' for Inactive)
REMARK    1  A    between atoms: C_1  and  C_2
REMARK    2  A    between atoms: N_7  and  C_8
REMARK                            x       y       z     vdW  Elec       q    Type
REMARK                         _______ _______ _______ _____ _____    ______ ____
ROOT
ATOM      1  C   UNL     1       5.277   6.423  15.374  0.00  0.00    +0.000 C 
ATOM      2  C   UNL     1       5.236   5.018  15.978  0.00  0.00    +0.000 C 
ATOM      3  C   UNL     1       6.477   4.174  15.560  0.00  0.00    +0.000 C 
ATOM      4  N   UNL     1       7.757   4.608  16.162  0.00  0.00    +0.000 NA
ATOM      5  C   UNL     1       7.602   4.604  17.633  0.00  0.00    +0.000 C 
ATOM      6  C   UNL     1       6.425   5.464  18.137  0.00  0.00    +0.000 C 
ATOM      7  N   UNL     1       5.167   5.112  17.455  0.00  0.00    +0.000 N 
ATOM      8  H   UNL     1       7.941   5.565  15.865  0.00  0.00    +0.000 HD
ENDROOT
BRANCH   7   9
ATOM      9  C   UNL     1       4.073   4.618  18.146  0.00  0.00    +0.000 A 
ATOM     10  C   UNL     1       2.980   4.052  17.467  0.00  0.00    +0.000 A 
ATOM     11  C   UNL     1       1.840   3.598  18.145  0.00  0.00    +0.000 A 
ATOM     12  C   UNL     1       1.777   3.699  19.530  0.00  0.00    +0.000 A 
ATOM     13 CL   UNL     1       0.375   3.168  20.369  0.00  0.00    +0.000 Cl
ATOM     14  C   UNL     1       2.846   4.234  20.235  0.00  0.00    +0.000 A 
ATOM     15  C   UNL     1       3.980   4.683  19.546  0.00  0.00    +0.000 A 
ENDBRANCH   7   9
TORSDOF 1
ENDMDL
MODEL 9
REMARK VINA RESULT:      -6.2      3.268      5.445
REMARK  Name = 
REMARK  2 active torsions:
REMARK  status: ('A' for Active; 'I' for Inactive)
REMARK    1  A    between atoms: C_1  and  C_2
REMARK    2  A    between atoms: N_7  and  C_8
REMARK                            x       y       z     vdW  Elec       q    Type
REMARK                         _______ _______ _______ _____ _____    ______ ____
ROOT
ATOM      1  C   UNL     1       1.428   4.613  20.363  0.00  0.00    +0.000 C 
ATOM      2  C   UNL     1       2.766   3.986  19.968  0.00  0.00    +0.000 C 
ATOM      3  C   UNL     1       2.741   2.435  20.110  0.00  0.00    +0.000 C 
ATOM      4  N   UNL     1       1.898   1.732  19.117  0.00  0.00    +0.000 NA
ATOM      5  C   UNL     1       2.352   2.120  17.765  0.00  0.00    +0.000 C 
ATOM      6  C   UNL     1       2.355   3.643  17.521  0.00  0.00    +0.000 C 
ATOM      7  N   UNL     1       3.099   4.358  18.573  0.00  0.00    +0.000 N 
ATOM      8  H   UNL     1       0.937   2.052  19.233  0.00  0.00    +0.000 HD
ENDROOT
BRANCH   7   9
ATOM      9  C   UNL     1       4.229   5.106  18.290  0.00  0.00    +0.000 A 
ATOM     10  C   UNL     1       5.425   4.916  19.004  0.00  0.00    +0.000 A 
ATOM     11  C   UNL     1       6.562   5.702  18.770  0.00  0.00    +0.000 A 
ATOM     12  C   UNL     1       6.522   6.699  17.802  0.00  0.00    +0.000 A 
ATOM     13 CL   UNL     1       7.902   7.684  17.524  0.00  0.00    +0.000 Cl
ATOM     14  C   UNL     1       5.365   6.902  17.064  0.00  0.00    +0.000 A 
ATOM     15  C   UNL     1       4.237   6.109  17.306  0.00  0.00    +0.000 A 
ENDBRANCH   7   9
TORSDOF 1
ENDMDL
