MODEL 1
REMARK VINA RESULT:      -7.9      0.000      0.000
REMARK  Name = 
REMARK  3 active torsions:
REMARK  status: ('A' for Active; 'I' for Inactive)
REMARK    1  A    between atoms: C_2  and  C_3
REMARK    2  A    between atoms: C_13  and  C_14
REMARK    3  A    between atoms: C_16  and  C_17
REMARK                            x       y       z     vdW  Elec       q    Type
REMARK                         _______ _______ _______ _____ _____    ______ ____
ROOT
ATOM      1  O   UNL     1       5.199   2.735  20.081  0.00  0.00    +0.000 OA
ATOM      2  C   UNL     1       4.725   3.433  19.187  0.00  0.00    +0.000 C 
ATOM      3  N   UNL     1       3.367   3.403  18.883  0.00  0.00    +0.000 N 
ATOM      4  C   UNL     1       2.451   2.602  19.664  0.00  0.00    +0.000 C 
ATOM      5  C   UNL     1       1.329   2.307  18.689  0.00  0.00    +0.000 C 
ATOM      6  C   UNL     1       1.214   3.593  17.878  0.00  0.00    +0.000 C 
ATOM      7  C   UNL     1       2.635   4.183  17.869  0.00  0.00    +0.000 C 
ENDROOT
BRANCH   2   8
ATOM      8  C   UNL     1       5.648   4.354  18.435  0.00  0.00    +0.000 A 
ATOM      9  C   UNL     1       6.263   5.398  19.118  0.00  0.00    +0.000 A 
ATOM     10  C   UNL     1       7.046   6.296  18.395  0.00  0.00    +0.000 A 
ATOM     11  C   UNL     1       7.193   6.126  17.024  0.00  0.00    +0.000 A 
ATOM     12  C   UNL     1       6.572   5.045  16.429  0.00  0.00    +0.000 A 
ATOM     13  N   UNL     1       5.818   4.150  17.103  0.00  0.00    +0.000 NA
ENDBRANCH   2   8
BRANCH   7  14
ATOM     14  C   UNL     1       2.592   5.630  18.237  0.00  0.00    +0.000 A 
ATOM     15  N   UNL     1       1.948   6.221  19.217  0.00  0.00    +0.000 NA
ATOM     16  C   UNL     1       2.318   7.529  19.060  0.00  0.00    +0.000 A 
ATOM     17  N   UNL     1       3.118   7.771  18.015  0.00  0.00    +0.000 NA
ATOM     18  O   UNL     1       3.304   6.498  17.458  0.00  0.00    +0.000 OA
BRANCH  16  19
ATOM     19  C   UNL     1       1.866   8.576  20.018  0.00  0.00    +0.000 C 
ATOM     20  C   UNL     1       1.092   7.939  21.180  0.00  0.00    +0.000 C 
ATOM     21  C   UNL     1       0.446   8.995  22.060  0.00  0.00    +0.000 C 
ATOM     22  O   UNL     1      -0.375   9.866  21.288  0.00  0.00    +0.000 OA
ATOM     23  C   UNL     1       0.370  10.581  20.306  0.00  0.00    +0.000 C 
ATOM     24  C   UNL     1       0.999   9.625  19.306  0.00  0.00    +0.000 C 
ENDBRANCH  16  19
ENDBRANCH   7  14
TORSDOF 3
ENDMDL
MODEL 2
REMARK VINA RESULT:      -7.8      1.297      3.885
REMARK  Name = 
REMARK  3 active torsions:
REMARK  status: ('A' for Active; 'I' for Inactive)
REMARK    1  A    between atoms: C_2  and  C_3
REMARK    2  A    between atoms: C_13  and  C_14
REMARK    3  A    between atoms: C_16  and  C_17
REMARK                            x       y       z     vdW  Elec       q    Type
REMARK                         _______ _______ _______ _____ _____    ______ ____
ROOT
ATOM      1  O   UNL     1       3.933   2.160  17.105  0.00  0.00    +0.000 OA
ATOM      2  C   UNL     1       4.017   3.036  17.964  0.00  0.00    +0.000 C 
ATOM      3  N   UNL     1       4.994   4.025  17.901  0.00  0.00    +0.000 N 
ATOM      4  C   UNL     1       5.900   4.102  16.777  0.00  0.00    +0.000 C 
ATOM      5  C   UNL     1       7.123   4.779  17.361  0.00  0.00    +0.000 C 
ATOM      6  C   UNL     1       6.537   5.788  18.342  0.00  0.00    +0.000 C 
ATOM      7  C   UNL     1       5.220   5.153  18.823  0.00  0.00    +0.000 C 
ENDROOT
BRANCH   2   8
ATOM      8  C   UNL     1       3.012   3.036  19.084  0.00  0.00    +0.000 A 
ATOM      9  C   UNL     1       1.689   3.360  18.805  0.00  0.00    +0.000 A 
ATOM     10  C   UNL     1       0.786   3.442  19.863  0.00  0.00    +0.000 A 
ATOM     11  C   UNL     1       1.226   3.196  21.158  0.00  0.00    +0.000 A 
ATOM     12  C   UNL     1       2.550   2.851  21.345  0.00  0.00    +0.000 A 
ATOM     13  N   UNL     1       3.446   2.750  20.340  0.00  0.00    +0.000 NA
ENDBRANCH   2   8
BRANCH   7  14
ATOM     14  C   UNL     1       4.108   6.147  18.733  0.00  0.00    +0.000 A 
ATOM     15  N   UNL     1       3.165   6.422  19.604  0.00  0.00    +0.000 NA
ATOM     16  C   UNL     1       2.476   7.425  18.978  0.00  0.00    +0.000 A 
ATOM     17  N   UNL     1       2.923   7.745  17.758  0.00  0.00    +0.000 NA
ATOM     18  O   UNL     1       4.020   6.888  17.589  0.00  0.00    +0.000 OA
BRANCH  16  19
ATOM     19  C   UNL     1       1.333   8.107  19.646  0.00  0.00    +0.000 C 
ATOM     20  C   UNL     1       1.191   9.544  19.127  0.00  0.00    +0.000 C 
ATOM     21  C   UNL     1       0.169  10.326  19.933  0.00  0.00    +0.000 C 
ATOM     22  O   UNL     1       0.483  10.290  21.322  0.00  0.00    +0.000 OA
ATOM     23  C   UNL     1       0.462   8.965  21.847  0.00  0.00    +0.000 C 
ATOM     24  C   UNL     1       1.514   8.102  21.171  0.00  0.00    +0.000 C 
ENDBRANCH  16  19
ENDBRANCH   7  14
TORSDOF 3
ENDMDL
MODEL 3
REMARK VINA RESULT:      -7.7      0.609      1.005
REMARK  Name = 
REMARK  3 active torsions:
REMARK  status: ('A' for Active; 'I' for Inactive)
REMARK    1  A    between atoms: C_2  and  C_3
REMARK    2  A    between atoms: C_13  and  C_14
REMARK    3  A    between atoms: C_16  and  C_17
REMARK                            x       y       z     vdW  Elec       q    Type
REMARK                         _______ _______ _______ _____ _____    ______ ____
ROOT
ATOM      1  O   UNL     1       5.032   2.592  20.239  0.00  0.00    +0.000 OA
ATOM      2  C   UNL     1       4.598   3.306  19.337  0.00  0.00    +0.000 C 
ATOM      3  N   UNL     1       3.248   3.306  18.995  0.00  0.00    +0.000 N 
ATOM      4  C   UNL     1       2.294   2.519  19.743  0.00  0.00    +0.000 C 
ATOM      5  C   UNL     1       1.195   2.254  18.734  0.00  0.00    +0.000 C 
ATOM      6  C   UNL     1       1.129   3.547  17.930  0.00  0.00    +0.000 C 
ATOM      7  C   UNL     1       2.562   4.108  17.966  0.00  0.00    +0.000 C 
ENDROOT
BRANCH   2   8
ATOM      8  C   UNL     1       5.560   4.214  18.620  0.00  0.00    +0.000 A 
ATOM      9  C   UNL     1       5.765   4.038  17.256  0.00  0.00    +0.000 A 
ATOM     10  C   UNL     1       6.722   4.827  16.619  0.00  0.00    +0.000 A 
ATOM     11  C   UNL     1       7.437   5.762  17.356  0.00  0.00    +0.000 A 
ATOM     12  C   UNL     1       7.150   5.894  18.701  0.00  0.00    +0.000 A 
ATOM     13  N   UNL     1       6.220   5.155  19.344  0.00  0.00    +0.000 NA
ENDBRANCH   2   8
BRANCH   7  14
ATOM     14  C   UNL     1       2.537   5.553  18.345  0.00  0.00    +0.000 A 
ATOM     15  N   UNL     1       1.897   6.146  19.326  0.00  0.00    +0.000 NA
ATOM     16  C   UNL     1       2.287   7.450  19.179  0.00  0.00    +0.000 A 
ATOM     17  N   UNL     1       3.094   7.688  18.139  0.00  0.00    +0.000 NA
ATOM     18  O   UNL     1       3.265   6.416  17.575  0.00  0.00    +0.000 OA
BRANCH  16  19
ATOM     19  C   UNL     1       1.846   8.497  20.143  0.00  0.00    +0.000 C 
ATOM     20  C   UNL     1       1.024   7.868  21.276  0.00  0.00    +0.000 C 
ATOM     21  C   UNL     1       0.391   8.930  22.158  0.00  0.00    +0.000 C 
ATOM     22  O   UNL     1      -0.383   9.839  21.381  0.00  0.00    +0.000 OA
ATOM     23  C   UNL     1       0.407  10.544  20.427  0.00  0.00    +0.000 C 
ATOM     24  C   UNL     1       1.029   9.583  19.428  0.00  0.00    +0.000 C 
ENDBRANCH  16  19
ENDBRANCH   7  14
TORSDOF 3
ENDMDL
MODEL 4
REMARK VINA RESULT:      -7.4      1.247      1.576
REMARK  Name = 
REMARK  3 active torsions:
REMARK  status: ('A' for Active; 'I' for Inactive)
REMARK    1  A    between atoms: C_2  and  C_3
REMARK    2  A    between atoms: C_13  and  C_14
REMARK    3  A    between atoms: C_16  and  C_17
REMARK                            x       y       z     vdW  Elec       q    Type
REMARK                         _______ _______ _______ _____ _____    ______ ____
ROOT
ATOM      1  O   UNL     1       5.482   3.247  19.856  0.00  0.00    +0.000 OA
ATOM      2  C   UNL     1       4.550   3.761  19.240  0.00  0.00    +0.000 C 
ATOM      3  N   UNL     1       3.231   3.615  19.661  0.00  0.00    +0.000 N 
ATOM      4  C   UNL     1       2.917   2.913  20.885  0.00  0.00    +0.000 C 
ATOM      5  C   UNL     1       1.510   2.405  20.644  0.00  0.00    +0.000 C 
ATOM      6  C   UNL     1       0.856   3.529  19.850  0.00  0.00    +0.000 C 
ATOM      7  C   UNL     1       2.008   4.178  19.061  0.00  0.00    +0.000 C 
ENDROOT
BRANCH   2   8
ATOM      8  C   UNL     1       4.868   4.588  18.023  0.00  0.00    +0.000 A 
ATOM      9  C   UNL     1       4.659   4.041  16.762  0.00  0.00    +0.000 A 
ATOM     10  C   UNL     1       5.038   4.782  15.644  0.00  0.00    +0.000 A 
ATOM     11  C   UNL     1       5.607   6.038  15.817  0.00  0.00    +0.000 A 
ATOM     12  C   UNL     1       5.752   6.519  17.103  0.00  0.00    +0.000 A 
ATOM     13  N   UNL     1       5.382   5.832  18.205  0.00  0.00    +0.000 NA
ENDBRANCH   2   8
BRANCH   7  14
ATOM     14  C   UNL     1       1.968   5.662  19.224  0.00  0.00    +0.000 A 
ATOM     15  N   UNL     1       1.630   6.377  20.272  0.00  0.00    +0.000 NA
ATOM     16  C   UNL     1       1.822   7.656  19.825  0.00  0.00    +0.000 A 
ATOM     17  N   UNL     1       2.218   7.759  18.552  0.00  0.00    +0.000 NA
ATOM     18  O   UNL     1       2.318   6.422  18.143  0.00  0.00    +0.000 OA
BRANCH  16  19
ATOM     19  C   UNL     1       1.620   8.824  20.728  0.00  0.00    +0.000 C 
ATOM     20  C   UNL     1       0.723   8.436  21.911  0.00  0.00    +0.000 C 
ATOM     21  C   UNL     1       0.334   9.652  22.733  0.00  0.00    +0.000 C 
ATOM     22  O   UNL     1      -0.270  10.648  21.912  0.00  0.00    +0.000 OA
ATOM     23  C   UNL     1       0.617  11.127  20.905  0.00  0.00    +0.000 C 
ATOM     24  C   UNL     1       1.012  10.005  19.958  0.00  0.00    +0.000 C 
ENDBRANCH  16  19
ENDBRANCH   7  14
TORSDOF 3
ENDMDL
MODEL 5
REMARK VINA RESULT:      -7.4      1.446      3.724
REMARK  Name = 
REMARK  3 active torsions:
REMARK  status: ('A' for Active; 'I' for Inactive)
REMARK    1  A    between atoms: C_2  and  C_3
REMARK    2  A    between atoms: C_13  and  C_14
REMARK    3  A    between atoms: C_16  and  C_17
REMARK                            x       y       z     vdW  Elec       q    Type
REMARK                         _______ _______ _______ _____ _____    ______ ____
ROOT
ATOM      1  O   UNL     1       3.138   2.015  17.075  0.00  0.00    +0.000 OA
ATOM      2  C   UNL     1       3.468   2.878  17.886  0.00  0.00    +0.000 C 
ATOM      3  N   UNL     1       4.482   3.790  17.606  0.00  0.00    +0.000 N 
ATOM      4  C   UNL     1       5.132   3.803  16.315  0.00  0.00    +0.000 C 
ATOM      5  C   UNL     1       6.499   4.382  16.619  0.00  0.00    +0.000 C 
ATOM      6  C   UNL     1       6.212   5.428  17.690  0.00  0.00    +0.000 C 
ATOM      7  C   UNL     1       4.983   4.893  18.446  0.00  0.00    +0.000 C 
ENDROOT
BRANCH   2   8
ATOM      8  C   UNL     1       2.727   2.949  19.194  0.00  0.00    +0.000 A 
ATOM      9  C   UNL     1       1.460   3.520  19.222  0.00  0.00    +0.000 A 
ATOM     10  C   UNL     1       0.819   3.660  20.451  0.00  0.00    +0.000 A 
ATOM     11  C   UNL     1       1.456   3.226  21.607  0.00  0.00    +0.000 A 
ATOM     12  C   UNL     1       2.702   2.643  21.488  0.00  0.00    +0.000 A 
ATOM     13  N   UNL     1       3.343   2.480  20.311  0.00  0.00    +0.000 NA
ENDBRANCH   2   8
BRANCH   7  14
ATOM     14  C   UNL     1       3.956   5.969  18.583  0.00  0.00    +0.000 A 
ATOM     15  N   UNL     1       3.447   6.501  19.670  0.00  0.00    +0.000 NA
ATOM     16  C   UNL     1       2.594   7.441  19.160  0.00  0.00    +0.000 A 
ATOM     17  N   UNL     1       2.525   7.481  17.824  0.00  0.00    +0.000 NA
ATOM     18  O   UNL     1       3.439   6.493  17.431  0.00  0.00    +0.000 OA
BRANCH  16  19
ATOM     19  C   UNL     1       1.832   8.356  20.056  0.00  0.00    +0.000 C 
ATOM     20  C   UNL     1       0.916   7.549  20.986  0.00  0.00    +0.000 C 
ATOM     21  C   UNL     1      -0.020   8.457  21.765  0.00  0.00    +0.000 C 
ATOM     22  O   UNL     1      -0.762   9.297  20.886  0.00  0.00    +0.000 OA
ATOM     23  C   UNL     1       0.079  10.163  20.128  0.00  0.00    +0.000 C 
ATOM     24  C   UNL     1       1.011   9.361  19.235  0.00  0.00    +0.000 C 
ENDBRANCH  16  19
ENDBRANCH   7  14
TORSDOF 3
ENDMDL
MODEL 6
REMARK VINA RESULT:      -7.2      1.403      1.861
REMARK  Name = 
REMARK  3 active torsions:
REMARK  status: ('A' for Active; 'I' for Inactive)
REMARK    1  A    between atoms: C_2  and  C_3
REMARK    2  A    between atoms: C_13  and  C_14
REMARK    3  A    between atoms: C_16  and  C_17
REMARK                            x       y       z     vdW  Elec       q    Type
REMARK                         _______ _______ _______ _____ _____    ______ ____
ROOT
ATOM      1  O   UNL     1       5.078   2.252  20.073  0.00  0.00    +0.000 OA
ATOM      2  C   UNL     1       4.510   3.089  19.373  0.00  0.00    +0.000 C 
ATOM      3  N   UNL     1       3.140   3.030  19.136  0.00  0.00    +0.000 N 
ATOM      4  C   UNL     1       2.320   2.022  19.770  0.00  0.00    +0.000 C 
ATOM      5  C   UNL     1       1.159   1.863  18.810  0.00  0.00    +0.000 C 
ATOM      6  C   UNL     1       0.921   3.279  18.300  0.00  0.00    +0.000 C 
ATOM      7  C   UNL     1       2.303   3.954  18.349  0.00  0.00    +0.000 C 
ENDROOT
BRANCH   2   8
ATOM      8  C   UNL     1       5.331   4.209  18.793  0.00  0.00    +0.000 A 
ATOM      9  C   UNL     1       5.302   4.426  17.420  0.00  0.00    +0.000 A 
ATOM     10  C   UNL     1       6.131   5.409  16.883  0.00  0.00    +0.000 A 
ATOM     11  C   UNL     1       6.956   6.143  17.727  0.00  0.00    +0.000 A 
ATOM     12  C   UNL     1       6.901   5.884  19.083  0.00  0.00    +0.000 A 
ATOM     13  N   UNL     1       6.099   4.948  19.635  0.00  0.00    +0.000 NA
ENDBRANCH   2   8
BRANCH   7  14
ATOM     14  C   UNL     1       2.201   5.284  19.020  0.00  0.00    +0.000 A 
ATOM     15  N   UNL     1       2.357   6.486  18.516  0.00  0.00    +0.000 NA
ATOM     16  C   UNL     1       2.112   7.289  19.597  0.00  0.00    +0.000 A 
ATOM     17  N   UNL     1       1.858   6.640  20.740  0.00  0.00    +0.000 NA
ATOM     18  O   UNL     1       1.917   5.292  20.357  0.00  0.00    +0.000 OA
BRANCH  16  19
ATOM     19  C   UNL     1       2.112   8.773  19.469  0.00  0.00    +0.000 C 
ATOM     20  C   UNL     1       0.934   9.375  20.249  0.00  0.00    +0.000 C 
ATOM     21  C   UNL     1       0.788  10.861  19.971  0.00  0.00    +0.000 C 
ATOM     22  O   UNL     1       0.682  11.107  18.572  0.00  0.00    +0.000 OA
ATOM     23  C   UNL     1       1.844  10.691  17.860  0.00  0.00    +0.000 C 
ATOM     24  C   UNL     1       2.048   9.191  17.993  0.00  0.00    +0.000 C 
ENDBRANCH  16  19
ENDBRANCH   7  14
TORSDOF 3
ENDMDL
MODEL 7
REMARK VINA RESULT:      -7.1      1.780      4.069
REMARK  Name = 
REMARK  3 active torsions:
REMARK  status: ('A' for Active; 'I' for Inactive)
REMARK    1  A    between atoms: C_2  and  C_3
REMARK    2  A    between atoms: C_13  and  C_14
REMARK    3  A    between atoms: C_16  and  C_17
REMARK                            x       y       z     vdW  Elec       q    Type
REMARK                         _______ _______ _______ _____ _____    ______ ____
ROOT
ATOM      1  O   UNL     1       2.630   2.512  16.708  0.00  0.00    +0.000 OA
ATOM      2  C   UNL     1       3.074   3.236  17.596  0.00  0.00    +0.000 C 
ATOM      3  N   UNL     1       4.030   4.213  17.329  0.00  0.00    +0.000 N 
ATOM      4  C   UNL     1       4.478   4.461  15.977  0.00  0.00    +0.000 C 
ATOM      5  C   UNL     1       5.872   5.022  16.170  0.00  0.00    +0.000 C 
ATOM      6  C   UNL     1       5.745   5.864  17.434  0.00  0.00    +0.000 C 
ATOM      7  C   UNL     1       4.647   5.174  18.261  0.00  0.00    +0.000 C 
ENDROOT
BRANCH   2   8
ATOM      8  C   UNL     1       2.538   3.065  18.992  0.00  0.00    +0.000 A 
ATOM      9  C   UNL     1       1.217   3.411  19.255  0.00  0.00    +0.000 A 
ATOM     10  C   UNL     1       0.757   3.331  20.568  0.00  0.00    +0.000 A 
ATOM     11  C   UNL     1       1.621   2.908  21.571  0.00  0.00    +0.000 A 
ATOM     12  C   UNL     1       2.909   2.555  21.219  0.00  0.00    +0.000 A 
ATOM     13  N   UNL     1       3.381   2.608  19.955  0.00  0.00    +0.000 NA
ENDBRANCH   2   8
BRANCH   7  14
ATOM     14  C   UNL     1       3.647   6.181  18.729  0.00  0.00    +0.000 A 
ATOM     15  N   UNL     1       3.166   7.229  18.102  0.00  0.00    +0.000 NA
ATOM     16  C   UNL     1       2.282   7.733  19.017  0.00  0.00    +0.000 A 
ATOM     17  N   UNL     1       2.230   7.072  20.180  0.00  0.00    +0.000 NA
ATOM     18  O   UNL     1       3.146   6.028  19.991  0.00  0.00    +0.000 OA
BRANCH  16  19
ATOM     19  C   UNL     1       1.436   8.916  18.698  0.00  0.00    +0.000 C 
ATOM     20  C   UNL     1       2.299  10.054  18.137  0.00  0.00    +0.000 C 
ATOM     21  C   UNL     1       1.500  11.338  17.996  0.00  0.00    +0.000 C 
ATOM     22  O   UNL     1       0.889  11.694  19.232  0.00  0.00    +0.000 OA
ATOM     23  C   UNL     1      -0.037  10.707  19.681  0.00  0.00    +0.000 C 
ATOM     24  C   UNL     1       0.670   9.388  19.943  0.00  0.00    +0.000 C 
ENDBRANCH  16  19
ENDBRANCH   7  14
TORSDOF 3
ENDMDL
MODEL 8
REMARK VINA RESULT:      -6.9      1.344      3.898
REMARK  Name = 
REMARK  3 active torsions:
REMARK  status: ('A' for Active; 'I' for Inactive)
REMARK    1  A    between atoms: C_2  and  C_3
REMARK    2  A    between atoms: C_13  and  C_14
REMARK    3  A    between atoms: C_16  and  C_17
REMARK                            x       y       z     vdW  Elec       q    Type
REMARK                         _______ _______ _______ _____ _____    ______ ____
ROOT
ATOM      1  O   UNL     1       4.974   2.830  16.042  0.00  0.00    +0.000 OA
ATOM      2  C   UNL     1       4.698   3.413  17.089  0.00  0.00    +0.000 C 
ATOM      3  N   UNL     1       5.572   4.334  17.662  0.00  0.00    +0.000 N 
ATOM      4  C   UNL     1       6.806   4.693  17.002  0.00  0.00    +0.000 C 
ATOM      5  C   UNL     1       7.703   5.116  18.148  0.00  0.00    +0.000 C 
ATOM      6  C   UNL     1       6.749   5.820  19.106  0.00  0.00    +0.000 C 
ATOM      7  C   UNL     1       5.390   5.132  18.888  0.00  0.00    +0.000 C 
ENDROOT
BRANCH   2   8
ATOM      8  C   UNL     1       3.367   3.132  17.733  0.00  0.00    +0.000 A 
ATOM      9  C   UNL     1       3.261   2.074  18.629  0.00  0.00    +0.000 A 
ATOM     10  C   UNL     1       2.006   1.768  19.153  0.00  0.00    +0.000 A 
ATOM     11  C   UNL     1       0.904   2.524  18.772  0.00  0.00    +0.000 A 
ATOM     12  C   UNL     1       1.102   3.577  17.900  0.00  0.00    +0.000 A 
ATOM     13  N   UNL     1       2.306   3.907  17.387  0.00  0.00    +0.000 NA
ENDBRANCH   2   8
BRANCH   7  14
ATOM     14  C   UNL     1       4.320   6.158  18.703  0.00  0.00    +0.000 A 
ATOM     15  N   UNL     1       3.272   6.412  19.452  0.00  0.00    +0.000 NA
ATOM     16  C   UNL     1       2.694   7.463  18.794  0.00  0.00    +0.000 A 
ATOM     17  N   UNL     1       3.308   7.834  17.664  0.00  0.00    +0.000 NA
ATOM     18  O   UNL     1       4.402   6.959  17.599  0.00  0.00    +0.000 OA
BRANCH  16  19
ATOM     19  C   UNL     1       1.483   8.139  19.338  0.00  0.00    +0.000 C 
ATOM     20  C   UNL     1       1.391   9.577  18.809  0.00  0.00    +0.000 C 
ATOM     21  C   UNL     1       0.286  10.353  19.503  0.00  0.00    +0.000 C 
ATOM     22  O   UNL     1       0.451  10.316  20.917  0.00  0.00    +0.000 OA
ATOM     23  C   UNL     1       0.379   8.991  21.435  0.00  0.00    +0.000 C 
ATOM     24  C   UNL     1       1.501   8.133  20.873  0.00  0.00    +0.000 C 
ENDBRANCH  16  19
ENDBRANCH   7  14
TORSDOF 3
ENDMDL
MODEL 9
REMARK VINA RESULT:      -6.9      1.738      3.980
REMARK  Name = 
REMARK  3 active torsions:
REMARK  status: ('A' for Active; 'I' for Inactive)
REMARK    1  A    between atoms: C_2  and  C_3
REMARK    2  A    between atoms: C_13  and  C_14
REMARK    3  A    between atoms: C_16  and  C_17
REMARK                            x       y       z     vdW  Elec       q    Type
REMARK                         _______ _______ _______ _____ _____    ______ ____
ROOT
ATOM      1  O   UNL     1       2.598   2.693  16.662  0.00  0.00    +0.000 OA
ATOM      2  C   UNL     1       3.037   3.369  17.590  0.00  0.00    +0.000 C 
ATOM      3  N   UNL     1       3.987   4.365  17.379  0.00  0.00    +0.000 N 
ATOM      4  C   UNL     1       4.436   4.690  16.044  0.00  0.00    +0.000 C 
ATOM      5  C   UNL     1       5.826   5.248  16.270  0.00  0.00    +0.000 C 
ATOM      6  C   UNL     1       5.692   6.019  17.578  0.00  0.00    +0.000 C 
ATOM      7  C   UNL     1       4.597   5.277  18.364  0.00  0.00    +0.000 C 
ENDROOT
BRANCH   2   8
ATOM      8  C   UNL     1       2.500   3.118  18.974  0.00  0.00    +0.000 A 
ATOM      9  C   UNL     1       1.172   3.423  19.248  0.00  0.00    +0.000 A 
ATOM     10  C   UNL     1       0.708   3.268  20.553  0.00  0.00    +0.000 A 
ATOM     11  C   UNL     1       1.578   2.815  21.537  0.00  0.00    +0.000 A 
ATOM     12  C   UNL     1       2.874   2.506  21.174  0.00  0.00    +0.000 A 
ATOM     13  N   UNL     1       3.349   2.632  19.916  0.00  0.00    +0.000 NA
ENDBRANCH   2   8
BRANCH   7  14
ATOM     14  C   UNL     1       3.591   6.250  18.885  0.00  0.00    +0.000 A 
ATOM     15  N   UNL     1       3.186   7.387  18.367  0.00  0.00    +0.000 NA
ATOM     16  C   UNL     1       2.247   7.800  19.273  0.00  0.00    +0.000 A 
ATOM     17  N   UNL     1       2.089   6.998  20.333  0.00  0.00    +0.000 NA
ATOM     18  O   UNL     1       2.990   5.955  20.077  0.00  0.00    +0.000 OA
BRANCH  16  19
ATOM     19  C   UNL     1       1.458   9.044  19.050  0.00  0.00    +0.000 C 
ATOM     20  C   UNL     1       0.663   9.404  20.312  0.00  0.00    +0.000 C 
ATOM     21  C   UNL     1      -0.304  10.545  20.050  0.00  0.00    +0.000 C 
ATOM     22  O   UNL     1      -1.158  10.245  18.950  0.00  0.00    +0.000 OA
ATOM     23  C   UNL     1      -0.433  10.063  17.737  0.00  0.00    +0.000 C 
ATOM     24  C   UNL     1       0.515   8.881  17.849  0.00  0.00    +0.000 C 
ENDBRANCH  16  19
ENDBRANCH   7  14
TORSDOF 3
ENDMDL
