MODEL 1
REMARK VINA RESULT:      -7.1      0.000      0.000
REMARK  Name = 
REMARK  8 active torsions:
REMARK  status: ('A' for Active; 'I' for Inactive)
REMARK    1  A    between atoms: C_1  and  C_2
REMARK    2  A    between atoms: C_2  and  O_3
REMARK    3  A    between atoms: O_3  and  C_4
REMARK    4  A    between atoms: C_4  and  C_6
REMARK    5  A    between atoms: C_9  and  N_10
REMARK    6  A    between atoms: C_11  and  S_12
REMARK    7  A    between atoms: N_13  and  C_14
REMARK    8  A    between atoms: C_14  and  C_15
REMARK                            x       y       z     vdW  Elec       q    Type
REMARK                         _______ _______ _______ _____ _____    ______ ____
ROOT
ATOM      1  N   UNL     1       6.339   7.298  16.785  0.00  0.00    +0.000 N 
ATOM      2  C   UNL     1       7.347   7.719  17.629  0.00  0.00    +0.000 C 
ATOM      3  N   UNL     1       7.751   8.948  17.500  0.00  0.00    +0.000 NA
ATOM      4  H   UNL     1       6.083   8.060  16.169  0.00  0.00    +0.000 HD
ENDROOT
BRANCH   1   8
ATOM      5  C   UNL     1       3.178   4.565  17.545  0.00  0.00    +0.000 A 
ATOM      6  C   UNL     1       3.078   5.912  17.906  0.00  0.00    +0.000 A 
ATOM      7  C   UNL     1       4.125   6.797  17.614  0.00  0.00    +0.000 A 
ATOM      8  C   UNL     1       5.294   6.366  16.959  0.00  0.00    +0.000 A 
ATOM      9  C   UNL     1       5.322   5.034  16.531  0.00  0.00    +0.000 A 
ATOM     10  C   UNL     1       4.297   4.134  16.841  0.00  0.00    +0.000 A 
BRANCH   5  11
ATOM     11  C   UNL     1       2.087   3.594  17.792  0.00  0.00    +0.000 C 
ATOM     12  O   UNL     1       0.934   3.769  17.431  0.00  0.00    +0.000 OA
BRANCH  11  13
ATOM     13  O   UNL     1       2.561   2.557  18.522  0.00  0.00    +0.000 OA
BRANCH  13  15
ATOM     14  C   UNL     1       1.385   2.819  20.572  0.00  0.00    +0.000 C 
ATOM     15  C   UNL     1       2.753   2.835  19.915  0.00  0.00    +0.000 C 
ENDBRANCH  13  15
ENDBRANCH  11  13
ENDBRANCH   5  11
ENDBRANCH   1   8
BRANCH   2  16
ATOM     16  S   UNL     1       8.071   6.620  18.797  0.00  0.00    +0.000 S 
ATOM     17  H   UNL     1       7.006   6.554  19.605  0.00  0.00    +0.000 HD
ENDBRANCH   2  16
BRANCH   3  18
ATOM     18  C   UNL     1       8.813   9.429  18.395  0.00  0.00    +0.000 C 
BRANCH  18  19
ATOM     19  C   UNL     1       9.315  10.818  18.100  0.00  0.00    +0.000 A 
ATOM     20  C   UNL     1      10.676  11.115  18.245  0.00  0.00    +0.000 A 
ATOM     21  C   UNL     1      11.127  12.420  18.084  0.00  0.00    +0.000 A 
ATOM     22  C   UNL     1      10.195  13.399  17.790  0.00  0.00    +0.000 A 
ATOM     23  N   UNL     1       8.872  13.159  17.650  0.00  0.00    +0.000 NA
ATOM     24  C   UNL     1       8.463  11.876  17.812  0.00  0.00    +0.000 A 
ENDBRANCH  18  19
ENDBRANCH   3  18
TORSDOF 7
ENDMDL
MODEL 2
REMARK VINA RESULT:      -7.0      0.807      1.131
REMARK  Name = 
REMARK  8 active torsions:
REMARK  status: ('A' for Active; 'I' for Inactive)
REMARK    1  A    between atoms: C_1  and  C_2
REMARK    2  A    between atoms: C_2  and  O_3
REMARK    3  A    between atoms: O_3  and  C_4
REMARK    4  A    between atoms: C_4  and  C_6
REMARK    5  A    between atoms: C_9  and  N_10
REMARK    6  A    between atoms: C_11  and  S_12
REMARK    7  A    between atoms: N_13  and  C_14
REMARK    8  A    between atoms: C_14  and  C_15
REMARK                            x       y       z     vdW  Elec       q    Type
REMARK                         _______ _______ _______ _____ _____    ______ ____
ROOT
ATOM      1  N   UNL     1       6.356   7.065  16.950  0.00  0.00    +0.000 N 
ATOM      2  C   UNL     1       7.372   7.446  17.804  0.00  0.00    +0.000 C 
ATOM      3  N   UNL     1       7.853   8.643  17.653  0.00  0.00    +0.000 NA
ATOM      4  H   UNL     1       6.159   7.824  16.309  0.00  0.00    +0.000 HD
ENDROOT
BRANCH   1   8
ATOM      5  C   UNL     1       3.009   4.562  17.707  0.00  0.00    +0.000 A 
ATOM      6  C   UNL     1       2.963   5.936  17.962  0.00  0.00    +0.000 A 
ATOM      7  C   UNL     1       4.073   6.741  17.672  0.00  0.00    +0.000 A 
ATOM      8  C   UNL     1       5.253   6.203  17.126  0.00  0.00    +0.000 A 
ATOM      9  C   UNL     1       5.232   4.843  16.799  0.00  0.00    +0.000 A 
ATOM     10  C   UNL     1       4.142   4.022  17.109  0.00  0.00    +0.000 A 
BRANCH   5  11
ATOM     11  C   UNL     1       1.853   3.669  17.955  0.00  0.00    +0.000 C 
ATOM     12  O   UNL     1       0.756   3.829  17.446  0.00  0.00    +0.000 OA
BRANCH  11  13
ATOM     13  O   UNL     1       2.196   2.728  18.866  0.00  0.00    +0.000 OA
BRANCH  13  15
ATOM     14  C   UNL     1       2.084   3.149  21.203  0.00  0.00    +0.000 C 
ATOM     15  C   UNL     1       1.321   2.632  19.997  0.00  0.00    +0.000 C 
ENDBRANCH  13  15
ENDBRANCH  11  13
ENDBRANCH   5  11
ENDBRANCH   1   8
BRANCH   2  16
ATOM     16  S   UNL     1       8.004   6.336  19.015  0.00  0.00    +0.000 S 
ATOM     17  H   UNL     1       9.288   6.682  18.864  0.00  0.00    +0.000 HD
ENDBRANCH   2  16
BRANCH   3  18
ATOM     18  C   UNL     1       8.925   9.083  18.557  0.00  0.00    +0.000 C 
BRANCH  18  19
ATOM     19  C   UNL     1       9.190  10.565  18.559  0.00  0.00    +0.000 A 
ATOM     20  C   UNL     1       8.447  11.408  17.723  0.00  0.00    +0.000 A 
ATOM     21  C   UNL     1       8.761  12.760  17.637  0.00  0.00    +0.000 A 
ATOM     22  C   UNL     1       9.824  13.230  18.387  0.00  0.00    +0.000 A 
ATOM     23  N   UNL     1      10.574  12.451  19.198  0.00  0.00    +0.000 NA
ATOM     24  C   UNL     1      10.242  11.137  19.262  0.00  0.00    +0.000 A 
ENDBRANCH  18  19
ENDBRANCH   3  18
TORSDOF 7
ENDMDL
MODEL 3
REMARK VINA RESULT:      -6.9      1.179      1.306
REMARK  Name = 
REMARK  8 active torsions:
REMARK  status: ('A' for Active; 'I' for Inactive)
REMARK    1  A    between atoms: C_1  and  C_2
REMARK    2  A    between atoms: C_2  and  O_3
REMARK    3  A    between atoms: O_3  and  C_4
REMARK    4  A    between atoms: C_4  and  C_6
REMARK    5  A    between atoms: C_9  and  N_10
REMARK    6  A    between atoms: C_11  and  S_12
REMARK    7  A    between atoms: N_13  and  C_14
REMARK    8  A    between atoms: C_14  and  C_15
REMARK                            x       y       z     vdW  Elec       q    Type
REMARK                         _______ _______ _______ _____ _____    ______ ____
ROOT
ATOM      1  N   UNL     1       5.817   7.010  17.043  0.00  0.00    +0.000 N 
ATOM      2  C   UNL     1       6.997   7.296  17.700  0.00  0.00    +0.000 C 
ATOM      3  N   UNL     1       7.503   8.479  17.520  0.00  0.00    +0.000 NA
ATOM      4  H   UNL     1       5.540   7.815  16.494  0.00  0.00    +0.000 HD
ENDROOT
BRANCH   1   8
ATOM      5  C   UNL     1       2.512   4.653  18.291  0.00  0.00    +0.000 A 
ATOM      6  C   UNL     1       2.473   6.050  18.349  0.00  0.00    +0.000 A 
ATOM      7  C   UNL     1       3.568   6.802  17.900  0.00  0.00    +0.000 A 
ATOM      8  C   UNL     1       4.724   6.187  17.387  0.00  0.00    +0.000 A 
ATOM      9  C   UNL     1       4.693   4.794  17.259  0.00  0.00    +0.000 A 
ATOM     10  C   UNL     1       3.619   4.030  17.728  0.00  0.00    +0.000 A 
BRANCH   5  11
ATOM     11  C   UNL     1       1.370   3.809  18.713  0.00  0.00    +0.000 C 
ATOM     12  O   UNL     1       0.908   2.908  18.031  0.00  0.00    +0.000 OA
BRANCH  11  13
ATOM     13  O   UNL     1       0.902   4.245  19.907  0.00  0.00    +0.000 OA
BRANCH  13  15
ATOM     14  C   UNL     1       1.488   2.612  21.534  0.00  0.00    +0.000 C 
ATOM     15  C   UNL     1       1.774   4.011  21.021  0.00  0.00    +0.000 C 
ENDBRANCH  13  15
ENDBRANCH  11  13
ENDBRANCH   5  11
ENDBRANCH   1   8
BRANCH   2  16
ATOM     16  S   UNL     1       7.792   6.088  18.704  0.00  0.00    +0.000 S 
ATOM     17  H   UNL     1       8.160   6.934  19.674  0.00  0.00    +0.000 HD
ENDBRANCH   2  16
BRANCH   3  18
ATOM     18  C   UNL     1       8.751   8.816  18.218  0.00  0.00    +0.000 C 
BRANCH  18  19
ATOM     19  C   UNL     1       8.930  10.278  18.533  0.00  0.00    +0.000 A 
ATOM     20  C   UNL     1       9.391  10.669  19.796  0.00  0.00    +0.000 A 
ATOM     21  C   UNL     1       9.451  12.017  20.131  0.00  0.00    +0.000 A 
ATOM     22  C   UNL     1       9.035  12.941  19.189  0.00  0.00    +0.000 A 
ATOM     23  N   UNL     1       8.575  12.609  17.963  0.00  0.00    +0.000 NA
ATOM     24  C   UNL     1       8.529  11.286  17.665  0.00  0.00    +0.000 A 
ENDBRANCH  18  19
ENDBRANCH   3  18
TORSDOF 7
ENDMDL
MODEL 4
REMARK VINA RESULT:      -6.8      0.846      1.658
REMARK  Name = 
REMARK  8 active torsions:
REMARK  status: ('A' for Active; 'I' for Inactive)
REMARK    1  A    between atoms: C_1  and  C_2
REMARK    2  A    between atoms: C_2  and  O_3
REMARK    3  A    between atoms: O_3  and  C_4
REMARK    4  A    between atoms: C_4  and  C_6
REMARK    5  A    between atoms: C_9  and  N_10
REMARK    6  A    between atoms: C_11  and  S_12
REMARK    7  A    between atoms: N_13  and  C_14
REMARK    8  A    between atoms: C_14  and  C_15
REMARK                            x       y       z     vdW  Elec       q    Type
REMARK                         _______ _______ _______ _____ _____    ______ ____
ROOT
ATOM      1  N   UNL     1       6.241   7.116  16.996  0.00  0.00    +0.000 N 
ATOM      2  C   UNL     1       7.306   7.543  17.764  0.00  0.00    +0.000 C 
ATOM      3  N   UNL     1       7.690   8.774  17.611  0.00  0.00    +0.000 NA
ATOM      4  H   UNL     1       5.933   7.878  16.404  0.00  0.00    +0.000 HD
ENDROOT
BRANCH   1   8
ATOM      5  C   UNL     1       3.197   4.201  17.516  0.00  0.00    +0.000 A 
ATOM      6  C   UNL     1       4.452   3.858  17.007  0.00  0.00    +0.000 A 
ATOM      7  C   UNL     1       5.448   4.837  16.876  0.00  0.00    +0.000 A 
ATOM      8  C   UNL     1       5.219   6.175  17.245  0.00  0.00    +0.000 A 
ATOM      9  C   UNL     1       3.984   6.464  17.836  0.00  0.00    +0.000 A 
ATOM     10  C   UNL     1       2.973   5.504  17.946  0.00  0.00    +0.000 A 
BRANCH   5  11
ATOM     11  C   UNL     1       2.121   3.201  17.715  0.00  0.00    +0.000 C 
ATOM     12  O   UNL     1       2.142   2.082  17.228  0.00  0.00    +0.000 OA
BRANCH  11  13
ATOM     13  O   UNL     1       1.120   3.752  18.441  0.00  0.00    +0.000 OA
BRANCH  13  15
ATOM     14  C   UNL     1       1.377   3.577  20.798  0.00  0.00    +0.000 C 
ATOM     15  C   UNL     1       0.700   2.984  19.575  0.00  0.00    +0.000 C 
ENDBRANCH  13  15
ENDBRANCH  11  13
ENDBRANCH   5  11
ENDBRANCH   1   8
BRANCH   2  16
ATOM     16  S   UNL     1       8.125   6.445  18.871  0.00  0.00    +0.000 S 
ATOM     17  H   UNL     1       8.962   5.930  17.963  0.00  0.00    +0.000 HD
ENDBRANCH   2  16
BRANCH   3  18
ATOM     18  C   UNL     1       8.813   9.261  18.425  0.00  0.00    +0.000 C 
BRANCH  18  19
ATOM     19  C   UNL     1       9.081  10.739  18.322  0.00  0.00    +0.000 A 
ATOM     20  C   UNL     1       8.157  11.574  17.680  0.00  0.00    +0.000 A 
ATOM     21  C   UNL     1       8.451  12.918  17.483  0.00  0.00    +0.000 A 
ATOM     22  C   UNL     1       9.673  13.389  17.926  0.00  0.00    +0.000 A 
ATOM     23  N   UNL     1      10.598  12.619  18.541  0.00  0.00    +0.000 NA
ATOM     24  C   UNL     1      10.282  11.312  18.721  0.00  0.00    +0.000 A 
ENDBRANCH  18  19
ENDBRANCH   3  18
TORSDOF 7
ENDMDL
MODEL 5
REMARK VINA RESULT:      -6.7      0.300      1.059
REMARK  Name = 
REMARK  8 active torsions:
REMARK  status: ('A' for Active; 'I' for Inactive)
REMARK    1  A    between atoms: C_1  and  C_2
REMARK    2  A    between atoms: C_2  and  O_3
REMARK    3  A    between atoms: O_3  and  C_4
REMARK    4  A    between atoms: C_4  and  C_6
REMARK    5  A    between atoms: C_9  and  N_10
REMARK    6  A    between atoms: C_11  and  S_12
REMARK    7  A    between atoms: N_13  and  C_14
REMARK    8  A    between atoms: C_14  and  C_15
REMARK                            x       y       z     vdW  Elec       q    Type
REMARK                         _______ _______ _______ _____ _____    ______ ____
ROOT
ATOM      1  N   UNL     1       6.357   7.236  16.883  0.00  0.00    +0.000 N 
ATOM      2  C   UNL     1       7.378   7.701  17.687  0.00  0.00    +0.000 C 
ATOM      3  N   UNL     1       7.789   8.916  17.478  0.00  0.00    +0.000 NA
ATOM      4  H   UNL     1       6.098   7.960  16.223  0.00  0.00    +0.000 HD
ENDROOT
BRANCH   1   8
ATOM      5  C   UNL     1       3.193   4.446  17.379  0.00  0.00    +0.000 A 
ATOM      6  C   UNL     1       4.341   4.122  16.649  0.00  0.00    +0.000 A 
ATOM      7  C   UNL     1       5.382   5.053  16.529  0.00  0.00    +0.000 A 
ATOM      8  C   UNL     1       5.307   6.324  17.128  0.00  0.00    +0.000 A 
ATOM      9  C   UNL     1       4.187   6.581  17.925  0.00  0.00    +0.000 A 
ATOM     10  C   UNL     1       3.128   5.672  18.030  0.00  0.00    +0.000 A 
BRANCH   5  11
ATOM     11  C   UNL     1       2.079   3.488  17.573  0.00  0.00    +0.000 C 
ATOM     12  O   UNL     1       0.905   3.776  17.405  0.00  0.00    +0.000 OA
BRANCH  11  13
ATOM     13  O   UNL     1       2.571   2.308  18.019  0.00  0.00    +0.000 OA
BRANCH  13  15
ATOM     14  C   UNL     1       1.795   2.458  20.262  0.00  0.00    +0.000 C 
ATOM     15  C   UNL     1       3.022   2.315  19.379  0.00  0.00    +0.000 C 
ENDBRANCH  13  15
ENDBRANCH  11  13
ENDBRANCH   5  11
ENDBRANCH   1   8
BRANCH   2  16
ATOM     16  S   UNL     1       8.109   6.672  18.914  0.00  0.00    +0.000 S 
ATOM     17  H   UNL     1       9.025   6.123  18.107  0.00  0.00    +0.000 HD
ENDBRANCH   2  16
BRANCH   3  18
ATOM     18  C   UNL     1       8.864   9.444  18.328  0.00  0.00    +0.000 C 
BRANCH  18  19
ATOM     19  C   UNL     1       9.275  10.862  18.029  0.00  0.00    +0.000 A 
ATOM     20  C   UNL     1      10.626  11.228  18.099  0.00  0.00    +0.000 A 
ATOM     21  C   UNL     1      10.998  12.557  17.935  0.00  0.00    +0.000 A 
ATOM     22  C   UNL     1      10.001  13.490  17.716  0.00  0.00    +0.000 A 
ATOM     23  N   UNL     1       8.686  13.184  17.651  0.00  0.00    +0.000 NA
ATOM     24  C   UNL     1       8.354  11.879  17.813  0.00  0.00    +0.000 A 
ENDBRANCH  18  19
ENDBRANCH   3  18
TORSDOF 7
ENDMDL
MODEL 6
REMARK VINA RESULT:      -6.5      5.466      7.960
REMARK  Name = 
REMARK  8 active torsions:
REMARK  status: ('A' for Active; 'I' for Inactive)
REMARK    1  A    between atoms: C_1  and  C_2
REMARK    2  A    between atoms: C_2  and  O_3
REMARK    3  A    between atoms: O_3  and  C_4
REMARK    4  A    between atoms: C_4  and  C_6
REMARK    5  A    between atoms: C_9  and  N_10
REMARK    6  A    between atoms: C_11  and  S_12
REMARK    7  A    between atoms: N_13  and  C_14
REMARK    8  A    between atoms: C_14  and  C_15
REMARK                            x       y       z     vdW  Elec       q    Type
REMARK                         _______ _______ _______ _____ _____    ______ ____
ROOT
ATOM      1  N   UNL     1       2.113   8.534  18.466  0.00  0.00    +0.000 N 
ATOM      2  C   UNL     1       1.108   9.310  19.011  0.00  0.00    +0.000 C 
ATOM      3  N   UNL     1       0.458  10.090  18.200  0.00  0.00    +0.000 NA
ATOM      4  H   UNL     1       2.180   8.727  17.475  0.00  0.00    +0.000 HD
ENDROOT
BRANCH   1   8
ATOM      5  C   UNL     1       3.526   4.608  19.257  0.00  0.00    +0.000 A 
ATOM      6  C   UNL     1       3.944   5.318  18.128  0.00  0.00    +0.000 A 
ATOM      7  C   UNL     1       3.484   6.624  17.910  0.00  0.00    +0.000 A 
ATOM      8  C   UNL     1       2.600   7.254  18.805  0.00  0.00    +0.000 A 
ATOM      9  C   UNL     1       2.275   6.550  19.970  0.00  0.00    +0.000 A 
ATOM     10  C   UNL     1       2.703   5.235  20.185  0.00  0.00    +0.000 A 
BRANCH   5  11
ATOM     11  C   UNL     1       4.010   3.240  19.559  0.00  0.00    +0.000 C 
ATOM     12  O   UNL     1       5.192   2.942  19.625  0.00  0.00    +0.000 OA
BRANCH  11  13
ATOM     13  O   UNL     1       2.954   2.401  19.673  0.00  0.00    +0.000 OA
BRANCH  13  15
ATOM     14  C   UNL     1       0.740   2.305  18.810  0.00  0.00    +0.000 C 
ATOM     15  C   UNL     1       2.213   2.192  18.463  0.00  0.00    +0.000 C 
ENDBRANCH  13  15
ENDBRANCH  11  13
ENDBRANCH   5  11
ENDBRANCH   1   8
BRANCH   2  16
ATOM     16  S   UNL     1       0.759   9.265  20.735  0.00  0.00    +0.000 S 
ATOM     17  H   UNL     1       1.269  10.470  21.012  0.00  0.00    +0.000 HD
ENDBRANCH   2  16
BRANCH   3  18
ATOM     18  C   UNL     1      -0.625  10.917  18.747  0.00  0.00    +0.000 C 
BRANCH  18  19
ATOM     19  C   UNL     1      -1.925  10.848  17.989  0.00  0.00    +0.000 A 
ATOM     20  C   UNL     1      -2.028  10.039  16.851  0.00  0.00    +0.000 A 
ATOM     21  C   UNL     1      -3.186  10.057  16.084  0.00  0.00    +0.000 A 
ATOM     22  C   UNL     1      -4.212  10.899  16.474  0.00  0.00    +0.000 A 
ATOM     23  N   UNL     1      -4.153  11.704  17.558  0.00  0.00    +0.000 NA
ATOM     24  C   UNL     1      -3.010  11.662  18.288  0.00  0.00    +0.000 A 
ENDBRANCH  18  19
ENDBRANCH   3  18
TORSDOF 7
ENDMDL
MODEL 7
REMARK VINA RESULT:      -6.5      1.109      1.596
REMARK  Name = 
REMARK  8 active torsions:
REMARK  status: ('A' for Active; 'I' for Inactive)
REMARK    1  A    between atoms: C_1  and  C_2
REMARK    2  A    between atoms: C_2  and  O_3
REMARK    3  A    between atoms: O_3  and  C_4
REMARK    4  A    between atoms: C_4  and  C_6
REMARK    5  A    between atoms: C_9  and  N_10
REMARK    6  A    between atoms: C_11  and  S_12
REMARK    7  A    between atoms: N_13  and  C_14
REMARK    8  A    between atoms: C_14  and  C_15
REMARK                            x       y       z     vdW  Elec       q    Type
REMARK                         _______ _______ _______ _____ _____    ______ ____
ROOT
ATOM      1  N   UNL     1       5.863   7.287  17.042  0.00  0.00    +0.000 N 
ATOM      2  C   UNL     1       7.077   7.572  17.636  0.00  0.00    +0.000 C 
ATOM      3  N   UNL     1       7.565   8.761  17.442  0.00  0.00    +0.000 NA
ATOM      4  H   UNL     1       5.552   8.096  16.518  0.00  0.00    +0.000 HD
ENDROOT
BRANCH   1   8
ATOM      5  C   UNL     1       2.664   4.666  18.008  0.00  0.00    +0.000 A 
ATOM      6  C   UNL     1       3.865   4.184  17.479  0.00  0.00    +0.000 A 
ATOM      7  C   UNL     1       4.915   5.070  17.199  0.00  0.00    +0.000 A 
ATOM      8  C   UNL     1       4.796   6.452  17.436  0.00  0.00    +0.000 A 
ATOM      9  C   UNL     1       3.617   6.887  18.050  0.00  0.00    +0.000 A 
ATOM     10  C   UNL     1       2.551   6.018  18.308  0.00  0.00    +0.000 A 
BRANCH   5  11
ATOM     11  C   UNL     1       1.537   3.771  18.361  0.00  0.00    +0.000 C 
ATOM     12  O   UNL     1       1.100   2.910  17.614  0.00  0.00    +0.000 OA
BRANCH  11  13
ATOM     13  O   UNL     1       1.051   4.114  19.577  0.00  0.00    +0.000 OA
BRANCH  13  15
ATOM     14  C   UNL     1       1.976   3.395  21.647  0.00  0.00    +0.000 C 
ATOM     15  C   UNL     1       1.005   3.047  20.533  0.00  0.00    +0.000 C 
ENDBRANCH  13  15
ENDBRANCH  11  13
ENDBRANCH   5  11
ENDBRANCH   1   8
BRANCH   2  16
ATOM     16  S   UNL     1       7.933   6.359  18.580  0.00  0.00    +0.000 S 
ATOM     17  H   UNL     1       8.766   7.214  19.184  0.00  0.00    +0.000 HD
ENDBRANCH   2  16
BRANCH   3  18
ATOM     18  C   UNL     1       8.848   9.098  18.074  0.00  0.00    +0.000 C 
BRANCH  18  19
ATOM     19  C   UNL     1       8.983  10.532  18.515  0.00  0.00    +0.000 A 
ATOM     20  C   UNL     1       9.425  10.826  19.811  0.00  0.00    +0.000 A 
ATOM     21  C   UNL     1       9.445  12.141  20.261  0.00  0.00    +0.000 A 
ATOM     22  C   UNL     1       9.009  13.130  19.398  0.00  0.00    +0.000 A 
ATOM     23  N   UNL     1       8.565  12.892  18.144  0.00  0.00    +0.000 NA
ATOM     24  C   UNL     1       8.559  11.599  17.733  0.00  0.00    +0.000 A 
ENDBRANCH  18  19
ENDBRANCH   3  18
TORSDOF 7
ENDMDL
MODEL 8
REMARK VINA RESULT:      -6.5      5.514      7.150
REMARK  Name = 
REMARK  8 active torsions:
REMARK  status: ('A' for Active; 'I' for Inactive)
REMARK    1  A    between atoms: C_1  and  C_2
REMARK    2  A    between atoms: C_2  and  O_3
REMARK    3  A    between atoms: O_3  and  C_4
REMARK    4  A    between atoms: C_4  and  C_6
REMARK    5  A    between atoms: C_9  and  N_10
REMARK    6  A    between atoms: C_11  and  S_12
REMARK    7  A    between atoms: N_13  and  C_14
REMARK    8  A    between atoms: C_14  and  C_15
REMARK                            x       y       z     vdW  Elec       q    Type
REMARK                         _______ _______ _______ _____ _____    ______ ____
ROOT
ATOM      1  N   UNL     1       2.974   5.536  17.830  0.00  0.00    +0.000 N 
ATOM      2  C   UNL     1       4.239   5.046  17.570  0.00  0.00    +0.000 C 
ATOM      3  N   UNL     1       4.371   4.269  16.537  0.00  0.00    +0.000 NA
ATOM      4  H   UNL     1       2.330   5.175  17.137  0.00  0.00    +0.000 HD
ENDROOT
BRANCH   1   8
ATOM      5  C   UNL     1       1.468   9.066  19.649  0.00  0.00    +0.000 A 
ATOM      6  C   UNL     1       1.676   7.898  20.389  0.00  0.00    +0.000 A 
ATOM      7  C   UNL     1       2.204   6.758  19.767  0.00  0.00    +0.000 A 
ATOM      8  C   UNL     1       2.535   6.750  18.400  0.00  0.00    +0.000 A 
ATOM      9  C   UNL     1       2.400   7.961  17.711  0.00  0.00    +0.000 A 
ATOM     10  C   UNL     1       1.848   9.097  18.312  0.00  0.00    +0.000 A 
BRANCH   5  11
ATOM     11  C   UNL     1       0.952  10.312  20.261  0.00  0.00    +0.000 C 
ATOM     12  O   UNL     1       1.116  10.606  21.435  0.00  0.00    +0.000 OA
BRANCH  11  13
ATOM     13  O   UNL     1       0.233  11.003  19.345  0.00  0.00    +0.000 OA
BRANCH  13  15
ATOM     14  C   UNL     1      -1.874  12.090  19.160  0.00  0.00    +0.000 C 
ATOM     15  C   UNL     1      -1.179  10.757  19.371  0.00  0.00    +0.000 C 
ENDBRANCH  13  15
ENDBRANCH  11  13
ENDBRANCH   5  11
ENDBRANCH   1   8
BRANCH   2  16
ATOM     16  S   UNL     1       5.596   5.432  18.622  0.00  0.00    +0.000 S 
ATOM     17  H   UNL     1       5.185   4.692  19.658  0.00  0.00    +0.000 HD
ENDBRANCH   2  16
BRANCH   3  18
ATOM     18  C   UNL     1       5.708   3.743  16.227  0.00  0.00    +0.000 C 
BRANCH  18  19
ATOM     19  C   UNL     1       6.284   4.202  14.914  0.00  0.00    +0.000 A 
ATOM     20  C   UNL     1       5.944   3.535  13.730  0.00  0.00    +0.000 A 
ATOM     21  C   UNL     1       6.558   3.881  12.532  0.00  0.00    +0.000 A 
ATOM     22  C   UNL     1       7.510   4.884  12.555  0.00  0.00    +0.000 A 
ATOM     23  N   UNL     1       7.877   5.547  13.675  0.00  0.00    +0.000 NA
ATOM     24  C   UNL     1       7.259   5.188  14.827  0.00  0.00    +0.000 A 
ENDBRANCH  18  19
ENDBRANCH   3  18
TORSDOF 7
ENDMDL
MODEL 9
REMARK VINA RESULT:      -6.4      5.815      8.300
REMARK  Name = 
REMARK  8 active torsions:
REMARK  status: ('A' for Active; 'I' for Inactive)
REMARK    1  A    between atoms: C_1  and  C_2
REMARK    2  A    between atoms: C_2  and  O_3
REMARK    3  A    between atoms: O_3  and  C_4
REMARK    4  A    between atoms: C_4  and  C_6
REMARK    5  A    between atoms: C_9  and  N_10
REMARK    6  A    between atoms: C_11  and  S_12
REMARK    7  A    between atoms: N_13  and  C_14
REMARK    8  A    between atoms: C_14  and  C_15
REMARK                            x       y       z     vdW  Elec       q    Type
REMARK                         _______ _______ _______ _____ _____    ______ ____
ROOT
ATOM      1  N   UNL     1       1.800   8.911  18.135  0.00  0.00    +0.000 N 
ATOM      2  C   UNL     1       0.817   9.572  18.844  0.00  0.00    +0.000 C 
ATOM      3  N   UNL     1      -0.119  10.154  18.155  0.00  0.00    +0.000 NA
ATOM      4  H   UNL     1       1.617   9.010  17.144  0.00  0.00    +0.000 HD
ENDROOT
BRANCH   1   8
ATOM      5  C   UNL     1       4.080   5.390  18.802  0.00  0.00    +0.000 A 
ATOM      6  C   UNL     1       4.366   6.252  17.738  0.00  0.00    +0.000 A 
ATOM      7  C   UNL     1       3.616   7.423  17.562  0.00  0.00    +0.000 A 
ATOM      8  C   UNL     1       2.566   7.764  18.435  0.00  0.00    +0.000 A 
ATOM      9  C   UNL     1       2.367   6.928  19.539  0.00  0.00    +0.000 A 
ATOM     10  C   UNL     1       3.089   5.742  19.711  0.00  0.00    +0.000 A 
BRANCH   5  11
ATOM     11  C   UNL     1       4.865   4.161  19.060  0.00  0.00    +0.000 C 
ATOM     12  O   UNL     1       6.086   4.129  19.069  0.00  0.00    +0.000 OA
BRANCH  11  13
ATOM     13  O   UNL     1       4.024   3.110  19.206  0.00  0.00    +0.000 OA
BRANCH  13  15
ATOM     14  C   UNL     1       2.168   2.280  17.973  0.00  0.00    +0.000 C 
ATOM     15  C   UNL     1       3.677   2.438  17.988  0.00  0.00    +0.000 C 
ENDBRANCH  13  15
ENDBRANCH  11  13
ENDBRANCH   5  11
ENDBRANCH   1   8
BRANCH   2  16
ATOM     16  S   UNL     1       0.861   9.649  20.602  0.00  0.00    +0.000 S 
ATOM     17  H   UNL     1       1.594   8.543  20.772  0.00  0.00    +0.000 HD
ENDBRANCH   2  16
BRANCH   3  18
ATOM     18  C   UNL     1      -1.187  10.853  18.883  0.00  0.00    +0.000 C 
BRANCH  18  19
ATOM     19  C   UNL     1      -2.417  11.160  18.069  0.00  0.00    +0.000 A 
ATOM     20  C   UNL     1      -3.580  11.612  18.706  0.00  0.00    +0.000 A 
ATOM     21  C   UNL     1      -4.750  11.789  17.977  0.00  0.00    +0.000 A 
ATOM     22  C   UNL     1      -4.726  11.496  16.625  0.00  0.00    +0.000 A 
ATOM     23  N   UNL     1      -3.630  11.049  15.973  0.00  0.00    +0.000 NA
ATOM     24  C   UNL     1      -2.503  10.887  16.710  0.00  0.00    +0.000 A 
ENDBRANCH  18  19
ENDBRANCH   3  18
TORSDOF 7
ENDMDL
