MODEL 1
REMARK VINA RESULT:      -7.9      0.000      0.000
REMARK  Name = 
REMARK  13 active torsions:
REMARK  status: ('A' for Active; 'I' for Inactive)
REMARK    1  A    between atoms: C_1  and  C_2
REMARK    2  A    between atoms: C_2  and  C_3
REMARK    3  A    between atoms: C_3  and  C_4
REMARK    4  A    between atoms: N_6  and  C_7
REMARK    5  A    between atoms: C_12  and  C_13
REMARK    6  A    between atoms: C_15  and  N_16
REMARK    7  A    between atoms: N_16  and  C_17
REMARK    8  A    between atoms: C_17  and  C_18
REMARK    9  A    between atoms: C_18  and  C_19
REMARK   10  A    between atoms: N_21  and  O_22
REMARK   11  A    between atoms: C_25  and  O_26
REMARK   12  A    between atoms: O_26  and  C_27
REMARK   13  A    between atoms: C_27  and  C_28
REMARK                            x       y       z     vdW  Elec       q    Type
REMARK                         _______ _______ _______ _____ _____    ______ ____
ROOT
ATOM      1  C   UNL     1       2.554   6.886  19.355  0.00  0.00    +0.000 A 
ATOM      2  C   UNL     1       3.406   7.179  18.265  0.00  0.00    +0.000 A 
ATOM      3  C   UNL     1       3.998   6.179  17.489  0.00  0.00    +0.000 A 
ATOM      4  C   UNL     1       3.826   4.863  17.906  0.00  0.00    +0.000 A 
ATOM      5  C   UNL     1       2.993   4.553  18.992  0.00  0.00    +0.000 A 
ATOM      6  C   UNL     1       2.306   5.548  19.701  0.00  0.00    +0.000 A 
ENDROOT
BRANCH   1  15
ATOM      7  C   UNL     1      -0.624  10.619  19.401  0.00  0.00    +0.000 A 
ATOM      8  N   UNL     1      -1.247  11.223  20.431  0.00  0.00    +0.000 NA
ATOM      9  N   UNL     1      -0.664  10.684  21.533  0.00  0.00    +0.000 N 
ATOM     10  C   UNL     1      -1.204  10.964  22.841  0.00  0.00    +0.000 C 
ATOM     11  C   UNL     1       0.360   9.841  21.230  0.00  0.00    +0.000 A 
ATOM     12  C   UNL     1       1.290   9.140  22.036  0.00  0.00    +0.000 A 
ATOM     13  O   UNL     1       1.317   9.133  23.262  0.00  0.00    +0.000 OA
ATOM     14  N   UNL     1       2.147   8.370  21.272  0.00  0.00    +0.000 N 
ATOM     15  C   UNL     1       1.883   8.072  19.948  0.00  0.00    +0.000 A 
ATOM     16  N   UNL     1       1.059   8.748  19.191  0.00  0.00    +0.000 NA
ATOM     17  C   UNL     1       0.323   9.706  19.878  0.00  0.00    +0.000 A 
ATOM     18  H   UNL     1       2.823   7.820  21.785  0.00  0.00    +0.000 HD
BRANCH   7  19
ATOM     19  C   UNL     1      -0.952  10.966  17.989  0.00  0.00    +0.000 C 
BRANCH  19  21
ATOM     20  C   UNL     1      -3.109   9.876  17.194  0.00  0.00    +0.000 C 
ATOM     21  C   UNL     1      -2.441  11.147  17.696  0.00  0.00    +0.000 C 
ENDBRANCH  19  21
ENDBRANCH   7  19
ENDBRANCH   1  15
BRANCH   3  22
ATOM     22  N   UNL     1       4.777   6.547  16.388  0.00  0.00    +0.000 N 
ATOM     23  H   UNL     1       4.272   6.467  15.505  0.00  0.00    +0.000 HD
BRANCH  22  24
ATOM     24  C   UNL     1       6.166   6.089  16.283  0.00  0.00    +0.000 C 
BRANCH  24  25
ATOM     25  C   UNL     1       7.045   6.705  17.368  0.00  0.00    +0.000 C 
BRANCH  25  26
ATOM     26  C   UNL     1       7.569   5.650  18.309  0.00  0.00    +0.000 C 
ATOM     27  O   UNL     1       7.466   4.440  18.128  0.00  0.00    +0.000 OA
ATOM     28  N   UNL     1       8.195   6.171  19.418  0.00  0.00    +0.000 N 
ATOM     29  H   UNL     1       8.105   7.133  19.726  0.00  0.00    +0.000 HD
BRANCH  28  30
ATOM     30  O   UNL     1       8.637   5.234  20.379  0.00  0.00    +0.000 OA
ATOM     31  H   UNL     1       8.176   5.532  21.194  0.00  0.00    +0.000 HD
ENDBRANCH  28  30
ENDBRANCH  25  26
ENDBRANCH  24  25
ENDBRANCH  22  24
ENDBRANCH   3  22
BRANCH   6  32
ATOM     32  O   UNL     1       1.495   5.035  20.681  0.00  0.00    +0.000 OA
BRANCH  32  33
ATOM     33  C   UNL     1       2.027   4.064  21.584  0.00  0.00    +0.000 C 
ATOM     34  C   UNL     1       1.291   2.744  21.464  0.00  0.00    +0.000 C 
ENDBRANCH  32  33
ENDBRANCH   6  32
TORSDOF 10
ENDMDL
MODEL 2
REMARK VINA RESULT:      -7.9      1.756      2.151
REMARK  Name = 
REMARK  13 active torsions:
REMARK  status: ('A' for Active; 'I' for Inactive)
REMARK    1  A    between atoms: C_1  and  C_2
REMARK    2  A    between atoms: C_2  and  C_3
REMARK    3  A    between atoms: C_3  and  C_4
REMARK    4  A    between atoms: N_6  and  C_7
REMARK    5  A    between atoms: C_12  and  C_13
REMARK    6  A    between atoms: C_15  and  N_16
REMARK    7  A    between atoms: N_16  and  C_17
REMARK    8  A    between atoms: C_17  and  C_18
REMARK    9  A    between atoms: C_18  and  C_19
REMARK   10  A    between atoms: N_21  and  O_22
REMARK   11  A    between atoms: C_25  and  O_26
REMARK   12  A    between atoms: O_26  and  C_27
REMARK   13  A    between atoms: C_27  and  C_28
REMARK                            x       y       z     vdW  Elec       q    Type
REMARK                         _______ _______ _______ _____ _____    ______ ____
ROOT
ATOM      1  C   UNL     1       2.676   6.422  18.853  0.00  0.00    +0.000 A 
ATOM      2  C   UNL     1       3.751   6.644  17.961  0.00  0.00    +0.000 A 
ATOM      3  C   UNL     1       4.276   5.632  17.155  0.00  0.00    +0.000 A 
ATOM      4  C   UNL     1       3.788   4.343  17.352  0.00  0.00    +0.000 A 
ATOM      5  C   UNL     1       2.730   4.101  18.240  0.00  0.00    +0.000 A 
ATOM      6  C   UNL     1       2.124   5.137  18.965  0.00  0.00    +0.000 A 
ENDROOT
BRANCH   1  15
ATOM      7  C   UNL     1       1.463  11.170  19.006  0.00  0.00    +0.000 A 
ATOM      8  N   UNL     1       0.513  11.806  19.718  0.00  0.00    +0.000 NA
ATOM      9  N   UNL     1       0.038  10.854  20.562  0.00  0.00    +0.000 N 
ATOM     10  C   UNL     1      -1.129  11.124  21.366  0.00  0.00    +0.000 C 
ATOM     11  C   UNL     1       0.719   9.680  20.471  0.00  0.00    +0.000 A 
ATOM     12  C   UNL     1       0.638   8.470  21.202  0.00  0.00    +0.000 A 
ATOM     13  O   UNL     1      -0.159   8.225  22.101  0.00  0.00    +0.000 OA
ATOM     14  N   UNL     1       1.529   7.526  20.725  0.00  0.00    +0.000 N 
ATOM     15  C   UNL     1       2.143   7.652  19.493  0.00  0.00    +0.000 A 
ATOM     16  N   UNL     1       2.258   8.779  18.840  0.00  0.00    +0.000 NA
ATOM     17  C   UNL     1       1.554   9.833  19.409  0.00  0.00    +0.000 A 
ATOM     18  H   UNL     1       1.507   6.625  21.185  0.00  0.00    +0.000 HD
BRANCH   7  19
ATOM     19  C   UNL     1       2.269  11.887  17.978  0.00  0.00    +0.000 C 
BRANCH  19  21
ATOM     20  C   UNL     1       3.502  14.091  18.286  0.00  0.00    +0.000 C 
ATOM     21  C   UNL     1       2.167  13.412  18.024  0.00  0.00    +0.000 C 
ENDBRANCH  19  21
ENDBRANCH   7  19
ENDBRANCH   1  15
BRANCH   3  22
ATOM     22  N   UNL     1       5.296   5.943  16.252  0.00  0.00    +0.000 N 
ATOM     23  H   UNL     1       5.020   5.798  15.281  0.00  0.00    +0.000 HD
BRANCH  22  24
ATOM     24  C   UNL     1       6.672   5.506  16.514  0.00  0.00    +0.000 C 
BRANCH  24  25
ATOM     25  C   UNL     1       7.300   6.286  17.667  0.00  0.00    +0.000 C 
BRANCH  25  26
ATOM     26  C   UNL     1       7.319   5.467  18.932  0.00  0.00    +0.000 C 
ATOM     27  O   UNL     1       6.535   4.557  19.187  0.00  0.00    +0.000 OA
ATOM     28  N   UNL     1       8.321   5.830  19.802  0.00  0.00    +0.000 N 
ATOM     29  H   UNL     1       8.835   6.703  19.748  0.00  0.00    +0.000 HD
BRANCH  28  30
ATOM     30  O   UNL     1       8.343   5.153  21.042  0.00  0.00    +0.000 OA
ATOM     31  H   UNL     1       9.182   4.644  20.990  0.00  0.00    +0.000 HD
ENDBRANCH  28  30
ENDBRANCH  25  26
ENDBRANCH  24  25
ENDBRANCH  22  24
ENDBRANCH   3  22
BRANCH   6  32
ATOM     32  O   UNL     1       1.068   4.702  19.724  0.00  0.00    +0.000 OA
BRANCH  32  33
ATOM     33  C   UNL     1       0.925   3.305  19.982  0.00  0.00    +0.000 C 
ATOM     34  C   UNL     1       1.378   2.958  21.387  0.00  0.00    +0.000 C 
ENDBRANCH  32  33
ENDBRANCH   6  32
TORSDOF 10
ENDMDL
MODEL 3
REMARK VINA RESULT:      -7.9      4.018      6.898
REMARK  Name = 
REMARK  13 active torsions:
REMARK  status: ('A' for Active; 'I' for Inactive)
REMARK    1  A    between atoms: C_1  and  C_2
REMARK    2  A    between atoms: C_2  and  C_3
REMARK    3  A    between atoms: C_3  and  C_4
REMARK    4  A    between atoms: N_6  and  C_7
REMARK    5  A    between atoms: C_12  and  C_13
REMARK    6  A    between atoms: C_15  and  N_16
REMARK    7  A    between atoms: N_16  and  C_17
REMARK    8  A    between atoms: C_17  and  C_18
REMARK    9  A    between atoms: C_18  and  C_19
REMARK   10  A    between atoms: N_21  and  O_22
REMARK   11  A    between atoms: C_25  and  O_26
REMARK   12  A    between atoms: O_26  and  C_27
REMARK   13  A    between atoms: C_27  and  C_28
REMARK                            x       y       z     vdW  Elec       q    Type
REMARK                         _______ _______ _______ _____ _____    ______ ____
ROOT
ATOM      1  C   UNL     1       5.956   4.942  16.700  0.00  0.00    +0.000 A 
ATOM      2  C   UNL     1       5.593   4.118  15.609  0.00  0.00    +0.000 A 
ATOM      3  C   UNL     1       6.337   4.069  14.428  0.00  0.00    +0.000 A 
ATOM      4  C   UNL     1       7.391   4.968  14.302  0.00  0.00    +0.000 A 
ATOM      5  C   UNL     1       7.760   5.802  15.368  0.00  0.00    +0.000 A 
ATOM      6  C   UNL     1       7.085   5.769  16.597  0.00  0.00    +0.000 A 
ENDROOT
BRANCH   1  15
ATOM      7  C   UNL     1       2.388   5.987  19.898  0.00  0.00    +0.000 A 
ATOM      8  N   UNL     1       1.683   5.180  20.714  0.00  0.00    +0.000 NA
ATOM      9  N   UNL     1       2.300   3.975  20.601  0.00  0.00    +0.000 N 
ATOM     10  C   UNL     1       1.707   2.806  21.205  0.00  0.00    +0.000 C 
ATOM     11  C   UNL     1       3.416   4.023  19.825  0.00  0.00    +0.000 A 
ATOM     12  C   UNL     1       4.400   3.056  19.508  0.00  0.00    +0.000 A 
ATOM     13  O   UNL     1       4.404   1.886  19.877  0.00  0.00    +0.000 OA
ATOM     14  N   UNL     1       5.351   3.562  18.641  0.00  0.00    +0.000 N 
ATOM     15  C   UNL     1       5.148   4.729  17.928  0.00  0.00    +0.000 A 
ATOM     16  N   UNL     1       4.269   5.643  18.248  0.00  0.00    +0.000 NA
ATOM     17  C   UNL     1       3.420   5.269  19.282  0.00  0.00    +0.000 A 
ATOM     18  H   UNL     1       6.074   2.916  18.351  0.00  0.00    +0.000 HD
BRANCH   7  19
ATOM     19  C   UNL     1       2.053   7.433  19.761  0.00  0.00    +0.000 C 
BRANCH  19  21
ATOM     20  C   UNL     1       1.468   9.307  18.142  0.00  0.00    +0.000 C 
ATOM     21  C   UNL     1       2.228   8.007  18.354  0.00  0.00    +0.000 C 
ENDBRANCH  19  21
ENDBRANCH   7  19
ENDBRANCH   1  15
BRANCH   3  22
ATOM     22  N   UNL     1       5.952   3.182  13.419  0.00  0.00    +0.000 N 
ATOM     23  H   UNL     1       6.030   2.205  13.703  0.00  0.00    +0.000 HD
BRANCH  22  24
ATOM     24  C   UNL     1       6.393   3.401  12.038  0.00  0.00    +0.000 C 
BRANCH  24  25
ATOM     25  C   UNL     1       7.073   2.161  11.461  0.00  0.00    +0.000 C 
BRANCH  25  26
ATOM     26  C   UNL     1       6.084   1.041  11.261  0.00  0.00    +0.000 C 
ATOM     27  O   UNL     1       4.898   1.198  10.985  0.00  0.00    +0.000 OA
ATOM     28  N   UNL     1       6.638  -0.209  11.412  0.00  0.00    +0.000 N 
ATOM     29  H   UNL     1       7.531  -0.387  11.858  0.00  0.00    +0.000 HD
BRANCH  28  30
ATOM     30  O   UNL     1       5.745  -1.300  11.316  0.00  0.00    +0.000 OA
ATOM     31  H   UNL     1       5.569  -1.346  10.350  0.00  0.00    +0.000 HD
ENDBRANCH  28  30
ENDBRANCH  25  26
ENDBRANCH  24  25
ENDBRANCH  22  24
ENDBRANCH   3  22
BRANCH   6  32
ATOM     32  O   UNL     1       7.639   6.611  17.527  0.00  0.00    +0.000 OA
BRANCH  32  33
ATOM     33  C   UNL     1       7.427   8.018  17.406  0.00  0.00    +0.000 C 
ATOM     34  C   UNL     1       8.374   8.794  18.299  0.00  0.00    +0.000 C 
ENDBRANCH  32  33
ENDBRANCH   6  32
TORSDOF 10
ENDMDL
MODEL 4
REMARK VINA RESULT:      -7.7      3.631      6.218
REMARK  Name = 
REMARK  13 active torsions:
REMARK  status: ('A' for Active; 'I' for Inactive)
REMARK    1  A    between atoms: C_1  and  C_2
REMARK    2  A    between atoms: C_2  and  C_3
REMARK    3  A    between atoms: C_3  and  C_4
REMARK    4  A    between atoms: N_6  and  C_7
REMARK    5  A    between atoms: C_12  and  C_13
REMARK    6  A    between atoms: C_15  and  N_16
REMARK    7  A    between atoms: N_16  and  C_17
REMARK    8  A    between atoms: C_17  and  C_18
REMARK    9  A    between atoms: C_18  and  C_19
REMARK   10  A    between atoms: N_21  and  O_22
REMARK   11  A    between atoms: C_25  and  O_26
REMARK   12  A    between atoms: O_26  and  C_27
REMARK   13  A    between atoms: C_27  and  C_28
REMARK                            x       y       z     vdW  Elec       q    Type
REMARK                         _______ _______ _______ _____ _____    ______ ____
ROOT
ATOM      1  C   UNL     1       5.105   5.829  16.827  0.00  0.00    +0.000 A 
ATOM      2  C   UNL     1       4.777   5.225  15.590  0.00  0.00    +0.000 A 
ATOM      3  C   UNL     1       5.709   4.507  14.838  0.00  0.00    +0.000 A 
ATOM      4  C   UNL     1       7.028   4.513  15.284  0.00  0.00    +0.000 A 
ATOM      5  C   UNL     1       7.374   5.116  16.502  0.00  0.00    +0.000 A 
ATOM      6  C   UNL     1       6.417   5.738  17.316  0.00  0.00    +0.000 A 
ENDROOT
BRANCH   1  15
ATOM      7  C   UNL     1       2.001   6.200  20.605  0.00  0.00    +0.000 A 
ATOM      8  N   UNL     1       1.303   7.258  21.061  0.00  0.00    +0.000 NA
ATOM      9  N   UNL     1       1.502   8.216  20.120  0.00  0.00    +0.000 N 
ATOM     10  C   UNL     1       1.045   9.564  20.360  0.00  0.00    +0.000 C 
ATOM     11  C   UNL     1       2.214   7.768  19.051  0.00  0.00    +0.000 A 
ATOM     12  C   UNL     1       2.574   8.373  17.822  0.00  0.00    +0.000 A 
ATOM     13  O   UNL     1       2.321   9.525  17.486  0.00  0.00    +0.000 OA
ATOM     14  N   UNL     1       3.339   7.525  17.042  0.00  0.00    +0.000 N 
ATOM     15  C   UNL     1       3.944   6.396  17.561  0.00  0.00    +0.000 A 
ATOM     16  N   UNL     1       3.581   5.812  18.673  0.00  0.00    +0.000 NA
ATOM     17  C   UNL     1       2.632   6.522  19.398  0.00  0.00    +0.000 A 
ATOM     18  H   UNL     1       3.655   7.902  16.158  0.00  0.00    +0.000 HD
BRANCH   7  19
ATOM     19  C   UNL     1       2.013   4.905  21.343  0.00  0.00    +0.000 C 
BRANCH  19  21
ATOM     20  C   UNL     1       1.442   2.426  21.326  0.00  0.00    +0.000 C 
ATOM     21  C   UNL     1       1.188   3.789  20.701  0.00  0.00    +0.000 C 
ENDBRANCH  19  21
ENDBRANCH   7  19
ENDBRANCH   1  15
BRANCH   3  22
ATOM     22  N   UNL     1       5.294   3.884  13.658  0.00  0.00    +0.000 N 
ATOM     23  H   UNL     1       4.667   3.098  13.827  0.00  0.00    +0.000 HD
BRANCH  22  24
ATOM     24  C   UNL     1       6.262   3.610  12.590  0.00  0.00    +0.000 C 
BRANCH  24  25
ATOM     25  C   UNL     1       5.666   2.715  11.506  0.00  0.00    +0.000 C 
BRANCH  25  26
ATOM     26  C   UNL     1       6.517   1.492  11.281  0.00  0.00    +0.000 C 
ATOM     27  O   UNL     1       7.693   1.515  10.928  0.00  0.00    +0.000 OA
ATOM     28  N   UNL     1       5.850   0.312  11.514  0.00  0.00    +0.000 N 
ATOM     29  H   UNL     1       4.841   0.229  11.577  0.00  0.00    +0.000 HD
BRANCH  28  30
ATOM     30  O   UNL     1       6.570  -0.874  11.243  0.00  0.00    +0.000 OA
ATOM     31  H   UNL     1       6.507  -1.359  12.095  0.00  0.00    +0.000 HD
ENDBRANCH  28  30
ENDBRANCH  25  26
ENDBRANCH  24  25
ENDBRANCH  22  24
ENDBRANCH   3  22
BRANCH   6  32
ATOM     32  O   UNL     1       6.946   6.206  18.492  0.00  0.00    +0.000 OA
BRANCH  32  33
ATOM     33  C   UNL     1       8.070   7.085  18.446  0.00  0.00    +0.000 C 
ATOM     34  C   UNL     1       7.747   8.347  17.671  0.00  0.00    +0.000 C 
ENDBRANCH  32  33
ENDBRANCH   6  32
TORSDOF 10
ENDMDL
MODEL 5
REMARK VINA RESULT:      -7.6      1.969      2.345
REMARK  Name = 
REMARK  13 active torsions:
REMARK  status: ('A' for Active; 'I' for Inactive)
REMARK    1  A    between atoms: C_1  and  C_2
REMARK    2  A    between atoms: C_2  and  C_3
REMARK    3  A    between atoms: C_3  and  C_4
REMARK    4  A    between atoms: N_6  and  C_7
REMARK    5  A    between atoms: C_12  and  C_13
REMARK    6  A    between atoms: C_15  and  N_16
REMARK    7  A    between atoms: N_16  and  C_17
REMARK    8  A    between atoms: C_17  and  C_18
REMARK    9  A    between atoms: C_18  and  C_19
REMARK   10  A    between atoms: N_21  and  O_22
REMARK   11  A    between atoms: C_25  and  O_26
REMARK   12  A    between atoms: O_26  and  C_27
REMARK   13  A    between atoms: C_27  and  C_28
REMARK                            x       y       z     vdW  Elec       q    Type
REMARK                         _______ _______ _______ _____ _____    ______ ____
ROOT
ATOM      1  C   UNL     1       2.695   6.417  18.922  0.00  0.00    +0.000 A 
ATOM      2  C   UNL     1       3.691   6.633  17.941  0.00  0.00    +0.000 A 
ATOM      3  C   UNL     1       4.210   5.596  17.161  0.00  0.00    +0.000 A 
ATOM      4  C   UNL     1       3.806   4.301  17.473  0.00  0.00    +0.000 A 
ATOM      5  C   UNL     1       2.828   4.066  18.451  0.00  0.00    +0.000 A 
ATOM      6  C   UNL     1       2.222   5.117  19.154  0.00  0.00    +0.000 A 
ENDROOT
BRANCH   1  15
ATOM      7  C   UNL     1       1.471  11.165  18.947  0.00  0.00    +0.000 A 
ATOM      8  N   UNL     1       0.502  11.813  19.622  0.00  0.00    +0.000 NA
ATOM      9  N   UNL     1       0.009  10.878  20.474  0.00  0.00    +0.000 N 
ATOM     10  C   UNL     1      -1.178  11.162  21.244  0.00  0.00    +0.000 C 
ATOM     11  C   UNL     1       0.694   9.704  20.424  0.00  0.00    +0.000 A 
ATOM     12  C   UNL     1       0.597   8.509  21.178  0.00  0.00    +0.000 A 
ATOM     13  O   UNL     1      -0.221   8.281  22.062  0.00  0.00    +0.000 OA
ATOM     14  N   UNL     1       1.501   7.557  20.742  0.00  0.00    +0.000 N 
ATOM     15  C   UNL     1       2.145   7.659  19.523  0.00  0.00    +0.000 A 
ATOM     16  N   UNL     1       2.274   8.773  18.850  0.00  0.00    +0.000 NA
ATOM     17  C   UNL     1       1.554   9.836  19.379  0.00  0.00    +0.000 A 
ATOM     18  H   UNL     1       1.470   6.666  21.220  0.00  0.00    +0.000 HD
BRANCH   7  19
ATOM     19  C   UNL     1       2.300  11.862  17.923  0.00  0.00    +0.000 C 
BRANCH  19  21
ATOM     20  C   UNL     1       3.458  14.059  18.477  0.00  0.00    +0.000 C 
ATOM     21  C   UNL     1       2.202  13.388  17.942  0.00  0.00    +0.000 C 
ENDBRANCH  19  21
ENDBRANCH   7  19
ENDBRANCH   1  15
BRANCH   3  22
ATOM     22  N   UNL     1       5.145   5.897  16.167  0.00  0.00    +0.000 N 
ATOM     23  H   UNL     1       4.747   5.861  15.229  0.00  0.00    +0.000 HD
BRANCH  22  24
ATOM     24  C   UNL     1       6.494   5.323  16.227  0.00  0.00    +0.000 C 
BRANCH  24  25
ATOM     25  C   UNL     1       7.143   5.552  17.590  0.00  0.00    +0.000 C 
BRANCH  25  26
ATOM     26  C   UNL     1       7.567   6.989  17.756  0.00  0.00    +0.000 C 
ATOM     27  O   UNL     1       7.244   7.904  17.004  0.00  0.00    +0.000 OA
ATOM     28  N   UNL     1       8.366   7.198  18.856  0.00  0.00    +0.000 N 
ATOM     29  H   UNL     1       8.843   6.460  19.364  0.00  0.00    +0.000 HD
BRANCH  28  30
ATOM     30  O   UNL     1       8.863   8.510  19.023  0.00  0.00    +0.000 OA
ATOM     31  H   UNL     1       8.657   8.696  19.966  0.00  0.00    +0.000 HD
ENDBRANCH  28  30
ENDBRANCH  25  26
ENDBRANCH  24  25
ENDBRANCH  22  24
ENDBRANCH   3  22
BRANCH   6  32
ATOM     32  O   UNL     1       1.247   4.682  20.015  0.00  0.00    +0.000 OA
BRANCH  32  33
ATOM     33  C   UNL     1       1.011   3.280  20.148  0.00  0.00    +0.000 C 
ATOM     34  C   UNL     1       1.374   2.793  21.537  0.00  0.00    +0.000 C 
ENDBRANCH  32  33
ENDBRANCH   6  32
TORSDOF 10
ENDMDL
MODEL 6
REMARK VINA RESULT:      -7.6      2.648      3.547
REMARK  Name = 
REMARK  13 active torsions:
REMARK  status: ('A' for Active; 'I' for Inactive)
REMARK    1  A    between atoms: C_1  and  C_2
REMARK    2  A    between atoms: C_2  and  C_3
REMARK    3  A    between atoms: C_3  and  C_4
REMARK    4  A    between atoms: N_6  and  C_7
REMARK    5  A    between atoms: C_12  and  C_13
REMARK    6  A    between atoms: C_15  and  N_16
REMARK    7  A    between atoms: N_16  and  C_17
REMARK    8  A    between atoms: C_17  and  C_18
REMARK    9  A    between atoms: C_18  and  C_19
REMARK   10  A    between atoms: N_21  and  O_22
REMARK   11  A    between atoms: C_25  and  O_26
REMARK   12  A    between atoms: O_26  and  C_27
REMARK   13  A    between atoms: C_27  and  C_28
REMARK                            x       y       z     vdW  Elec       q    Type
REMARK                         _______ _______ _______ _____ _____    ______ ____
ROOT
ATOM      1  C   UNL     1       3.227   5.622  19.347  0.00  0.00    +0.000 A 
ATOM      2  C   UNL     1       4.619   5.774  19.149  0.00  0.00    +0.000 A 
ATOM      3  C   UNL     1       5.485   4.682  19.053  0.00  0.00    +0.000 A 
ATOM      4  C   UNL     1       4.948   3.421  19.293  0.00  0.00    +0.000 A 
ATOM      5  C   UNL     1       3.571   3.251  19.502  0.00  0.00    +0.000 A 
ATOM      6  C   UNL     1       2.683   4.336  19.484  0.00  0.00    +0.000 A 
ENDROOT
BRANCH   1  15
ATOM      7  C   UNL     1       0.455   9.272  21.091  0.00  0.00    +0.000 A 
ATOM      8  N   UNL     1       0.341  10.551  20.686  0.00  0.00    +0.000 NA
ATOM      9  N   UNL     1       1.052  10.598  19.531  0.00  0.00    +0.000 N 
ATOM     10  C   UNL     1       1.306  11.868  18.894  0.00  0.00    +0.000 C 
ATOM     11  C   UNL     1       1.523   9.380  19.150  0.00  0.00    +0.000 A 
ATOM     12  C   UNL     1       2.220   8.943  17.998  0.00  0.00    +0.000 A 
ATOM     13  O   UNL     1       2.594   9.655  17.071  0.00  0.00    +0.000 OA
ATOM     14  N   UNL     1       2.520   7.595  18.064  0.00  0.00    +0.000 N 
ATOM     15  C   UNL     1       2.450   6.884  19.247  0.00  0.00    +0.000 A 
ATOM     16  N   UNL     1       1.768   7.267  20.296  0.00  0.00    +0.000 NA
ATOM     17  C   UNL     1       1.245   8.549  20.190  0.00  0.00    +0.000 A 
ATOM     18  H   UNL     1       3.042   7.219  17.283  0.00  0.00    +0.000 HD
BRANCH   7  19
ATOM     19  C   UNL     1      -0.227   8.787  22.324  0.00  0.00    +0.000 C 
BRANCH  19  21
ATOM     20  C   UNL     1      -1.362  10.903  23.164  0.00  0.00    +0.000 C 
ATOM     21  C   UNL     1      -0.337   9.816  23.449  0.00  0.00    +0.000 C 
ENDBRANCH  19  21
ENDBRANCH   7  19
ENDBRANCH   1  15
BRANCH   3  22
ATOM     22  N   UNL     1       6.839   4.910  18.792  0.00  0.00    +0.000 N 
ATOM     23  H   UNL     1       7.183   5.768  19.222  0.00  0.00    +0.000 HD
BRANCH  22  24
ATOM     24  C   UNL     1       7.373   4.705  17.442  0.00  0.00    +0.000 C 
BRANCH  24  25
ATOM     25  C   UNL     1       6.305   4.173  16.489  0.00  0.00    +0.000 C 
BRANCH  25  26
ATOM     26  C   UNL     1       6.631   4.519  15.058  0.00  0.00    +0.000 C 
ATOM     27  O   UNL     1       6.034   4.079  14.080  0.00  0.00    +0.000 OA
ATOM     28  N   UNL     1       7.681   5.399  14.936  0.00  0.00    +0.000 N 
ATOM     29  H   UNL     1       8.342   5.607  15.677  0.00  0.00    +0.000 HD
BRANCH  28  30
ATOM     30  O   UNL     1       8.087   5.702  13.617  0.00  0.00    +0.000 OA
ATOM     31  H   UNL     1       9.059   5.811  13.714  0.00  0.00    +0.000 HD
ENDBRANCH  28  30
ENDBRANCH  25  26
ENDBRANCH  24  25
ENDBRANCH  22  24
ENDBRANCH   3  22
BRANCH   6  32
ATOM     32  O   UNL     1       1.376   3.952  19.642  0.00  0.00    +0.000 OA
BRANCH  32  33
ATOM     33  C   UNL     1       1.092   2.680  20.226  0.00  0.00    +0.000 C 
ATOM     34  C   UNL     1       1.324   2.701  21.724  0.00  0.00    +0.000 C 
ENDBRANCH  32  33
ENDBRANCH   6  32
TORSDOF 10
ENDMDL
MODEL 7
REMARK VINA RESULT:      -7.5      3.918      6.712
REMARK  Name = 
REMARK  13 active torsions:
REMARK  status: ('A' for Active; 'I' for Inactive)
REMARK    1  A    between atoms: C_1  and  C_2
REMARK    2  A    between atoms: C_2  and  C_3
REMARK    3  A    between atoms: C_3  and  C_4
REMARK    4  A    between atoms: N_6  and  C_7
REMARK    5  A    between atoms: C_12  and  C_13
REMARK    6  A    between atoms: C_15  and  N_16
REMARK    7  A    between atoms: N_16  and  C_17
REMARK    8  A    between atoms: C_17  and  C_18
REMARK    9  A    between atoms: C_18  and  C_19
REMARK   10  A    between atoms: N_21  and  O_22
REMARK   11  A    between atoms: C_25  and  O_26
REMARK   12  A    between atoms: O_26  and  C_27
REMARK   13  A    between atoms: C_27  and  C_28
REMARK                            x       y       z     vdW  Elec       q    Type
REMARK                         _______ _______ _______ _____ _____    ______ ____
ROOT
ATOM      1  C   UNL     1       5.709   5.056  16.799  0.00  0.00    +0.000 A 
ATOM      2  C   UNL     1       5.576   4.133  15.736  0.00  0.00    +0.000 A 
ATOM      3  C   UNL     1       6.398   4.171  14.606  0.00  0.00    +0.000 A 
ATOM      4  C   UNL     1       7.281   5.241  14.496  0.00  0.00    +0.000 A 
ATOM      5  C   UNL     1       7.419   6.173  15.535  0.00  0.00    +0.000 A 
ATOM      6  C   UNL     1       6.676   6.070  16.721  0.00  0.00    +0.000 A 
ENDROOT
BRANCH   1  15
ATOM      7  C   UNL     1       2.143   5.931  20.049  0.00  0.00    +0.000 A 
ATOM      8  N   UNL     1       1.382   5.077  20.761  0.00  0.00    +0.000 NA
ATOM      9  N   UNL     1       1.937   3.861  20.523  0.00  0.00    +0.000 N 
ATOM     10  C   UNL     1       1.273   2.666  20.985  0.00  0.00    +0.000 C 
ATOM     11  C   UNL     1       3.068   3.934  19.771  0.00  0.00    +0.000 A 
ATOM     12  C   UNL     1       4.007   2.957  19.361  0.00  0.00    +0.000 A 
ATOM     13  O   UNL     1       3.943   1.755  19.597  0.00  0.00    +0.000 OA
ATOM     14  N   UNL     1       4.998   3.504  18.567  0.00  0.00    +0.000 N 
ATOM     15  C   UNL     1       4.869   4.752  17.986  0.00  0.00    +0.000 A 
ATOM     16  N   UNL     1       4.033   5.670  18.395  0.00  0.00    +0.000 NA
ATOM     17  C   UNL     1       3.147   5.231  19.370  0.00  0.00    +0.000 A 
ATOM     18  H   UNL     1       5.691   2.856  18.216  0.00  0.00    +0.000 HD
BRANCH   7  19
ATOM     19  C   UNL     1       1.885   7.399  20.070  0.00  0.00    +0.000 C 
BRANCH  19  21
ATOM     20  C   UNL     1       0.157   8.832  21.266  0.00  0.00    +0.000 C 
ATOM     21  C   UNL     1       1.386   7.948  21.406  0.00  0.00    +0.000 C 
ENDBRANCH  19  21
ENDBRANCH   7  19
ENDBRANCH   1  15
BRANCH   3  22
ATOM     22  N   UNL     1       6.249   3.186  13.626  0.00  0.00    +0.000 N 
ATOM     23  H   UNL     1       6.627   2.283  13.914  0.00  0.00    +0.000 HD
BRANCH  22  24
ATOM     24  C   UNL     1       6.543   3.493  12.222  0.00  0.00    +0.000 C 
BRANCH  24  25
ATOM     25  C   UNL     1       7.137   2.289  11.494  0.00  0.00    +0.000 C 
BRANCH  25  26
ATOM     26  C   UNL     1       6.108   1.204  11.310  0.00  0.00    +0.000 C 
ATOM     27  O   UNL     1       4.911   1.401  11.116  0.00  0.00    +0.000 OA
ATOM     28  N   UNL     1       6.636  -0.065  11.373  0.00  0.00    +0.000 N 
ATOM     29  H   UNL     1       7.550  -0.284  11.753  0.00  0.00    +0.000 HD
BRANCH  28  30
ATOM     30  O   UNL     1       5.710  -1.129  11.286  0.00  0.00    +0.000 OA
ATOM     31  H   UNL     1       4.873  -0.664  11.063  0.00  0.00    +0.000 HD
ENDBRANCH  28  30
ENDBRANCH  25  26
ENDBRANCH  24  25
ENDBRANCH  22  24
ENDBRANCH   3  22
BRANCH   6  32
ATOM     32  O   UNL     1       7.005   7.037  17.636  0.00  0.00    +0.000 OA
BRANCH  32  33
ATOM     33  C   UNL     1       8.118   6.822  18.505  0.00  0.00    +0.000 C 
ATOM     34  C   UNL     1       7.851   5.677  19.462  0.00  0.00    +0.000 C 
ENDBRANCH  32  33
ENDBRANCH   6  32
TORSDOF 10
ENDMDL
MODEL 8
REMARK VINA RESULT:      -7.5      2.322      3.390
REMARK  Name = 
REMARK  13 active torsions:
REMARK  status: ('A' for Active; 'I' for Inactive)
REMARK    1  A    between atoms: C_1  and  C_2
REMARK    2  A    between atoms: C_2  and  C_3
REMARK    3  A    between atoms: C_3  and  C_4
REMARK    4  A    between atoms: N_6  and  C_7
REMARK    5  A    between atoms: C_12  and  C_13
REMARK    6  A    between atoms: C_15  and  N_16
REMARK    7  A    between atoms: N_16  and  C_17
REMARK    8  A    between atoms: C_17  and  C_18
REMARK    9  A    between atoms: C_18  and  C_19
REMARK   10  A    between atoms: N_21  and  O_22
REMARK   11  A    between atoms: C_25  and  O_26
REMARK   12  A    between atoms: O_26  and  C_27
REMARK   13  A    between atoms: C_27  and  C_28
REMARK                            x       y       z     vdW  Elec       q    Type
REMARK                         _______ _______ _______ _____ _____    ______ ____
ROOT
ATOM      1  C   UNL     1       2.244   8.178  18.750  0.00  0.00    +0.000 A 
ATOM      2  C   UNL     1       3.114   7.775  17.710  0.00  0.00    +0.000 A 
ATOM      3  C   UNL     1       3.766   6.540  17.715  0.00  0.00    +0.000 A 
ATOM      4  C   UNL     1       3.634   5.756  18.858  0.00  0.00    +0.000 A 
ATOM      5  C   UNL     1       2.785   6.143  19.905  0.00  0.00    +0.000 A 
ATOM      6  C   UNL     1       2.040   7.329  19.849  0.00  0.00    +0.000 A 
ENDROOT
BRANCH   1  15
ATOM      7  C   UNL     1      -1.743  10.883  17.837  0.00  0.00    +0.000 A 
ATOM      8  N   UNL     1      -2.012  12.168  18.134  0.00  0.00    +0.000 NA
ATOM      9  N   UNL     1      -0.836  12.651  18.612  0.00  0.00    +0.000 N 
ATOM     10  C   UNL     1      -0.788  13.967  19.204  0.00  0.00    +0.000 C 
ATOM     11  C   UNL     1       0.177  11.748  18.534  0.00  0.00    +0.000 A 
ATOM     12  C   UNL     1       1.561  11.838  18.822  0.00  0.00    +0.000 A 
ATOM     13  O   UNL     1       2.139  12.821  19.271  0.00  0.00    +0.000 OA
ATOM     14  N   UNL     1       2.204  10.631  18.613  0.00  0.00    +0.000 N 
ATOM     15  C   UNL     1       1.511   9.442  18.484  0.00  0.00    +0.000 A 
ATOM     16  N   UNL     1       0.243   9.359  18.173  0.00  0.00    +0.000 NA
ATOM     17  C   UNL     1      -0.411  10.585  18.147  0.00  0.00    +0.000 A 
ATOM     18  H   UNL     1       3.193  10.615  18.824  0.00  0.00    +0.000 HD
BRANCH   7  19
ATOM     19  C   UNL     1      -2.778   9.993  17.239  0.00  0.00    +0.000 C 
BRANCH  19  21
ATOM     20  C   UNL     1      -3.110  10.102  14.719  0.00  0.00    +0.000 C 
ATOM     21  C   UNL     1      -3.565  10.605  16.080  0.00  0.00    +0.000 C 
ENDBRANCH  19  21
ENDBRANCH   7  19
ENDBRANCH   1  15
BRANCH   3  22
ATOM     22  N   UNL     1       4.559   6.186  16.621  0.00  0.00    +0.000 N 
ATOM     23  H   UNL     1       4.258   6.634  15.755  0.00  0.00    +0.000 HD
BRANCH  22  24
ATOM     24  C   UNL     1       4.956   4.788  16.420  0.00  0.00    +0.000 C 
BRANCH  24  25
ATOM     25  C   UNL     1       5.569   4.570  15.039  0.00  0.00    +0.000 C 
BRANCH  25  26
ATOM     26  C   UNL     1       6.911   5.247  14.926  0.00  0.00    +0.000 C 
ATOM     27  O   UNL     1       7.508   5.774  15.861  0.00  0.00    +0.000 OA
ATOM     28  N   UNL     1       7.430   5.221  13.653  0.00  0.00    +0.000 N 
ATOM     29  H   UNL     1       6.890   5.012  12.820  0.00  0.00    +0.000 HD
BRANCH  28  30
ATOM     30  O   UNL     1       8.650   5.909  13.465  0.00  0.00    +0.000 OA
ATOM     31  H   UNL     1       9.285   5.176  13.306  0.00  0.00    +0.000 HD
ENDBRANCH  28  30
ENDBRANCH  25  26
ENDBRANCH  24  25
ENDBRANCH  22  24
ENDBRANCH   3  22
BRANCH   6  32
ATOM     32  O   UNL     1       1.224   7.492  20.939  0.00  0.00    +0.000 OA
BRANCH  32  33
ATOM     33  C   UNL     1       1.369   8.661  21.747  0.00  0.00    +0.000 C 
ATOM     34  C   UNL     1       0.046   9.385  21.905  0.00  0.00    +0.000 C 
ENDBRANCH  32  33
ENDBRANCH   6  32
TORSDOF 10
ENDMDL
MODEL 9
REMARK VINA RESULT:      -7.4      1.889      2.360
REMARK  Name = 
REMARK  13 active torsions:
REMARK  status: ('A' for Active; 'I' for Inactive)
REMARK    1  A    between atoms: C_1  and  C_2
REMARK    2  A    between atoms: C_2  and  C_3
REMARK    3  A    between atoms: C_3  and  C_4
REMARK    4  A    between atoms: N_6  and  C_7
REMARK    5  A    between atoms: C_12  and  C_13
REMARK    6  A    between atoms: C_15  and  N_16
REMARK    7  A    between atoms: N_16  and  C_17
REMARK    8  A    between atoms: C_17  and  C_18
REMARK    9  A    between atoms: C_18  and  C_19
REMARK   10  A    between atoms: N_21  and  O_22
REMARK   11  A    between atoms: C_25  and  O_26
REMARK   12  A    between atoms: O_26  and  C_27
REMARK   13  A    between atoms: C_27  and  C_28
REMARK                            x       y       z     vdW  Elec       q    Type
REMARK                         _______ _______ _______ _____ _____    ______ ____
ROOT
ATOM      1  C   UNL     1       2.563   6.675  19.124  0.00  0.00    +0.000 A 
ATOM      2  C   UNL     1       3.469   6.916  18.065  0.00  0.00    +0.000 A 
ATOM      3  C   UNL     1       3.982   5.887  17.271  0.00  0.00    +0.000 A 
ATOM      4  C   UNL     1       3.672   4.582  17.642  0.00  0.00    +0.000 A 
ATOM      5  C   UNL     1       2.784   4.323  18.697  0.00  0.00    +0.000 A 
ATOM      6  C   UNL     1       2.178   5.359  19.421  0.00  0.00    +0.000 A 
ENDROOT
BRANCH   1  15
ATOM      7  C   UNL     1       1.236  11.395  19.185  0.00  0.00    +0.000 A 
ATOM      8  N   UNL     1       0.263  12.020  19.876  0.00  0.00    +0.000 NA
ATOM      9  N   UNL     1      -0.197  11.071  20.732  0.00  0.00    +0.000 N 
ATOM     10  C   UNL     1      -1.378  11.327  21.520  0.00  0.00    +0.000 C 
ATOM     11  C   UNL     1       0.513   9.912  20.668  0.00  0.00    +0.000 A 
ATOM     12  C   UNL     1       0.453   8.713  21.418  0.00  0.00    +0.000 A 
ATOM     13  O   UNL     1      -0.347   8.465  22.314  0.00  0.00    +0.000 OA
ATOM     14  N   UNL     1       1.371   7.783  20.966  0.00  0.00    +0.000 N 
ATOM     15  C   UNL     1       1.994   7.903  19.738  0.00  0.00    +0.000 A 
ATOM     16  N   UNL     1       2.089   9.021  19.067  0.00  0.00    +0.000 NA
ATOM     17  C   UNL     1       1.355  10.067  19.611  0.00  0.00    +0.000 A 
ATOM     18  H   UNL     1       1.367   6.890  21.441  0.00  0.00    +0.000 HD
BRANCH   7  19
ATOM     19  C   UNL     1       2.034  12.114  18.152  0.00  0.00    +0.000 C 
BRANCH  19  21
ATOM     20  C   UNL     1       3.408  14.250  18.292  0.00  0.00    +0.000 C 
ATOM     21  C   UNL     1       2.017  13.638  18.266  0.00  0.00    +0.000 C 
ENDBRANCH  19  21
ENDBRANCH   7  19
ENDBRANCH   1  15
BRANCH   3  22
ATOM     22  N   UNL     1       4.823   6.209  16.202  0.00  0.00    +0.000 N 
ATOM     23  H   UNL     1       4.692   7.166  15.874  0.00  0.00    +0.000 HD
BRANCH  22  24
ATOM     24  C   UNL     1       5.009   5.259  15.100  0.00  0.00    +0.000 C 
BRANCH  24  25
ATOM     25  C   UNL     1       6.488   4.990  14.834  0.00  0.00    +0.000 C 
BRANCH  25  26
ATOM     26  C   UNL     1       7.313   5.200  16.078  0.00  0.00    +0.000 C 
ATOM     27  O   UNL     1       7.704   6.292  16.481  0.00  0.00    +0.000 OA
ATOM     28  N   UNL     1       7.595   4.032  16.748  0.00  0.00    +0.000 N 
ATOM     29  H   UNL     1       7.500   3.106  16.346  0.00  0.00    +0.000 HD
BRANCH  28  30
ATOM     30  O   UNL     1       8.433   4.152  17.880  0.00  0.00    +0.000 OA
ATOM     31  H   UNL     1       9.320   4.273  17.475  0.00  0.00    +0.000 HD
ENDBRANCH  28  30
ENDBRANCH  25  26
ENDBRANCH  24  25
ENDBRANCH  22  24
ENDBRANCH   3  22
BRANCH   6  32
ATOM     32  O   UNL     1       1.295   4.898  20.364  0.00  0.00    +0.000 OA
BRANCH  32  33
ATOM     33  C   UNL     1       0.987   3.504  20.405  0.00  0.00    +0.000 C 
ATOM     34  C   UNL     1       1.592   2.846  21.630  0.00  0.00    +0.000 C 
ENDBRANCH  32  33
ENDBRANCH   6  32
TORSDOF 10
ENDMDL
