MODEL 1
REMARK VINA RESULT:      -5.4      0.000      0.000
REMARK  Name = 
REMARK  3 active torsions:
REMARK  status: ('A' for Active; 'I' for Inactive)
REMARK    1  A    between atoms: C_1  and  C_2
REMARK    2  A    between atoms: C_2  and  C_4
REMARK    3  A    between atoms: C_8  and  C_9
REMARK                            x       y       z     vdW  Elec       q    Type
REMARK                         _______ _______ _______ _____ _____    ______ ____
ROOT
ATOM      1  C   UNL     1       7.294   5.496  16.443  0.00  0.00    +0.000 A 
ATOM      2  C   UNL     1       7.374   4.634  17.515  0.00  0.00    +0.000 A 
ATOM      3  C   UNL     1       7.678   5.224  18.715  0.00  0.00    +0.000 A 
ATOM      4  N   UNL     1       7.886   6.546  18.859  0.00  0.00    +0.000 NA
ATOM      5  C   UNL     1       7.784   7.304  17.752  0.00  0.00    +0.000 A 
ATOM      6  C   UNL     1       8.011   8.777  17.881  0.00  0.00    +0.000 C 
ATOM      7  N   UNL     1       7.494   6.830  16.530  0.00  0.00    +0.000 NA
ENDROOT
BRANCH   1   9
ATOM      8  C   UNL     1       5.849   3.960  14.996  0.00  0.00    +0.000 C 
ATOM      9  C   UNL     1       6.968   4.964  15.092  0.00  0.00    +0.000 C 
ATOM     10  O   UNL     1       7.594   5.342  14.103  0.00  0.00    +0.000 OA
ENDBRANCH   1   9
TORSDOF 1
ENDMDL
MODEL 2
REMARK VINA RESULT:      -5.3      1.700      2.111
REMARK  Name = 
REMARK  3 active torsions:
REMARK  status: ('A' for Active; 'I' for Inactive)
REMARK    1  A    between atoms: C_1  and  C_2
REMARK    2  A    between atoms: C_2  and  C_4
REMARK    3  A    between atoms: C_8  and  C_9
REMARK                            x       y       z     vdW  Elec       q    Type
REMARK                         _______ _______ _______ _____ _____    ______ ____
ROOT
ATOM      1  C   UNL     1       6.560   4.663  16.071  0.00  0.00    +0.000 A 
ATOM      2  C   UNL     1       5.393   4.028  16.436  0.00  0.00    +0.000 A 
ATOM      3  C   UNL     1       5.141   4.004  17.783  0.00  0.00    +0.000 A 
ATOM      4  N   UNL     1       5.958   4.555  18.700  0.00  0.00    +0.000 NA
ATOM      5  C   UNL     1       7.072   5.153  18.243  0.00  0.00    +0.000 A 
ATOM      6  C   UNL     1       8.001   5.774  19.239  0.00  0.00    +0.000 C 
ATOM      7  N   UNL     1       7.417   5.232  16.948  0.00  0.00    +0.000 NA
ENDROOT
BRANCH   1   9
ATOM      8  C   UNL     1       6.160   3.893  13.664  0.00  0.00    +0.000 C 
ATOM      9  C   UNL     1       6.933   4.750  14.632  0.00  0.00    +0.000 C 
ATOM     10  O   UNL     1       7.836   5.500  14.265  0.00  0.00    +0.000 OA
ENDBRANCH   1   9
TORSDOF 1
ENDMDL
MODEL 3
REMARK VINA RESULT:      -5.2      1.286      1.613
REMARK  Name = 
REMARK  3 active torsions:
REMARK  status: ('A' for Active; 'I' for Inactive)
REMARK    1  A    between atoms: C_1  and  C_2
REMARK    2  A    between atoms: C_2  and  C_4
REMARK    3  A    between atoms: C_8  and  C_9
REMARK                            x       y       z     vdW  Elec       q    Type
REMARK                         _______ _______ _______ _____ _____    ______ ____
ROOT
ATOM      1  C   UNL     1       6.693   4.983  15.503  0.00  0.00    +0.000 A 
ATOM      2  C   UNL     1       5.827   4.138  16.163  0.00  0.00    +0.000 A 
ATOM      3  C   UNL     1       5.664   4.401  17.498  0.00  0.00    +0.000 A 
ATOM      4  N   UNL     1       6.291   5.405  18.139  0.00  0.00    +0.000 NA
ATOM      5  C   UNL     1       7.116   6.175  17.406  0.00  0.00    +0.000 A 
ATOM      6  C   UNL     1       7.828   7.298  18.090  0.00  0.00    +0.000 C 
ATOM      7  N   UNL     1       7.350   6.005  16.095  0.00  0.00    +0.000 NA
ENDROOT
BRANCH   1   9
ATOM      8  C   UNL     1       6.148   3.724  13.344  0.00  0.00    +0.000 C 
ATOM      9  C   UNL     1       6.944   4.791  14.048  0.00  0.00    +0.000 C 
ATOM     10  O   UNL     1       7.770   5.487  13.459  0.00  0.00    +0.000 OA
ENDBRANCH   1   9
TORSDOF 1
ENDMDL
MODEL 4
REMARK VINA RESULT:      -5.1      1.976      2.801
REMARK  Name = 
REMARK  3 active torsions:
REMARK  status: ('A' for Active; 'I' for Inactive)
REMARK    1  A    between atoms: C_1  and  C_2
REMARK    2  A    between atoms: C_2  and  C_4
REMARK    3  A    between atoms: C_8  and  C_9
REMARK                            x       y       z     vdW  Elec       q    Type
REMARK                         _______ _______ _______ _____ _____    ______ ____
ROOT
ATOM      1  C   UNL     1       6.670   4.968  16.916  0.00  0.00    +0.000 A 
ATOM      2  C   UNL     1       7.517   5.738  17.682  0.00  0.00    +0.000 A 
ATOM      3  C   UNL     1       7.249   5.736  19.026  0.00  0.00    +0.000 A 
ATOM      4  N   UNL     1       6.238   5.040  19.579  0.00  0.00    +0.000 NA
ATOM      5  C   UNL     1       5.468   4.317  18.746  0.00  0.00    +0.000 A 
ATOM      6  C   UNL     1       4.336   3.533  19.331  0.00  0.00    +0.000 C 
ATOM      7  N   UNL     1       5.641   4.250  17.416  0.00  0.00    +0.000 NA
ENDROOT
BRANCH   1   9
ATOM      8  C   UNL     1       5.935   4.013  14.659  0.00  0.00    +0.000 C 
ATOM      9  C   UNL     1       6.872   4.895  15.442  0.00  0.00    +0.000 C 
ATOM     10  O   UNL     1       7.770   5.539  14.901  0.00  0.00    +0.000 OA
ENDBRANCH   1   9
TORSDOF 1
ENDMDL
MODEL 5
REMARK VINA RESULT:      -5.0      2.390      3.296
REMARK  Name = 
REMARK  3 active torsions:
REMARK  status: ('A' for Active; 'I' for Inactive)
REMARK    1  A    between atoms: C_1  and  C_2
REMARK    2  A    between atoms: C_2  and  C_4
REMARK    3  A    between atoms: C_8  and  C_9
REMARK                            x       y       z     vdW  Elec       q    Type
REMARK                         _______ _______ _______ _____ _____    ______ ____
ROOT
ATOM      1  C   UNL     1       6.299   4.515  15.864  0.00  0.00    +0.000 A 
ATOM      2  C   UNL     1       7.097   4.771  16.958  0.00  0.00    +0.000 A 
ATOM      3  C   UNL     1       6.488   4.604  18.174  0.00  0.00    +0.000 A 
ATOM      4  N   UNL     1       5.206   4.217  18.315  0.00  0.00    +0.000 NA
ATOM      5  C   UNL     1       4.510   3.990  17.185  0.00  0.00    +0.000 A 
ATOM      6  C   UNL     1       3.082   3.560  17.310  0.00  0.00    +0.000 C 
ATOM      7  N   UNL     1       5.007   4.126  15.946  0.00  0.00    +0.000 NA
ENDROOT
BRANCH   1   9
ATOM      8  C   UNL     1       6.234   3.838  13.398  0.00  0.00    +0.000 C 
ATOM      9  C   UNL     1       6.859   4.663  14.493  0.00  0.00    +0.000 C 
ATOM     10  O   UNL     1       7.792   5.435  14.278  0.00  0.00    +0.000 OA
ENDBRANCH   1   9
TORSDOF 1
ENDMDL
MODEL 6
REMARK VINA RESULT:      -5.0      3.657      4.944
REMARK  Name = 
REMARK  3 active torsions:
REMARK  status: ('A' for Active; 'I' for Inactive)
REMARK    1  A    between atoms: C_1  and  C_2
REMARK    2  A    between atoms: C_2  and  C_4
REMARK    3  A    between atoms: C_8  and  C_9
REMARK                            x       y       z     vdW  Elec       q    Type
REMARK                         _______ _______ _______ _____ _____    ______ ____
ROOT
ATOM      1  C   UNL     1       5.850   5.170  18.744  0.00  0.00    +0.000 A 
ATOM      2  C   UNL     1       5.067   5.892  17.869  0.00  0.00    +0.000 A 
ATOM      3  C   UNL     1       3.879   5.301  17.528  0.00  0.00    +0.000 A 
ATOM      4  N   UNL     1       3.484   4.103  18.000  0.00  0.00    +0.000 NA
ATOM      5  C   UNL     1       4.318   3.478  18.850  0.00  0.00    +0.000 A 
ATOM      6  C   UNL     1       3.906   2.145  19.392  0.00  0.00    +0.000 C 
ATOM      7  N   UNL     1       5.504   3.965  19.249  0.00  0.00    +0.000 NA
ENDROOT
BRANCH   1   9
ATOM      8  C   UNL     1       7.811   6.751  18.301  0.00  0.00    +0.000 C 
ATOM      9  C   UNL     1       7.162   5.719  19.184  0.00  0.00    +0.000 C 
ATOM     10  O   UNL     1       7.680   5.336  20.233  0.00  0.00    +0.000 OA
ENDBRANCH   1   9
TORSDOF 1
ENDMDL
MODEL 7
REMARK VINA RESULT:      -5.0      2.651      3.260
REMARK  Name = 
REMARK  3 active torsions:
REMARK  status: ('A' for Active; 'I' for Inactive)
REMARK    1  A    between atoms: C_1  and  C_2
REMARK    2  A    between atoms: C_2  and  C_4
REMARK    3  A    between atoms: C_8  and  C_9
REMARK                            x       y       z     vdW  Elec       q    Type
REMARK                         _______ _______ _______ _____ _____    ______ ____
ROOT
ATOM      1  C   UNL     1       5.552   4.502  17.161  0.00  0.00    +0.000 A 
ATOM      2  C   UNL     1       5.924   4.011  15.929  0.00  0.00    +0.000 A 
ATOM      3  C   UNL     1       6.893   4.733  15.283  0.00  0.00    +0.000 A 
ATOM      4  N   UNL     1       7.455   5.844  15.795  0.00  0.00    +0.000 NA
ATOM      5  C   UNL     1       7.025   6.242  17.006  0.00  0.00    +0.000 A 
ATOM      6  C   UNL     1       7.631   7.474  17.601  0.00  0.00    +0.000 C 
ATOM      7  N   UNL     1       6.082   5.611  17.723  0.00  0.00    +0.000 NA
ENDROOT
BRANCH   1   9
ATOM      8  C   UNL     1       3.197   3.511  17.271  0.00  0.00    +0.000 C 
ATOM      9  C   UNL     1       4.509   3.794  17.953  0.00  0.00    +0.000 C 
ATOM     10  O   UNL     1       4.728   3.458  19.117  0.00  0.00    +0.000 OA
ENDBRANCH   1   9
TORSDOF 1
ENDMDL
MODEL 8
REMARK VINA RESULT:      -4.9      2.732      3.399
REMARK  Name = 
REMARK  3 active torsions:
REMARK  status: ('A' for Active; 'I' for Inactive)
REMARK    1  A    between atoms: C_1  and  C_2
REMARK    2  A    between atoms: C_2  and  C_4
REMARK    3  A    between atoms: C_8  and  C_9
REMARK                            x       y       z     vdW  Elec       q    Type
REMARK                         _______ _______ _______ _____ _____    ______ ____
ROOT
ATOM      1  C   UNL     1       5.818   4.918  17.962  0.00  0.00    +0.000 A 
ATOM      2  C   UNL     1       6.026   4.226  16.788  0.00  0.00    +0.000 A 
ATOM      3  C   UNL     1       6.855   4.844  15.889  0.00  0.00    +0.000 A 
ATOM      4  N   UNL     1       7.434   6.039  16.113  0.00  0.00    +0.000 NA
ATOM      5  C   UNL     1       7.169   6.634  17.290  0.00  0.00    +0.000 A 
ATOM      6  C   UNL     1       7.797   7.963  17.567  0.00  0.00    +0.000 C 
ATOM      7  N   UNL     1       6.372   6.119  18.239  0.00  0.00    +0.000 NA
ENDROOT
BRANCH   1   9
ATOM      8  C   UNL     1       3.750   5.158  19.450  0.00  0.00    +0.000 C 
ATOM      9  C   UNL     1       4.936   4.339  19.012  0.00  0.00    +0.000 C 
ATOM     10  O   UNL     1       5.178   3.231  19.491  0.00  0.00    +0.000 OA
ENDBRANCH   1   9
TORSDOF 1
ENDMDL
MODEL 9
REMARK VINA RESULT:      -4.9      2.072      3.907
REMARK  Name = 
REMARK  3 active torsions:
REMARK  status: ('A' for Active; 'I' for Inactive)
REMARK    1  A    between atoms: C_1  and  C_2
REMARK    2  A    between atoms: C_2  and  C_4
REMARK    3  A    between atoms: C_8  and  C_9
REMARK                            x       y       z     vdW  Elec       q    Type
REMARK                         _______ _______ _______ _____ _____    ______ ____
ROOT
ATOM      1  C   UNL     1       6.892   5.689  16.571  0.00  0.00    +0.000 A 
ATOM      2  C   UNL     1       5.935   4.792  16.994  0.00  0.00    +0.000 A 
ATOM      3  C   UNL     1       5.507   3.906  16.040  0.00  0.00    +0.000 A 
ATOM      4  N   UNL     1       5.974   3.893  14.777  0.00  0.00    +0.000 NA
ATOM      5  C   UNL     1       6.908   4.809  14.463  0.00  0.00    +0.000 A 
ATOM      6  C   UNL     1       7.445   4.820  13.066  0.00  0.00    +0.000 C 
ATOM      7  N   UNL     1       7.395   5.723  15.317  0.00  0.00    +0.000 NA
ENDROOT
BRANCH   1   9
ATOM      8  C   UNL     1       7.863   6.202  18.882  0.00  0.00    +0.000 C 
ATOM      9  C   UNL     1       7.431   6.697  17.526  0.00  0.00    +0.000 C 
ATOM     10  O   UNL     1       7.517   7.881  17.203  0.00  0.00    +0.000 OA
ENDBRANCH   1   9
TORSDOF 1
ENDMDL
