MODEL 1
REMARK VINA RESULT:      -6.9      0.000      0.000
REMARK  Name = 
REMARK  14 active torsions:
REMARK  status: ('A' for Active; 'I' for Inactive)
REMARK    1  A    between atoms: C_1  and  C_2
REMARK    2  A    between atoms: C_2  and  C_3
REMARK    3  A    between atoms: C_3  and  C_4
REMARK    4  A    between atoms: C_4  and  O_5
REMARK    5  A    between atoms: O_5  and  C_6
REMARK    6  A    between atoms: C_7  and  O_8
REMARK    7  A    between atoms: O_8  and  C_9
REMARK    8  A    between atoms: C_11  and  N_12
REMARK    9  A    between atoms: N_12  and  C_13
REMARK   10  A    between atoms: C_13  and  C_14
REMARK   11  A    between atoms: C_13  and  C_15
REMARK   12  A    between atoms: C_15  and  C_16
REMARK   13  A    between atoms: C_16  and  C_17
REMARK   14  A    between atoms: C_17  and  N_18
REMARK                            x       y       z     vdW  Elec       q    Type
REMARK                         _______ _______ _______ _____ _____    ______ ____
ROOT
ATOM      1  C   UNL     1       5.206   4.987  16.889  0.00  0.00    +0.000 A 
ATOM      2  C   UNL     1       5.272   6.389  16.958  0.00  0.00    +0.000 A 
ATOM      3  C   UNL     1       4.197   7.097  17.482  0.00  0.00    +0.000 A 
ATOM      4  C   UNL     1       3.009   6.477  17.868  0.00  0.00    +0.000 A 
ATOM      5  C   UNL     1       2.916   5.072  17.819  0.00  0.00    +0.000 A 
ATOM      6  N   UNL     1       1.785   4.474  18.263  0.00  0.00    +0.000 NA
ATOM      7  C   UNL     1       1.726   3.123  18.278  0.00  0.00    +0.000 A 
ATOM      8  C   UNL     1       2.748   2.308  17.847  0.00  0.00    +0.000 A 
ATOM      9  C   UNL     1       3.901   2.917  17.369  0.00  0.00    +0.000 A 
ATOM     10  C   UNL     1       4.029   4.325  17.347  0.00  0.00    +0.000 A 
ENDROOT
BRANCH   2  11
ATOM     11  O   UNL     1       6.401   7.080  16.600  0.00  0.00    +0.000 OA
ATOM     12  C   UNL     1       7.377   7.209  17.634  0.00  0.00    +0.000 C 
ENDBRANCH   2  11
BRANCH   4  13
ATOM     13  N   UNL     1       1.894   7.263  18.232  0.00  0.00    +0.000 N 
ATOM     14  H   UNL     1       1.057   6.682  18.324  0.00  0.00    +0.000 HD
BRANCH  13  15
ATOM     15  C   UNL     1       2.045   8.375  19.174  0.00  0.00    +0.000 C 
ATOM     16  C   UNL     1       1.289   9.596  18.637  0.00  0.00    +0.000 C 
BRANCH  15  17
ATOM     17  C   UNL     1       1.476   7.994  20.553  0.00  0.00    +0.000 C 
BRANCH  17  18
ATOM     18  C   UNL     1       1.079   9.188  21.432  0.00  0.00    +0.000 C 
BRANCH  18  19
ATOM     19  C   UNL     1      -0.222   9.027  22.220  0.00  0.00    +0.000 C 
BRANCH  19  20
ATOM     20  N   UNL     1      -0.103   9.512  23.591  0.00  0.00    +0.000 NA
ATOM     21  H   UNL     1       0.727   9.126  24.033  0.00  0.00    +0.000 HD
ATOM     22  H   UNL     1      -0.896   9.173  24.135  0.00  0.00    +0.000 HD
ENDBRANCH  19  20
ENDBRANCH  18  19
ENDBRANCH  17  18
ENDBRANCH  15  17
ENDBRANCH  13  15
ENDBRANCH   4  13
BRANCH   1  23
ATOM     23  O   UNL     1       6.199   4.151  16.399  0.00  0.00    +0.000 OA
BRANCH  23  24
ATOM     24  C   UNL     1       6.638   4.390  15.064  0.00  0.00    +0.000 C 
BRANCH  24  25
ATOM     25  C   UNL     1       5.525   4.159  14.048  0.00  0.00    +0.000 C 
BRANCH  25  27
ATOM     26  C   UNL     1       5.118   3.036  11.810  0.00  0.00    +0.000 C 
ATOM     27  C   UNL     1       6.146   3.655  12.742  0.00  0.00    +0.000 C 
ENDBRANCH  25  27
ENDBRANCH  24  25
ENDBRANCH  23  24
ENDBRANCH   1  23
TORSDOF 11
ENDMDL
MODEL 2
REMARK VINA RESULT:      -6.7      2.276      5.250
REMARK  Name = 
REMARK  14 active torsions:
REMARK  status: ('A' for Active; 'I' for Inactive)
REMARK    1  A    between atoms: C_1  and  C_2
REMARK    2  A    between atoms: C_2  and  C_3
REMARK    3  A    between atoms: C_3  and  C_4
REMARK    4  A    between atoms: C_4  and  O_5
REMARK    5  A    between atoms: O_5  and  C_6
REMARK    6  A    between atoms: C_7  and  O_8
REMARK    7  A    between atoms: O_8  and  C_9
REMARK    8  A    between atoms: C_11  and  N_12
REMARK    9  A    between atoms: N_12  and  C_13
REMARK   10  A    between atoms: C_13  and  C_14
REMARK   11  A    between atoms: C_13  and  C_15
REMARK   12  A    between atoms: C_15  and  C_16
REMARK   13  A    between atoms: C_16  and  C_17
REMARK   14  A    between atoms: C_17  and  N_18
REMARK                            x       y       z     vdW  Elec       q    Type
REMARK                         _______ _______ _______ _____ _____    ______ ____
ROOT
ATOM      1  C   UNL     1       5.752   6.180  16.651  0.00  0.00    +0.000 A 
ATOM      2  C   UNL     1       6.069   4.855  16.306  0.00  0.00    +0.000 A 
ATOM      3  C   UNL     1       5.130   3.852  16.517  0.00  0.00    +0.000 A 
ATOM      4  C   UNL     1       3.906   4.093  17.140  0.00  0.00    +0.000 A 
ATOM      5  C   UNL     1       3.555   5.412  17.489  0.00  0.00    +0.000 A 
ATOM      6  N   UNL     1       2.335   5.646  18.028  0.00  0.00    +0.000 NA
ATOM      7  C   UNL     1       1.976   6.921  18.297  0.00  0.00    +0.000 A 
ATOM      8  C   UNL     1       2.790   8.009  18.073  0.00  0.00    +0.000 A 
ATOM      9  C   UNL     1       4.052   7.772  17.543  0.00  0.00    +0.000 A 
ATOM     10  C   UNL     1       4.475   6.461  17.222  0.00  0.00    +0.000 A 
ENDROOT
BRANCH   2  11
ATOM     11  O   UNL     1       7.250   4.529  15.691  0.00  0.00    +0.000 OA
ATOM     12  C   UNL     1       7.248   4.689  14.271  0.00  0.00    +0.000 C 
ENDBRANCH   2  11
BRANCH   4  13
ATOM     13  N   UNL     1       3.067   3.008  17.480  0.00  0.00    +0.000 N 
ATOM     14  H   UNL     1       2.690   2.566  16.637  0.00  0.00    +0.000 HD
BRANCH  13  15
ATOM     15  C   UNL     1       3.406   2.130  18.603  0.00  0.00    +0.000 C 
ATOM     16  C   UNL     1       4.449   2.825  19.487  0.00  0.00    +0.000 C 
BRANCH  15  17
ATOM     17  C   UNL     1       2.154   1.822  19.443  0.00  0.00    +0.000 C 
BRANCH  17  18
ATOM     18  C   UNL     1       1.332   3.056  19.840  0.00  0.00    +0.000 C 
BRANCH  18  19
ATOM     19  C   UNL     1       1.606   3.613  21.238  0.00  0.00    +0.000 C 
BRANCH  19  20
ATOM     20  N   UNL     1       2.264   4.914  21.197  0.00  0.00    +0.000 NA
ATOM     21  H   UNL     1       2.246   5.350  22.115  0.00  0.00    +0.000 HD
ATOM     22  H   UNL     1       1.740   5.534  20.580  0.00  0.00    +0.000 HD
ENDBRANCH  19  20
ENDBRANCH  18  19
ENDBRANCH  17  18
ENDBRANCH  15  17
ENDBRANCH  13  15
ENDBRANCH   4  13
BRANCH   1  23
ATOM     23  O   UNL     1       6.581   7.281  16.494  0.00  0.00    +0.000 OA
BRANCH  23  24
ATOM     24  C   UNL     1       7.550   7.505  17.515  0.00  0.00    +0.000 C 
BRANCH  24  25
ATOM     25  C   UNL     1       7.867   8.988  17.683  0.00  0.00    +0.000 C 
BRANCH  25  27
ATOM     26  C   UNL     1       9.369  10.578  18.966  0.00  0.00    +0.000 C 
ATOM     27  C   UNL     1       8.861   9.153  18.836  0.00  0.00    +0.000 C 
ENDBRANCH  25  27
ENDBRANCH  24  25
ENDBRANCH  23  24
ENDBRANCH   1  23
TORSDOF 11
ENDMDL
MODEL 3
REMARK VINA RESULT:      -6.6      2.213      5.144
REMARK  Name = 
REMARK  14 active torsions:
REMARK  status: ('A' for Active; 'I' for Inactive)
REMARK    1  A    between atoms: C_1  and  C_2
REMARK    2  A    between atoms: C_2  and  C_3
REMARK    3  A    between atoms: C_3  and  C_4
REMARK    4  A    between atoms: C_4  and  O_5
REMARK    5  A    between atoms: O_5  and  C_6
REMARK    6  A    between atoms: C_7  and  O_8
REMARK    7  A    between atoms: O_8  and  C_9
REMARK    8  A    between atoms: C_11  and  N_12
REMARK    9  A    between atoms: N_12  and  C_13
REMARK   10  A    between atoms: C_13  and  C_14
REMARK   11  A    between atoms: C_13  and  C_15
REMARK   12  A    between atoms: C_15  and  C_16
REMARK   13  A    between atoms: C_16  and  C_17
REMARK   14  A    between atoms: C_17  and  N_18
REMARK                            x       y       z     vdW  Elec       q    Type
REMARK                         _______ _______ _______ _____ _____    ______ ____
ROOT
ATOM      1  C   UNL     1       5.315   5.633  16.486  0.00  0.00    +0.000 A 
ATOM      2  C   UNL     1       5.416   4.262  16.195  0.00  0.00    +0.000 A 
ATOM      3  C   UNL     1       4.419   3.397  16.630  0.00  0.00    +0.000 A 
ATOM      4  C   UNL     1       3.355   3.822  17.425  0.00  0.00    +0.000 A 
ATOM      5  C   UNL     1       3.221   5.192  17.727  0.00  0.00    +0.000 A 
ATOM      6  N   UNL     1       2.146   5.605  18.439  0.00  0.00    +0.000 NA
ATOM      7  C   UNL     1       1.986   6.927  18.668  0.00  0.00    +0.000 A 
ATOM      8  C   UNL     1       2.868   7.891  18.233  0.00  0.00    +0.000 A 
ATOM      9  C   UNL     1       3.985   7.470  17.523  0.00  0.00    +0.000 A 
ATOM     10  C   UNL     1       4.195   6.102  17.236  0.00  0.00    +0.000 A 
ENDROOT
BRANCH   2  11
ATOM     11  O   UNL     1       6.429   3.759  15.420  0.00  0.00    +0.000 OA
ATOM     12  C   UNL     1       6.221   3.877  14.012  0.00  0.00    +0.000 C 
ENDBRANCH   2  11
BRANCH   4  13
ATOM     13  N   UNL     1       2.469   2.870  17.977  0.00  0.00    +0.000 N 
ATOM     14  H   UNL     1       1.875   2.466  17.249  0.00  0.00    +0.000 HD
BRANCH  13  15
ATOM     15  C   UNL     1       2.912   1.979  19.053  0.00  0.00    +0.000 C 
ATOM     16  C   UNL     1       3.926   0.977  18.490  0.00  0.00    +0.000 C 
BRANCH  15  17
ATOM     17  C   UNL     1       3.572   2.788  20.184  0.00  0.00    +0.000 C 
BRANCH  17  18
ATOM     18  C   UNL     1       2.654   3.083  21.378  0.00  0.00    +0.000 C 
BRANCH  18  19
ATOM     19  C   UNL     1       1.166   2.803  21.155  0.00  0.00    +0.000 C 
BRANCH  19  20
ATOM     20  N   UNL     1       0.520   3.843  20.362  0.00  0.00    +0.000 NA
ATOM     21  H   UNL     1       1.153   4.189  19.646  0.00  0.00    +0.000 HD
ATOM     22  H   UNL     1       0.312   4.640  20.963  0.00  0.00    +0.000 HD
ENDBRANCH  19  20
ENDBRANCH  18  19
ENDBRANCH  17  18
ENDBRANCH  15  17
ENDBRANCH  13  15
ENDBRANCH   4  13
BRANCH   1  23
ATOM     23  O   UNL     1       6.225   6.612  16.114  0.00  0.00    +0.000 OA
BRANCH  23  24
ATOM     24  C   UNL     1       7.527   6.529  16.688  0.00  0.00    +0.000 C 
BRANCH  24  25
ATOM     25  C   UNL     1       7.628   7.323  17.986  0.00  0.00    +0.000 C 
BRANCH  25  27
ATOM     26  C   UNL     1       8.778   9.490  18.633  0.00  0.00    +0.000 C 
ATOM     27  C   UNL     1       7.853   8.799  17.645  0.00  0.00    +0.000 C 
ENDBRANCH  25  27
ENDBRANCH  24  25
ENDBRANCH  23  24
ENDBRANCH   1  23
TORSDOF 11
ENDMDL
MODEL 4
REMARK VINA RESULT:      -6.5      3.040      6.970
REMARK  Name = 
REMARK  14 active torsions:
REMARK  status: ('A' for Active; 'I' for Inactive)
REMARK    1  A    between atoms: C_1  and  C_2
REMARK    2  A    between atoms: C_2  and  C_3
REMARK    3  A    between atoms: C_3  and  C_4
REMARK    4  A    between atoms: C_4  and  O_5
REMARK    5  A    between atoms: O_5  and  C_6
REMARK    6  A    between atoms: C_7  and  O_8
REMARK    7  A    between atoms: O_8  and  C_9
REMARK    8  A    between atoms: C_11  and  N_12
REMARK    9  A    between atoms: N_12  and  C_13
REMARK   10  A    between atoms: C_13  and  C_14
REMARK   11  A    between atoms: C_13  and  C_15
REMARK   12  A    between atoms: C_15  and  C_16
REMARK   13  A    between atoms: C_16  and  C_17
REMARK   14  A    between atoms: C_17  and  N_18
REMARK                            x       y       z     vdW  Elec       q    Type
REMARK                         _______ _______ _______ _____ _____    ______ ____
ROOT
ATOM      1  C   UNL     1       2.014   6.377  20.019  0.00  0.00    +0.000 A 
ATOM      2  C   UNL     1       2.564   7.074  18.930  0.00  0.00    +0.000 A 
ATOM      3  C   UNL     1       3.071   6.361  17.850  0.00  0.00    +0.000 A 
ATOM      4  C   UNL     1       3.135   4.968  17.836  0.00  0.00    +0.000 A 
ATOM      5  C   UNL     1       2.582   4.241  18.909  0.00  0.00    +0.000 A 
ATOM      6  N   UNL     1       2.584   2.888  18.854  0.00  0.00    +0.000 NA
ATOM      7  C   UNL     1       1.992   2.196  19.853  0.00  0.00    +0.000 A 
ATOM      8  C   UNL     1       1.397   2.786  20.945  0.00  0.00    +0.000 A 
ATOM      9  C   UNL     1       1.414   4.173  21.018  0.00  0.00    +0.000 A 
ATOM     10  C   UNL     1       2.001   4.951  19.994  0.00  0.00    +0.000 A 
ENDROOT
BRANCH   2  11
ATOM     11  O   UNL     1       2.545   8.444  18.861  0.00  0.00    +0.000 OA
ATOM     12  C   UNL     1       2.026   8.974  17.640  0.00  0.00    +0.000 C 
ENDBRANCH   2  11
BRANCH   4  13
ATOM     13  N   UNL     1       3.813   4.307  16.788  0.00  0.00    +0.000 N 
ATOM     14  H   UNL     1       3.277   4.364  15.919  0.00  0.00    +0.000 HD
BRANCH  13  15
ATOM     15  C   UNL     1       5.273   4.387  16.682  0.00  0.00    +0.000 C 
ATOM     16  C   UNL     1       5.648   5.565  15.776  0.00  0.00    +0.000 C 
BRANCH  15  17
ATOM     17  C   UNL     1       5.903   4.595  18.071  0.00  0.00    +0.000 C 
BRANCH  17  18
ATOM     18  C   UNL     1       7.404   4.917  18.049  0.00  0.00    +0.000 C 
BRANCH  18  19
ATOM     19  C   UNL     1       7.867   5.982  19.044  0.00  0.00    +0.000 C 
BRANCH  19  20
ATOM     20  N   UNL     1       8.074   5.438  20.381  0.00  0.00    +0.000 NA
ATOM     21  H   UNL     1       8.962   5.756  20.761  0.00  0.00    +0.000 HD
ATOM     22  H   UNL     1       8.140   4.422  20.322  0.00  0.00    +0.000 HD
ENDBRANCH  19  20
ENDBRANCH  18  19
ENDBRANCH  17  18
ENDBRANCH  15  17
ENDBRANCH  13  15
ENDBRANCH   4  13
BRANCH   1  23
ATOM     23  O   UNL     1       1.468   6.951  21.157  0.00  0.00    +0.000 OA
BRANCH  23  24
ATOM     24  C   UNL     1       1.008   8.295  21.041  0.00  0.00    +0.000 C 
BRANCH  24  25
ATOM     25  C   UNL     1      -0.311   8.511  21.776  0.00  0.00    +0.000 C 
BRANCH  25  27
ATOM     26  C   UNL     1      -0.973  10.606  23.044  0.00  0.00    +0.000 C 
ATOM     27  C   UNL     1      -0.056   9.396  22.999  0.00  0.00    +0.000 C 
ENDBRANCH  25  27
ENDBRANCH  24  25
ENDBRANCH  23  24
ENDBRANCH   1  23
TORSDOF 11
ENDMDL
MODEL 5
REMARK VINA RESULT:      -6.5      1.573      2.216
REMARK  Name = 
REMARK  14 active torsions:
REMARK  status: ('A' for Active; 'I' for Inactive)
REMARK    1  A    between atoms: C_1  and  C_2
REMARK    2  A    between atoms: C_2  and  C_3
REMARK    3  A    between atoms: C_3  and  C_4
REMARK    4  A    between atoms: C_4  and  O_5
REMARK    5  A    between atoms: O_5  and  C_6
REMARK    6  A    between atoms: C_7  and  O_8
REMARK    7  A    between atoms: O_8  and  C_9
REMARK    8  A    between atoms: C_11  and  N_12
REMARK    9  A    between atoms: N_12  and  C_13
REMARK   10  A    between atoms: C_13  and  C_14
REMARK   11  A    between atoms: C_13  and  C_15
REMARK   12  A    between atoms: C_15  and  C_16
REMARK   13  A    between atoms: C_16  and  C_17
REMARK   14  A    between atoms: C_17  and  N_18
REMARK                            x       y       z     vdW  Elec       q    Type
REMARK                         _______ _______ _______ _____ _____    ______ ____
ROOT
ATOM      1  C   UNL     1       5.582   4.967  16.634  0.00  0.00    +0.000 A 
ATOM      2  C   UNL     1       5.610   6.349  16.887  0.00  0.00    +0.000 A 
ATOM      3  C   UNL     1       4.538   6.944  17.542  0.00  0.00    +0.000 A 
ATOM      4  C   UNL     1       3.387   6.238  17.889  0.00  0.00    +0.000 A 
ATOM      5  C   UNL     1       3.333   4.849  17.656  0.00  0.00    +0.000 A 
ATOM      6  N   UNL     1       2.241   4.159  18.060  0.00  0.00    +0.000 NA
ATOM      7  C   UNL     1       2.221   2.817  17.898  0.00  0.00    +0.000 A 
ATOM      8  C   UNL     1       3.248   2.101  17.322  0.00  0.00    +0.000 A 
ATOM      9  C   UNL     1       4.360   2.808  16.883  0.00  0.00    +0.000 A 
ATOM     10  C   UNL     1       4.445   4.210  17.045  0.00  0.00    +0.000 A 
ENDROOT
BRANCH   2  11
ATOM     11  O   UNL     1       6.701   7.120  16.579  0.00  0.00    +0.000 OA
ATOM     12  C   UNL     1       7.596   7.352  17.669  0.00  0.00    +0.000 C 
ENDBRANCH   2  11
BRANCH   4  13
ATOM     13  N   UNL     1       2.266   6.930  18.398  0.00  0.00    +0.000 N 
ATOM     14  H   UNL     1       1.406   6.598  17.955  0.00  0.00    +0.000 HD
BRANCH  13  15
ATOM     15  C   UNL     1       2.195   7.286  19.817  0.00  0.00    +0.000 C 
ATOM     16  C   UNL     1       1.456   8.621  19.964  0.00  0.00    +0.000 C 
BRANCH  15  17
ATOM     17  C   UNL     1       1.445   6.200  20.609  0.00  0.00    +0.000 C 
BRANCH  17  18
ATOM     18  C   UNL     1       2.335   5.071  21.145  0.00  0.00    +0.000 C 
BRANCH  18  19
ATOM     19  C   UNL     1       1.654   3.712  21.312  0.00  0.00    +0.000 C 
BRANCH  19  20
ATOM     20  N   UNL     1       2.459   2.781  22.094  0.00  0.00    +0.000 NA
ATOM     21  H   UNL     1       3.393   2.700  21.700  0.00  0.00    +0.000 HD
ATOM     22  H   UNL     1       2.046   1.849  22.033  0.00  0.00    +0.000 HD
ENDBRANCH  19  20
ENDBRANCH  18  19
ENDBRANCH  17  18
ENDBRANCH  15  17
ENDBRANCH  13  15
ENDBRANCH   4  13
BRANCH   1  23
ATOM     23  O   UNL     1       6.576   4.238  15.997  0.00  0.00    +0.000 OA
BRANCH  23  24
ATOM     24  C   UNL     1       6.823   4.548  14.628  0.00  0.00    +0.000 C 
BRANCH  24  25
ATOM     25  C   UNL     1       5.743   3.980  13.713  0.00  0.00    +0.000 C 
BRANCH  25  27
ATOM     26  C   UNL     1       5.581   2.482  11.672  0.00  0.00    +0.000 C 
ATOM     27  C   UNL     1       6.393   3.542  12.397  0.00  0.00    +0.000 C 
ENDBRANCH  25  27
ENDBRANCH  24  25
ENDBRANCH  23  24
ENDBRANCH   1  23
TORSDOF 11
ENDMDL
MODEL 6
REMARK VINA RESULT:      -6.4      2.973      7.616
REMARK  Name = 
REMARK  14 active torsions:
REMARK  status: ('A' for Active; 'I' for Inactive)
REMARK    1  A    between atoms: C_1  and  C_2
REMARK    2  A    between atoms: C_2  and  C_3
REMARK    3  A    between atoms: C_3  and  C_4
REMARK    4  A    between atoms: C_4  and  O_5
REMARK    5  A    between atoms: O_5  and  C_6
REMARK    6  A    between atoms: C_7  and  O_8
REMARK    7  A    between atoms: O_8  and  C_9
REMARK    8  A    between atoms: C_11  and  N_12
REMARK    9  A    between atoms: N_12  and  C_13
REMARK   10  A    between atoms: C_13  and  C_14
REMARK   11  A    between atoms: C_13  and  C_15
REMARK   12  A    between atoms: C_15  and  C_16
REMARK   13  A    between atoms: C_16  and  C_17
REMARK   14  A    between atoms: C_17  and  N_18
REMARK                            x       y       z     vdW  Elec       q    Type
REMARK                         _______ _______ _______ _____ _____    ______ ____
ROOT
ATOM      1  C   UNL     1       2.035   6.344  20.184  0.00  0.00    +0.000 A 
ATOM      2  C   UNL     1       2.478   7.103  19.088  0.00  0.00    +0.000 A 
ATOM      3  C   UNL     1       3.332   6.524  18.157  0.00  0.00    +0.000 A 
ATOM      4  C   UNL     1       3.840   5.234  18.309  0.00  0.00    +0.000 A 
ATOM      5  C   UNL     1       3.408   4.444  19.393  0.00  0.00    +0.000 A 
ATOM      6  N   UNL     1       3.851   3.169  19.494  0.00  0.00    +0.000 NA
ATOM      7  C   UNL     1       3.381   2.394  20.496  0.00  0.00    +0.000 A 
ATOM      8  C   UNL     1       2.482   2.830  21.444  0.00  0.00    +0.000 A 
ATOM      9  C   UNL     1       2.042   4.145  21.359  0.00  0.00    +0.000 A 
ATOM     10  C   UNL     1       2.484   4.997  20.321  0.00  0.00    +0.000 A 
ENDROOT
BRANCH   2  11
ATOM     11  O   UNL     1       2.029   8.379  18.861  0.00  0.00    +0.000 OA
ATOM     12  C   UNL     1       2.285   8.879  17.547  0.00  0.00    +0.000 C 
ENDBRANCH   2  11
BRANCH   4  13
ATOM     13  N   UNL     1       4.834   4.763  17.423  0.00  0.00    +0.000 N 
ATOM     14  H   UNL     1       4.406   4.326  16.602  0.00  0.00    +0.000 HD
BRANCH  13  15
ATOM     15  C   UNL     1       6.064   5.529  17.211  0.00  0.00    +0.000 C 
ATOM     16  C   UNL     1       7.254   4.731  17.755  0.00  0.00    +0.000 C 
BRANCH  15  17
ATOM     17  C   UNL     1       6.278   5.800  15.711  0.00  0.00    +0.000 C 
BRANCH  17  18
ATOM     18  C   UNL     1       5.708   4.721  14.780  0.00  0.00    +0.000 C 
BRANCH  18  19
ATOM     19  C   UNL     1       6.657   4.217  13.691  0.00  0.00    +0.000 C 
BRANCH  19  20
ATOM     20  N   UNL     1       6.072   3.138  12.902  0.00  0.00    +0.000 NA
ATOM     21  H   UNL     1       5.080   3.306  12.751  0.00  0.00    +0.000 HD
ATOM     22  H   UNL     1       6.133   2.268  13.430  0.00  0.00    +0.000 HD
ENDBRANCH  19  20
ENDBRANCH  18  19
ENDBRANCH  17  18
ENDBRANCH  15  17
ENDBRANCH  13  15
ENDBRANCH   4  13
BRANCH   1  23
ATOM     23  O   UNL     1       1.181   6.785  21.185  0.00  0.00    +0.000 OA
BRANCH  23  24
ATOM     24  C   UNL     1       1.323   8.142  21.597  0.00  0.00    +0.000 C 
BRANCH  24  25
ATOM     25  C   UNL     1      -0.025   8.846  21.712  0.00  0.00    +0.000 C 
BRANCH  25  27
ATOM     26  C   UNL     1      -1.108  10.674  23.097  0.00  0.00    +0.000 C 
ATOM     27  C   UNL     1      -0.111   9.528  23.080  0.00  0.00    +0.000 C 
ENDBRANCH  25  27
ENDBRANCH  24  25
ENDBRANCH  23  24
ENDBRANCH   1  23
TORSDOF 11
ENDMDL
MODEL 7
REMARK VINA RESULT:      -6.3      2.250      4.946
REMARK  Name = 
REMARK  14 active torsions:
REMARK  status: ('A' for Active; 'I' for Inactive)
REMARK    1  A    between atoms: C_1  and  C_2
REMARK    2  A    between atoms: C_2  and  C_3
REMARK    3  A    between atoms: C_3  and  C_4
REMARK    4  A    between atoms: C_4  and  O_5
REMARK    5  A    between atoms: O_5  and  C_6
REMARK    6  A    between atoms: C_7  and  O_8
REMARK    7  A    between atoms: O_8  and  C_9
REMARK    8  A    between atoms: C_11  and  N_12
REMARK    9  A    between atoms: N_12  and  C_13
REMARK   10  A    between atoms: C_13  and  C_14
REMARK   11  A    between atoms: C_13  and  C_15
REMARK   12  A    between atoms: C_15  and  C_16
REMARK   13  A    between atoms: C_16  and  C_17
REMARK   14  A    between atoms: C_17  and  N_18
REMARK                            x       y       z     vdW  Elec       q    Type
REMARK                         _______ _______ _______ _____ _____    ______ ____
ROOT
ATOM      1  C   UNL     1       5.395   5.836  16.366  0.00  0.00    +0.000 A 
ATOM      2  C   UNL     1       5.625   4.526  15.913  0.00  0.00    +0.000 A 
ATOM      3  C   UNL     1       4.720   3.522  16.238  0.00  0.00    +0.000 A 
ATOM      4  C   UNL     1       3.626   3.744  17.074  0.00  0.00    +0.000 A 
ATOM      5  C   UNL     1       3.363   5.049  17.536  0.00  0.00    +0.000 A 
ATOM      6  N   UNL     1       2.258   5.268  18.288  0.00  0.00    +0.000 NA
ATOM      7  C   UNL     1       1.973   6.533  18.672  0.00  0.00    +0.000 A 
ATOM      8  C   UNL     1       2.755   7.622  18.359  0.00  0.00    +0.000 A 
ATOM      9  C   UNL     1       3.902   7.399  17.609  0.00  0.00    +0.000 A 
ATOM     10  C   UNL     1       4.241   6.101  17.162  0.00  0.00    +0.000 A 
ENDROOT
BRANCH   2  11
ATOM     11  O   UNL     1       6.677   4.218  15.089  0.00  0.00    +0.000 OA
ATOM     12  C   UNL     1       6.305   3.828  13.765  0.00  0.00    +0.000 C 
ENDBRANCH   2  11
BRANCH   4  13
ATOM     13  N   UNL     1       2.840   2.653  17.504  0.00  0.00    +0.000 N 
ATOM     14  H   UNL     1       2.451   2.150  16.703  0.00  0.00    +0.000 HD
BRANCH  13  15
ATOM     15  C   UNL     1       3.249   1.854  18.663  0.00  0.00    +0.000 C 
ATOM     16  C   UNL     1       4.452   2.525  19.336  0.00  0.00    +0.000 C 
BRANCH  15  17
ATOM     17  C   UNL     1       2.096   1.747  19.677  0.00  0.00    +0.000 C 
BRANCH  17  18
ATOM     18  C   UNL     1       2.390   2.375  21.047  0.00  0.00    +0.000 C 
BRANCH  18  19
ATOM     19  C   UNL     1       1.448   3.502  21.475  0.00  0.00    +0.000 C 
BRANCH  19  20
ATOM     20  N   UNL     1       0.537   3.899  20.407  0.00  0.00    +0.000 NA
ATOM     21  H   UNL     1       0.768   3.413  19.544  0.00  0.00    +0.000 HD
ATOM     22  H   UNL     1       0.663   4.892  20.213  0.00  0.00    +0.000 HD
ENDBRANCH  19  20
ENDBRANCH  18  19
ENDBRANCH  17  18
ENDBRANCH  15  17
ENDBRANCH  13  15
ENDBRANCH   4  13
BRANCH   1  23
ATOM     23  O   UNL     1       6.204   6.935  16.117  0.00  0.00    +0.000 OA
BRANCH  23  24
ATOM     24  C   UNL     1       7.543   6.869  16.602  0.00  0.00    +0.000 C 
BRANCH  24  25
ATOM     25  C   UNL     1       7.643   7.315  18.058  0.00  0.00    +0.000 C 
BRANCH  25  27
ATOM     26  C   UNL     1       6.805   5.433  19.538  0.00  0.00    +0.000 C 
ATOM     27  C   UNL     1       8.018   6.105  18.919  0.00  0.00    +0.000 C 
ENDBRANCH  25  27
ENDBRANCH  24  25
ENDBRANCH  23  24
ENDBRANCH   1  23
TORSDOF 11
ENDMDL
MODEL 8
REMARK VINA RESULT:      -6.3      3.251      6.176
REMARK  Name = 
REMARK  14 active torsions:
REMARK  status: ('A' for Active; 'I' for Inactive)
REMARK    1  A    between atoms: C_1  and  C_2
REMARK    2  A    between atoms: C_2  and  C_3
REMARK    3  A    between atoms: C_3  and  C_4
REMARK    4  A    between atoms: C_4  and  O_5
REMARK    5  A    between atoms: O_5  and  C_6
REMARK    6  A    between atoms: C_7  and  O_8
REMARK    7  A    between atoms: O_8  and  C_9
REMARK    8  A    between atoms: C_11  and  N_12
REMARK    9  A    between atoms: N_12  and  C_13
REMARK   10  A    between atoms: C_13  and  C_14
REMARK   11  A    between atoms: C_13  and  C_15
REMARK   12  A    between atoms: C_15  and  C_16
REMARK   13  A    between atoms: C_16  and  C_17
REMARK   14  A    between atoms: C_17  and  N_18
REMARK                            x       y       z     vdW  Elec       q    Type
REMARK                         _______ _______ _______ _____ _____    ______ ____
ROOT
ATOM      1  C   UNL     1       4.016   4.669  17.029  0.00  0.00    +0.000 A 
ATOM      2  C   UNL     1       3.905   5.794  17.864  0.00  0.00    +0.000 A 
ATOM      3  C   UNL     1       4.800   6.847  17.711  0.00  0.00    +0.000 A 
ATOM      4  C   UNL     1       5.866   6.799  16.814  0.00  0.00    +0.000 A 
ATOM      5  C   UNL     1       5.999   5.688  15.957  0.00  0.00    +0.000 A 
ATOM      6  N   UNL     1       6.995   5.682  15.040  0.00  0.00    +0.000 NA
ATOM      7  C   UNL     1       7.077   4.647  14.175  0.00  0.00    +0.000 A 
ATOM      8  C   UNL     1       6.212   3.575  14.180  0.00  0.00    +0.000 A 
ATOM      9  C   UNL     1       5.203   3.565  15.135  0.00  0.00    +0.000 A 
ATOM     10  C   UNL     1       5.055   4.630  16.053  0.00  0.00    +0.000 A 
ENDROOT
BRANCH   2  11
ATOM     11  O   UNL     1       2.888   5.924  18.774  0.00  0.00    +0.000 OA
ATOM     12  C   UNL     1       2.484   7.270  19.032  0.00  0.00    +0.000 C 
ENDBRANCH   2  11
BRANCH   4  13
ATOM     13  N   UNL     1       6.838   7.824  16.825  0.00  0.00    +0.000 N 
ATOM     14  H   UNL     1       6.563   8.587  16.202  0.00  0.00    +0.000 HD
BRANCH  13  15
ATOM     15  C   UNL     1       7.521   8.186  18.069  0.00  0.00    +0.000 C 
ATOM     16  C   UNL     1       8.217   6.945  18.640  0.00  0.00    +0.000 C 
BRANCH  15  17
ATOM     17  C   UNL     1       8.571   9.281  17.808  0.00  0.00    +0.000 C 
BRANCH  17  18
ATOM     18  C   UNL     1       9.096   9.976  19.072  0.00  0.00    +0.000 C 
BRANCH  18  19
ATOM     19  C   UNL     1       9.587  11.412  18.883  0.00  0.00    +0.000 C 
BRANCH  19  20
ATOM     20  N   UNL     1      10.613  11.516  17.851  0.00  0.00    +0.000 NA
ATOM     21  H   UNL     1      10.311  11.046  17.002  0.00  0.00    +0.000 HD
ATOM     22  H   UNL     1      11.451  11.024  18.162  0.00  0.00    +0.000 HD
ENDBRANCH  19  20
ENDBRANCH  18  19
ENDBRANCH  17  18
ENDBRANCH  15  17
ENDBRANCH  13  15
ENDBRANCH   4  13
BRANCH   1  23
ATOM     23  O   UNL     1       3.196   3.550  17.061  0.00  0.00    +0.000 OA
BRANCH  23  24
ATOM     24  C   UNL     1       3.579   2.498  17.943  0.00  0.00    +0.000 C 
BRANCH  24  25
ATOM     25  C   UNL     1       2.375   1.868  18.634  0.00  0.00    +0.000 C 
BRANCH  25  27
ATOM     26  C   UNL     1       0.867   3.385  19.998  0.00  0.00    +0.000 C 
ATOM     27  C   UNL     1       1.214   2.868  18.613  0.00  0.00    +0.000 C 
ENDBRANCH  25  27
ENDBRANCH  24  25
ENDBRANCH  23  24
ENDBRANCH   1  23
TORSDOF 11
ENDMDL
MODEL 9
REMARK VINA RESULT:      -6.3      1.435      1.678
REMARK  Name = 
REMARK  14 active torsions:
REMARK  status: ('A' for Active; 'I' for Inactive)
REMARK    1  A    between atoms: C_1  and  C_2
REMARK    2  A    between atoms: C_2  and  C_3
REMARK    3  A    between atoms: C_3  and  C_4
REMARK    4  A    between atoms: C_4  and  O_5
REMARK    5  A    between atoms: O_5  and  C_6
REMARK    6  A    between atoms: C_7  and  O_8
REMARK    7  A    between atoms: O_8  and  C_9
REMARK    8  A    between atoms: C_11  and  N_12
REMARK    9  A    between atoms: N_12  and  C_13
REMARK   10  A    between atoms: C_13  and  C_14
REMARK   11  A    between atoms: C_13  and  C_15
REMARK   12  A    between atoms: C_15  and  C_16
REMARK   13  A    between atoms: C_16  and  C_17
REMARK   14  A    between atoms: C_17  and  N_18
REMARK                            x       y       z     vdW  Elec       q    Type
REMARK                         _______ _______ _______ _____ _____    ______ ____
ROOT
ATOM      1  C   UNL     1       4.856   4.932  16.772  0.00  0.00    +0.000 A 
ATOM      2  C   UNL     1       5.147   6.270  17.090  0.00  0.00    +0.000 A 
ATOM      3  C   UNL     1       4.349   6.942  18.008  0.00  0.00    +0.000 A 
ATOM      4  C   UNL     1       3.210   6.368  18.571  0.00  0.00    +0.000 A 
ATOM      5  C   UNL     1       2.897   5.025  18.280  0.00  0.00    +0.000 A 
ATOM      6  N   UNL     1       1.830   4.454  18.886  0.00  0.00    +0.000 NA
ATOM      7  C   UNL     1       1.573   3.147  18.657  0.00  0.00    +0.000 A 
ATOM      8  C   UNL     1       2.327   2.355  17.819  0.00  0.00    +0.000 A 
ATOM      9  C   UNL     1       3.408   2.942  17.176  0.00  0.00    +0.000 A 
ATOM     10  C   UNL     1       3.737   4.300  17.392  0.00  0.00    +0.000 A 
ENDROOT
BRANCH   2  11
ATOM     11  O   UNL     1       6.247   6.912  16.582  0.00  0.00    +0.000 OA
ATOM     12  C   UNL     1       7.296   7.137  17.525  0.00  0.00    +0.000 C 
ENDBRANCH   2  11
BRANCH   4  13
ATOM     13  N   UNL     1       2.347   7.156  19.365  0.00  0.00    +0.000 N 
ATOM     14  H   UNL     1       2.479   6.947  20.357  0.00  0.00    +0.000 HD
BRANCH  13  15
ATOM     15  C   UNL     1       2.071   8.548  19.003  0.00  0.00    +0.000 C 
ATOM     16  C   UNL     1       1.515   8.596  17.575  0.00  0.00    +0.000 C 
BRANCH  15  17
ATOM     17  C   UNL     1       1.041   9.162  19.969  0.00  0.00    +0.000 C 
BRANCH  17  18
ATOM     18  C   UNL     1       0.636  10.605  19.638  0.00  0.00    +0.000 C 
BRANCH  18  19
ATOM     19  C   UNL     1      -0.819  10.802  19.210  0.00  0.00    +0.000 C 
BRANCH  19  20
ATOM     20  N   UNL     1      -0.935  11.209  17.814  0.00  0.00    +0.000 NA
ATOM     21  H   UNL     1      -1.195  10.416  17.233  0.00  0.00    +0.000 HD
ATOM     22  H   UNL     1      -0.022  11.517  17.478  0.00  0.00    +0.000 HD
ENDBRANCH  19  20
ENDBRANCH  18  19
ENDBRANCH  17  18
ENDBRANCH  15  17
ENDBRANCH  13  15
ENDBRANCH   4  13
BRANCH   1  23
ATOM     23  O   UNL     1       5.563   4.136  15.883  0.00  0.00    +0.000 OA
BRANCH  23  24
ATOM     24  C   UNL     1       5.344   4.374  14.495  0.00  0.00    +0.000 C 
BRANCH  24  25
ATOM     25  C   UNL     1       6.623   4.209  13.680  0.00  0.00    +0.000 C 
BRANCH  25  27
ATOM     26  C   UNL     1       4.786   3.409  12.124  0.00  0.00    +0.000 C 
ATOM     27  C   UNL     1       6.283   3.498  12.367  0.00  0.00    +0.000 C 
ENDBRANCH  25  27
ENDBRANCH  24  25
ENDBRANCH  23  24
ENDBRANCH   1  23
TORSDOF 11
ENDMDL
