MODEL 1
REMARK VINA RESULT:      -8.7      0.000      0.000
REMARK  Name = 
REMARK  6 active torsions:
REMARK  status: ('A' for Active; 'I' for Inactive)
REMARK    1  A    between atoms: C_1  and  O_2
REMARK    2  A    between atoms: O_2  and  C_3
REMARK    3  A    between atoms: C_6  and  O_7
REMARK    4  A    between atoms: O_7  and  C_8
REMARK    5  A    between atoms: C_13  and  C_14
REMARK    6  A    between atoms: N_24  and  C_25
REMARK                            x       y       z     vdW  Elec       q    Type
REMARK                         _______ _______ _______ _____ _____    ______ ____
ROOT
ATOM      1  C   UNL     1       0.812   9.523  19.383  0.00  0.00    +0.000 A 
ATOM      2  N   UNL     1       1.550  10.188  18.475  0.00  0.00    +0.000 NA
ATOM      3  C   UNL     1       2.522   9.486  17.869  0.00  0.00    +0.000 A 
ATOM      4  C   UNL     1       2.823   8.175  18.163  0.00  0.00    +0.000 A 
ATOM      5  N   UNL     1       3.834   7.509  17.454  0.00  0.00    +0.000 NA
ATOM      6  C   UNL     1       4.118   6.288  17.802  0.00  0.00    +0.000 A 
ATOM      7  C   UNL     1       3.440   5.608  18.996  0.00  0.00    +0.000 A 
ATOM      8  O   UNL     1       3.903   4.553  19.408  0.00  0.00    +0.000 OA
ATOM      9  N   UNL     1       2.341   6.267  19.542  0.00  0.00    +0.000 N 
ATOM     10  C   UNL     1       2.043   7.603  19.161  0.00  0.00    +0.000 A 
ATOM     11  N   UNL     1       1.035   8.260  19.782  0.00  0.00    +0.000 NA
ENDROOT
BRANCH   6  12
ATOM     12  C   UNL     1       5.141   5.543  17.013  0.00  0.00    +0.000 A 
ATOM     13  C   UNL     1       6.340   5.174  17.639  0.00  0.00    +0.000 A 
ATOM     14  C   UNL     1       7.319   4.508  16.907  0.00  0.00    +0.000 A 
ATOM     15  F   UNL     1       8.459   4.149  17.510  0.00  0.00    +0.000 F 
ATOM     16  C   UNL     1       7.138   4.213  15.564  0.00  0.00    +0.000 A 
ATOM     17  C   UNL     1       5.955   4.598  14.952  0.00  0.00    +0.000 A 
ATOM     18  F   UNL     1       5.770   4.331  13.650  0.00  0.00    +0.000 F 
ATOM     19  C   UNL     1       4.955   5.263  15.657  0.00  0.00    +0.000 A 
ENDBRANCH   6  12
BRANCH   9  20
ATOM     20  C   UNL     1       1.645   5.671  20.660  0.00  0.00    +0.000 C 
ATOM     21  C   UNL     1       0.939   4.338  20.575  0.00  0.00    +0.000 C 
ATOM     22  C   UNL     1       2.204   4.454  21.365  0.00  0.00    +0.000 C 
ENDBRANCH   9  20
BRANCH   1  23
ATOM     23  O   UNL     1      -0.295  10.155  19.944  0.00  0.00    +0.000 OA
BRANCH  23  27
ATOM     24  C   UNL     1      -3.344  11.191  17.272  0.00  0.00    +0.000 A 
ATOM     25  C   UNL     1      -3.160  11.945  18.428  0.00  0.00    +0.000 A 
ATOM     26  C   UNL     1      -2.124  11.647  19.310  0.00  0.00    +0.000 A 
ATOM     27  C   UNL     1      -1.303  10.539  19.084  0.00  0.00    +0.000 A 
ATOM     28  C   UNL     1      -1.467   9.795  17.911  0.00  0.00    +0.000 A 
ATOM     29  C   UNL     1      -2.487  10.120  17.005  0.00  0.00    +0.000 A 
BRANCH  24  31
ATOM     30  C   UNL     1      -5.539  12.060  17.224  0.00  0.00    +0.000 C 
ATOM     31  O   UNL     1      -4.414  11.568  16.510  0.00  0.00    +0.000 OA
ENDBRANCH  24  31
ENDBRANCH  23  27
ENDBRANCH   1  23
TORSDOF 5
ENDMDL
MODEL 2
REMARK VINA RESULT:      -8.7      3.097      4.873
REMARK  Name = 
REMARK  6 active torsions:
REMARK  status: ('A' for Active; 'I' for Inactive)
REMARK    1  A    between atoms: C_1  and  O_2
REMARK    2  A    between atoms: O_2  and  C_3
REMARK    3  A    between atoms: C_6  and  O_7
REMARK    4  A    between atoms: O_7  and  C_8
REMARK    5  A    between atoms: C_13  and  C_14
REMARK    6  A    between atoms: N_24  and  C_25
REMARK                            x       y       z     vdW  Elec       q    Type
REMARK                         _______ _______ _______ _____ _____    ______ ____
ROOT
ATOM      1  C   UNL     1      -0.341  10.935  22.129  0.00  0.00    +0.000 A 
ATOM      2  N   UNL     1      -0.433   9.791  22.831  0.00  0.00    +0.000 NA
ATOM      3  C   UNL     1       0.177   8.718  22.301  0.00  0.00    +0.000 A 
ATOM      4  C   UNL     1       0.827   8.721  21.087  0.00  0.00    +0.000 A 
ATOM      5  N   UNL     1       1.466   7.561  20.627  0.00  0.00    +0.000 NA
ATOM      6  C   UNL     1       2.021   7.597  19.451  0.00  0.00    +0.000 A 
ATOM      7  C   UNL     1       1.921   8.831  18.547  0.00  0.00    +0.000 A 
ATOM      8  O   UNL     1       2.267   8.727  17.378  0.00  0.00    +0.000 OA
ATOM      9  N   UNL     1       1.417   9.989  19.133  0.00  0.00    +0.000 N 
ATOM     10  C   UNL     1       0.806   9.938  20.414  0.00  0.00    +0.000 A 
ATOM     11  N   UNL     1       0.227  11.054  20.918  0.00  0.00    +0.000 NA
ENDROOT
BRANCH   6  12
ATOM     12  C   UNL     1       2.766   6.395  18.978  0.00  0.00    +0.000 A 
ATOM     13  C   UNL     1       2.111   5.479  18.144  0.00  0.00    +0.000 A 
ATOM     14  C   UNL     1       2.781   4.334  17.721  0.00  0.00    +0.000 A 
ATOM     15  F   UNL     1       2.154   3.466  16.917  0.00  0.00    +0.000 F 
ATOM     16  C   UNL     1       4.083   4.074  18.121  0.00  0.00    +0.000 A 
ATOM     17  C   UNL     1       4.716   4.980  18.959  0.00  0.00    +0.000 A 
ATOM     18  F   UNL     1       5.971   4.735  19.363  0.00  0.00    +0.000 F 
ATOM     19  C   UNL     1       4.073   6.135  19.397  0.00  0.00    +0.000 A 
ENDBRANCH   6  12
BRANCH   9  20
ATOM     20  C   UNL     1       1.312  11.193  18.339  0.00  0.00    +0.000 C 
ATOM     21  C   UNL     1       1.465  12.578  18.920  0.00  0.00    +0.000 C 
ATOM     22  C   UNL     1       2.535  12.030  18.031  0.00  0.00    +0.000 C 
ENDBRANCH   9  20
BRANCH   1  23
ATOM     23  O   UNL     1      -0.834  12.110  22.691  0.00  0.00    +0.000 OA
BRANCH  23  27
ATOM     24  C   UNL     1      -4.919  12.938  22.320  0.00  0.00    +0.000 A 
ATOM     25  C   UNL     1      -4.125  12.883  21.177  0.00  0.00    +0.000 A 
ATOM     26  C   UNL     1      -2.771  12.565  21.271  0.00  0.00    +0.000 A 
ATOM     27  C   UNL     1      -2.178  12.373  22.522  0.00  0.00    +0.000 A 
ATOM     28  C   UNL     1      -2.977  12.400  23.669  0.00  0.00    +0.000 A 
ATOM     29  C   UNL     1      -4.348  12.683  23.568  0.00  0.00    +0.000 A 
BRANCH  24  31
ATOM     30  C   UNL     1      -6.769  12.864  20.853  0.00  0.00    +0.000 C 
ATOM     31  O   UNL     1      -6.219  13.291  22.091  0.00  0.00    +0.000 OA
ENDBRANCH  24  31
ENDBRANCH  23  27
ENDBRANCH   1  23
TORSDOF 5
ENDMDL
MODEL 3
REMARK VINA RESULT:      -8.6      3.570      5.416
REMARK  Name = 
REMARK  6 active torsions:
REMARK  status: ('A' for Active; 'I' for Inactive)
REMARK    1  A    between atoms: C_1  and  O_2
REMARK    2  A    between atoms: O_2  and  C_3
REMARK    3  A    between atoms: C_6  and  O_7
REMARK    4  A    between atoms: O_7  and  C_8
REMARK    5  A    between atoms: C_13  and  C_14
REMARK    6  A    between atoms: N_24  and  C_25
REMARK                            x       y       z     vdW  Elec       q    Type
REMARK                         _______ _______ _______ _____ _____    ______ ____
ROOT
ATOM      1  C   UNL     1      -0.792  11.405  22.633  0.00  0.00    +0.000 A 
ATOM      2  N   UNL     1      -0.800  10.252  23.326  0.00  0.00    +0.000 NA
ATOM      3  C   UNL     1      -0.154   9.217  22.765  0.00  0.00    +0.000 A 
ATOM      4  C   UNL     1       0.453   9.264  21.531  0.00  0.00    +0.000 A 
ATOM      5  N   UNL     1       1.136   8.142  21.038  0.00  0.00    +0.000 NA
ATOM      6  C   UNL     1       1.648   8.217  19.844  0.00  0.00    +0.000 A 
ATOM      7  C   UNL     1       1.453   9.451  18.956  0.00  0.00    +0.000 A 
ATOM      8  O   UNL     1       1.763   9.374  17.775  0.00  0.00    +0.000 OA
ATOM      9  N   UNL     1       0.909  10.576  19.570  0.00  0.00    +0.000 N 
ATOM     10  C   UNL     1       0.346  10.483  20.871  0.00  0.00    +0.000 A 
ATOM     11  N   UNL     1      -0.273  11.563  21.405  0.00  0.00    +0.000 NA
ENDROOT
BRANCH   6  12
ATOM     12  C   UNL     1       2.437   7.059  19.335  0.00  0.00    +0.000 A 
ATOM     13  C   UNL     1       3.145   7.200  18.133  0.00  0.00    +0.000 A 
ATOM     14  C   UNL     1       3.860   6.118  17.627  0.00  0.00    +0.000 A 
ATOM     15  F   UNL     1       4.541   6.260  16.482  0.00  0.00    +0.000 F 
ATOM     16  C   UNL     1       3.876   4.896  18.282  0.00  0.00    +0.000 A 
ATOM     17  C   UNL     1       3.160   4.764  19.462  0.00  0.00    +0.000 A 
ATOM     18  F   UNL     1       3.156   3.585  20.101  0.00  0.00    +0.000 F 
ATOM     19  C   UNL     1       2.436   5.828  19.995  0.00  0.00    +0.000 A 
ENDBRANCH   6  12
BRANCH   9  20
ATOM     20  C   UNL     1       0.715  11.779  18.792  0.00  0.00    +0.000 C 
ATOM     21  C   UNL     1       0.891  13.166  19.362  0.00  0.00    +0.000 C 
ATOM     22  C   UNL     1       1.891  12.639  18.382  0.00  0.00    +0.000 C 
ENDBRANCH   9  20
BRANCH   1  23
ATOM     23  O   UNL     1      -1.327  12.548  23.222  0.00  0.00    +0.000 OA
BRANCH  23  27
ATOM     24  C   UNL     1      -5.453  13.075  22.770  0.00  0.00    +0.000 A 
ATOM     25  C   UNL     1      -4.920  12.899  24.045  0.00  0.00    +0.000 A 
ATOM     26  C   UNL     1      -3.545  12.767  24.225  0.00  0.00    +0.000 A 
ATOM     27  C   UNL     1      -2.690  12.731  23.120  0.00  0.00    +0.000 A 
ATOM     28  C   UNL     1      -3.218  12.934  21.841  0.00  0.00    +0.000 A 
ATOM     29  C   UNL     1      -4.599  13.105  21.665  0.00  0.00    +0.000 A 
BRANCH  24  31
ATOM     30  C   UNL     1      -7.517  12.278  23.596  0.00  0.00    +0.000 C 
ATOM     31  O   UNL     1      -6.816  13.160  22.731  0.00  0.00    +0.000 OA
ENDBRANCH  24  31
ENDBRANCH  23  27
ENDBRANCH   1  23
TORSDOF 5
ENDMDL
MODEL 4
REMARK VINA RESULT:      -8.6      3.455      5.258
REMARK  Name = 
REMARK  6 active torsions:
REMARK  status: ('A' for Active; 'I' for Inactive)
REMARK    1  A    between atoms: C_1  and  O_2
REMARK    2  A    between atoms: O_2  and  C_3
REMARK    3  A    between atoms: C_6  and  O_7
REMARK    4  A    between atoms: O_7  and  C_8
REMARK    5  A    between atoms: C_13  and  C_14
REMARK    6  A    between atoms: N_24  and  C_25
REMARK                            x       y       z     vdW  Elec       q    Type
REMARK                         _______ _______ _______ _____ _____    ______ ____
ROOT
ATOM      1  C   UNL     1      -0.683  11.362  22.524  0.00  0.00    +0.000 A 
ATOM      2  N   UNL     1      -0.636  10.184  23.172  0.00  0.00    +0.000 NA
ATOM      3  C   UNL     1       0.028   9.192  22.556  0.00  0.00    +0.000 A 
ATOM      4  C   UNL     1       0.600   9.306  21.309  0.00  0.00    +0.000 A 
ATOM      5  N   UNL     1       1.305   8.226  20.756  0.00  0.00    +0.000 NA
ATOM      6  C   UNL     1       1.782   8.363  19.554  0.00  0.00    +0.000 A 
ATOM      7  C   UNL     1       1.525   9.622  18.720  0.00  0.00    +0.000 A 
ATOM      8  O   UNL     1       1.806   9.601  17.529  0.00  0.00    +0.000 OA
ATOM      9  N   UNL     1       0.962  10.705  19.390  0.00  0.00    +0.000 N 
ATOM     10  C   UNL     1       0.437  10.544  20.699  0.00  0.00    +0.000 A 
ATOM     11  N   UNL     1      -0.201  11.583  21.290  0.00  0.00    +0.000 NA
ENDROOT
BRANCH   6  12
ATOM     12  C   UNL     1       2.594   7.251  18.981  0.00  0.00    +0.000 A 
ATOM     13  C   UNL     1       2.632   6.024  19.657  0.00  0.00    +0.000 A 
ATOM     14  C   UNL     1       3.412   4.986  19.153  0.00  0.00    +0.000 A 
ATOM     15  F   UNL     1       3.438   3.813  19.797  0.00  0.00    +0.000 F 
ATOM     16  C   UNL     1       4.166   5.148  18.000  0.00  0.00    +0.000 A 
ATOM     17  C   UNL     1       4.133   6.371  17.349  0.00  0.00    +0.000 A 
ATOM     18  F   UNL     1       4.867   6.546  16.240  0.00  0.00    +0.000 F 
ATOM     19  C   UNL     1       3.361   7.427  17.826  0.00  0.00    +0.000 A 
ENDBRANCH   6  12
BRANCH   9  20
ATOM     20  C   UNL     1       0.710  11.930  18.664  0.00  0.00    +0.000 C 
ATOM     21  C   UNL     1       0.818  13.298  19.294  0.00  0.00    +0.000 C 
ATOM     22  C   UNL     1       1.843  12.863  18.295  0.00  0.00    +0.000 C 
ENDBRANCH   9  20
BRANCH   1  23
ATOM     23  O   UNL     1      -1.237  12.464  23.170  0.00  0.00    +0.000 OA
BRANCH  23  27
ATOM     24  C   UNL     1      -5.388  12.979  23.036  0.00  0.00    +0.000 A 
ATOM     25  C   UNL     1      -4.653  13.024  21.854  0.00  0.00    +0.000 A 
ATOM     26  C   UNL     1      -3.276  12.810  21.868  0.00  0.00    +0.000 A 
ATOM     27  C   UNL     1      -2.604  12.626  23.079  0.00  0.00    +0.000 A 
ATOM     28  C   UNL     1      -3.341  12.553  24.265  0.00  0.00    +0.000 A 
ATOM     29  C   UNL     1      -4.733  12.731  24.244  0.00  0.00    +0.000 A 
BRANCH  24  31
ATOM     30  C   UNL     1      -7.435  12.337  22.049  0.00  0.00    +0.000 C 
ATOM     31  O   UNL     1      -6.721  13.236  22.886  0.00  0.00    +0.000 OA
ENDBRANCH  24  31
ENDBRANCH  23  27
ENDBRANCH   1  23
TORSDOF 5
ENDMDL
MODEL 5
REMARK VINA RESULT:      -8.6      3.175      4.770
REMARK  Name = 
REMARK  6 active torsions:
REMARK  status: ('A' for Active; 'I' for Inactive)
REMARK    1  A    between atoms: C_1  and  O_2
REMARK    2  A    between atoms: O_2  and  C_3
REMARK    3  A    between atoms: C_6  and  O_7
REMARK    4  A    between atoms: O_7  and  C_8
REMARK    5  A    between atoms: C_13  and  C_14
REMARK    6  A    between atoms: N_24  and  C_25
REMARK                            x       y       z     vdW  Elec       q    Type
REMARK                         _______ _______ _______ _____ _____    ______ ____
ROOT
ATOM      1  C   UNL     1      -0.322  11.031  22.054  0.00  0.00    +0.000 A 
ATOM      2  N   UNL     1      -0.430   9.905  22.782  0.00  0.00    +0.000 NA
ATOM      3  C   UNL     1       0.164   8.811  22.276  0.00  0.00    +0.000 A 
ATOM      4  C   UNL     1       0.813   8.778  21.063  0.00  0.00    +0.000 A 
ATOM      5  N   UNL     1       1.435   7.598  20.629  0.00  0.00    +0.000 NA
ATOM      6  C   UNL     1       1.991   7.599  19.453  0.00  0.00    +0.000 A 
ATOM      7  C   UNL     1       1.909   8.813  18.522  0.00  0.00    +0.000 A 
ATOM      8  O   UNL     1       2.254   8.678  17.355  0.00  0.00    +0.000 OA
ATOM      9  N   UNL     1       1.422   9.992  19.081  0.00  0.00    +0.000 N 
ATOM     10  C   UNL     1       0.811   9.979  20.363  0.00  0.00    +0.000 A 
ATOM     11  N   UNL     1       0.249  11.114  20.841  0.00  0.00    +0.000 NA
ENDROOT
BRANCH   6  12
ATOM     12  C   UNL     1       2.718   6.376  19.008  0.00  0.00    +0.000 A 
ATOM     13  C   UNL     1       4.034   6.175  19.445  0.00  0.00    +0.000 A 
ATOM     14  C   UNL     1       4.739   5.055  19.012  0.00  0.00    +0.000 A 
ATOM     15  F   UNL     1       5.993   4.863  19.439  0.00  0.00    +0.000 F 
ATOM     16  C   UNL     1       4.167   4.138  18.143  0.00  0.00    +0.000 A 
ATOM     17  C   UNL     1       2.870   4.355  17.705  0.00  0.00    +0.000 A 
ATOM     18  F   UNL     1       2.308   3.482  16.855  0.00  0.00    +0.000 F 
ATOM     19  C   UNL     1       2.138   5.464  18.122  0.00  0.00    +0.000 A 
ENDBRANCH   6  12
BRANCH   9  20
ATOM     20  C   UNL     1       1.336  11.179  18.260  0.00  0.00    +0.000 C 
ATOM     21  C   UNL     1       1.457  12.577  18.818  0.00  0.00    +0.000 C 
ATOM     22  C   UNL     1       2.562  12.020  17.978  0.00  0.00    +0.000 C 
ENDBRANCH   9  20
BRANCH   1  23
ATOM     23  O   UNL     1      -0.797  12.226  22.589  0.00  0.00    +0.000 OA
BRANCH  23  27
ATOM     24  C   UNL     1      -4.903  13.004  22.375  0.00  0.00    +0.000 A 
ATOM     25  C   UNL     1      -4.142  13.013  21.208  0.00  0.00    +0.000 A 
ATOM     26  C   UNL     1      -2.782  12.713  21.249  0.00  0.00    +0.000 A 
ATOM     27  C   UNL     1      -2.149  12.475  22.471  0.00  0.00    +0.000 A 
ATOM     28  C   UNL     1      -2.914  12.439  23.641  0.00  0.00    +0.000 A 
ATOM     29  C   UNL     1      -4.291  12.704  23.593  0.00  0.00    +0.000 A 
BRANCH  24  31
ATOM     30  C   UNL     1      -6.903  13.773  23.366  0.00  0.00    +0.000 C 
ATOM     31  O   UNL     1      -6.214  13.346  22.200  0.00  0.00    +0.000 OA
ENDBRANCH  24  31
ENDBRANCH  23  27
ENDBRANCH   1  23
TORSDOF 5
ENDMDL
MODEL 6
REMARK VINA RESULT:      -8.6      3.607      5.364
REMARK  Name = 
REMARK  6 active torsions:
REMARK  status: ('A' for Active; 'I' for Inactive)
REMARK    1  A    between atoms: C_1  and  O_2
REMARK    2  A    between atoms: O_2  and  C_3
REMARK    3  A    between atoms: C_6  and  O_7
REMARK    4  A    between atoms: O_7  and  C_8
REMARK    5  A    between atoms: C_13  and  C_14
REMARK    6  A    between atoms: N_24  and  C_25
REMARK                            x       y       z     vdW  Elec       q    Type
REMARK                         _______ _______ _______ _____ _____    ______ ____
ROOT
ATOM      1  C   UNL     1      -0.700  11.490  22.486  0.00  0.00    +0.000 A 
ATOM      2  N   UNL     1      -0.808  10.436  23.315  0.00  0.00    +0.000 NA
ATOM      3  C   UNL     1      -0.216   9.300  22.913  0.00  0.00    +0.000 A 
ATOM      4  C   UNL     1       0.432   9.153  21.707  0.00  0.00    +0.000 A 
ATOM      5  N   UNL     1       1.053   7.937  21.384  0.00  0.00    +0.000 NA
ATOM      6  C   UNL     1       1.607   7.829  20.212  0.00  0.00    +0.000 A 
ATOM      7  C   UNL     1       1.525   8.952  19.172  0.00  0.00    +0.000 A 
ATOM      8  O   UNL     1       1.867   8.709  18.023  0.00  0.00    +0.000 OA
ATOM      9  N   UNL     1       1.039  10.177  19.620  0.00  0.00    +0.000 N 
ATOM     10  C   UNL     1       0.429  10.284  20.899  0.00  0.00    +0.000 A 
ATOM     11  N   UNL     1      -0.131  11.460  21.270  0.00  0.00    +0.000 NA
ENDROOT
BRANCH   6  12
ATOM     12  C   UNL     1       2.332   6.569  19.882  0.00  0.00    +0.000 A 
ATOM     13  C   UNL     1       1.924   5.375  20.493  0.00  0.00    +0.000 A 
ATOM     14  C   UNL     1       2.612   4.195  20.221  0.00  0.00    +0.000 A 
ATOM     15  F   UNL     1       2.214   3.055  20.800  0.00  0.00    +0.000 F 
ATOM     16  C   UNL     1       3.704   4.180  19.366  0.00  0.00    +0.000 A 
ATOM     17  C   UNL     1       4.107   5.370  18.780  0.00  0.00    +0.000 A 
ATOM     18  F   UNL     1       5.169   5.372  17.960  0.00  0.00    +0.000 F 
ATOM     19  C   UNL     1       3.439   6.566  19.030  0.00  0.00    +0.000 A 
ENDBRANCH   6  12
BRANCH   9  20
ATOM     20  C   UNL     1       0.952  11.283  18.693  0.00  0.00    +0.000 C 
ATOM     21  C   UNL     1       1.263  12.709  19.080  0.00  0.00    +0.000 C 
ATOM     22  C   UNL     1       2.201  11.968  18.180  0.00  0.00    +0.000 C 
ENDBRANCH   9  20
BRANCH   1  23
ATOM     23  O   UNL     1      -1.174  12.730  22.908  0.00  0.00    +0.000 OA
BRANCH  23  27
ATOM     24  C   UNL     1      -5.325  13.231  22.762  0.00  0.00    +0.000 A 
ATOM     25  C   UNL     1      -4.658  13.392  23.974  0.00  0.00    +0.000 A 
ATOM     26  C   UNL     1      -3.271  13.274  24.039  0.00  0.00    +0.000 A 
ATOM     27  C   UNL     1      -2.541  12.917  22.903  0.00  0.00    +0.000 A 
ATOM     28  C   UNL     1      -3.203  12.781  21.679  0.00  0.00    +0.000 A 
ATOM     29  C   UNL     1      -4.596  12.937  21.608  0.00  0.00    +0.000 A 
BRANCH  24  31
ATOM     30  C   UNL     1      -7.331  12.418  23.709  0.00  0.00    +0.000 C 
ATOM     31  O   UNL     1      -6.685  13.341  22.844  0.00  0.00    +0.000 OA
ENDBRANCH  24  31
ENDBRANCH  23  27
ENDBRANCH   1  23
TORSDOF 5
ENDMDL
MODEL 7
REMARK VINA RESULT:      -8.6      3.278      5.021
REMARK  Name = 
REMARK  6 active torsions:
REMARK  status: ('A' for Active; 'I' for Inactive)
REMARK    1  A    between atoms: C_1  and  O_2
REMARK    2  A    between atoms: O_2  and  C_3
REMARK    3  A    between atoms: C_6  and  O_7
REMARK    4  A    between atoms: O_7  and  C_8
REMARK    5  A    between atoms: C_13  and  C_14
REMARK    6  A    between atoms: N_24  and  C_25
REMARK                            x       y       z     vdW  Elec       q    Type
REMARK                         _______ _______ _______ _____ _____    ______ ____
ROOT
ATOM      1  C   UNL     1      -0.402  10.955  22.340  0.00  0.00    +0.000 A 
ATOM      2  N   UNL     1      -0.477   9.761  22.956  0.00  0.00    +0.000 NA
ATOM      3  C   UNL     1       0.128   8.734  22.338  0.00  0.00    +0.000 A 
ATOM      4  C   UNL     1       0.757   8.831  21.117  0.00  0.00    +0.000 A 
ATOM      5  N   UNL     1       1.394   7.711  20.561  0.00  0.00    +0.000 NA
ATOM      6  C   UNL     1       1.929   7.838  19.382  0.00  0.00    +0.000 A 
ATOM      7  C   UNL     1       1.809   9.135  18.575  0.00  0.00    +0.000 A 
ATOM      8  O   UNL     1       2.135   9.120  17.396  0.00  0.00    +0.000 OA
ATOM      9  N   UNL     1       1.310  10.243  19.253  0.00  0.00    +0.000 N 
ATOM     10  C   UNL     1       0.721  10.094  20.537  0.00  0.00    +0.000 A 
ATOM     11  N   UNL     1       0.146  11.166  21.133  0.00  0.00    +0.000 NA
ENDROOT
BRANCH   6  12
ATOM     12  C   UNL     1       2.670   6.678  18.809  0.00  0.00    +0.000 A 
ATOM     13  C   UNL     1       1.941   5.623  18.245  0.00  0.00    +0.000 A 
ATOM     14  C   UNL     1       2.616   4.516  17.736  0.00  0.00    +0.000 A 
ATOM     15  F   UNL     1       1.916   3.514  17.189  0.00  0.00    +0.000 F 
ATOM     16  C   UNL     1       3.999   4.432  17.788  0.00  0.00    +0.000 A 
ATOM     17  C   UNL     1       4.709   5.475  18.363  0.00  0.00    +0.000 A 
ATOM     18  F   UNL     1       6.047   5.401  18.432  0.00  0.00    +0.000 F 
ATOM     19  C   UNL     1       4.063   6.595  18.879  0.00  0.00    +0.000 A 
ENDBRANCH   6  12
BRANCH   9  20
ATOM     20  C   UNL     1       1.187  11.503  18.554  0.00  0.00    +0.000 C 
ATOM     21  C   UNL     1       1.398  12.841  19.221  0.00  0.00    +0.000 C 
ATOM     22  C   UNL     1       2.408  12.340  18.239  0.00  0.00    +0.000 C 
ENDBRANCH   9  20
BRANCH   1  23
ATOM     23  O   UNL     1      -0.890  12.083  22.996  0.00  0.00    +0.000 OA
BRANCH  23  27
ATOM     24  C   UNL     1      -4.952  12.909  22.428  0.00  0.00    +0.000 A 
ATOM     25  C   UNL     1      -4.492  12.577  23.700  0.00  0.00    +0.000 A 
ATOM     26  C   UNL     1      -3.136  12.342  23.923  0.00  0.00    +0.000 A 
ATOM     27  C   UNL     1      -2.234  12.360  22.856  0.00  0.00    +0.000 A 
ATOM     28  C   UNL     1      -2.688  12.718  21.583  0.00  0.00    +0.000 A 
ATOM     29  C   UNL     1      -4.047  12.992  21.368  0.00  0.00    +0.000 A 
BRANCH  24  31
ATOM     30  C   UNL     1      -7.062  12.613  23.447  0.00  0.00    +0.000 C 
ATOM     31  O   UNL     1      -6.305  13.083  22.341  0.00  0.00    +0.000 OA
ENDBRANCH  24  31
ENDBRANCH  23  27
ENDBRANCH   1  23
TORSDOF 5
ENDMDL
MODEL 8
REMARK VINA RESULT:      -8.5      3.503      5.472
REMARK  Name = 
REMARK  6 active torsions:
REMARK  status: ('A' for Active; 'I' for Inactive)
REMARK    1  A    between atoms: C_1  and  O_2
REMARK    2  A    between atoms: O_2  and  C_3
REMARK    3  A    between atoms: C_6  and  O_7
REMARK    4  A    between atoms: O_7  and  C_8
REMARK    5  A    between atoms: C_13  and  C_14
REMARK    6  A    between atoms: N_24  and  C_25
REMARK                            x       y       z     vdW  Elec       q    Type
REMARK                         _______ _______ _______ _____ _____    ______ ____
ROOT
ATOM      1  C   UNL     1      -0.935  11.482  22.716  0.00  0.00    +0.000 A 
ATOM      2  N   UNL     1      -0.493  10.483  23.501  0.00  0.00    +0.000 NA
ATOM      3  C   UNL     1       0.233   9.528  22.896  0.00  0.00    +0.000 A 
ATOM      4  C   UNL     1       0.495   9.499  21.545  0.00  0.00    +0.000 A 
ATOM      5  N   UNL     1       1.293   8.480  21.005  0.00  0.00    +0.000 NA
ATOM      6  C   UNL     1       1.469   8.463  19.716  0.00  0.00    +0.000 A 
ATOM      7  C   UNL     1       0.770   9.466  18.791  0.00  0.00    +0.000 A 
ATOM      8  O   UNL     1       0.797   9.264  17.585  0.00  0.00    +0.000 OA
ATOM      9  N   UNL     1       0.131  10.537  19.409  0.00  0.00    +0.000 N 
ATOM     10  C   UNL     1      -0.063  10.543  20.816  0.00  0.00    +0.000 A 
ATOM     11  N   UNL     1      -0.780  11.542  21.383  0.00  0.00    +0.000 NA
ENDROOT
BRANCH   6  12
ATOM     12  C   UNL     1       2.372   7.429  19.134  0.00  0.00    +0.000 A 
ATOM     13  C   UNL     1       3.110   7.746  17.985  0.00  0.00    +0.000 A 
ATOM     14  C   UNL     1       3.933   6.781  17.410  0.00  0.00    +0.000 A 
ATOM     15  F   UNL     1       4.642   7.090  16.317  0.00  0.00    +0.000 F 
ATOM     16  C   UNL     1       4.027   5.505  17.945  0.00  0.00    +0.000 A 
ATOM     17  C   UNL     1       3.281   5.199  19.072  0.00  0.00    +0.000 A 
ATOM     18  F   UNL     1       3.352   3.965  19.594  0.00  0.00    +0.000 F 
ATOM     19  C   UNL     1       2.450   6.142  19.672  0.00  0.00    +0.000 A 
ENDBRANCH   6  12
BRANCH   9  20
ATOM     20  C   UNL     1      -0.533  11.529  18.593  0.00  0.00    +0.000 C 
ATOM     21  C   UNL     1      -1.557  11.178  17.540  0.00  0.00    +0.000 C 
ATOM     22  C   UNL     1      -1.997  11.853  18.800  0.00  0.00    +0.000 C 
ENDBRANCH   9  20
BRANCH   1  23
ATOM     23  O   UNL     1      -1.576  12.569  23.306  0.00  0.00    +0.000 OA
BRANCH  23  27
ATOM     24  C   UNL     1      -5.739  12.841  22.995  0.00  0.00    +0.000 A 
ATOM     25  C   UNL     1      -4.960  12.915  21.844  0.00  0.00    +0.000 A 
ATOM     26  C   UNL     1      -3.575  12.782  21.917  0.00  0.00    +0.000 A 
ATOM     27  C   UNL     1      -2.945  12.650  23.157  0.00  0.00    +0.000 A 
ATOM     28  C   UNL     1      -3.725  12.548  24.313  0.00  0.00    +0.000 A 
ATOM     29  C   UNL     1      -5.122  12.644  24.233  0.00  0.00    +0.000 A 
BRANCH  24  31
ATOM     30  C   UNL     1      -7.911  11.924  23.144  0.00  0.00    +0.000 C 
ATOM     31  O   UNL     1      -7.078  13.018  22.788  0.00  0.00    +0.000 OA
ENDBRANCH  24  31
ENDBRANCH  23  27
ENDBRANCH   1  23
TORSDOF 5
ENDMDL
MODEL 9
REMARK VINA RESULT:      -8.5      5.320     10.281
REMARK  Name = 
REMARK  6 active torsions:
REMARK  status: ('A' for Active; 'I' for Inactive)
REMARK    1  A    between atoms: C_1  and  O_2
REMARK    2  A    between atoms: O_2  and  C_3
REMARK    3  A    between atoms: C_6  and  O_7
REMARK    4  A    between atoms: O_7  and  C_8
REMARK    5  A    between atoms: C_13  and  C_14
REMARK    6  A    between atoms: N_24  and  C_25
REMARK                            x       y       z     vdW  Elec       q    Type
REMARK                         _______ _______ _______ _____ _____    ______ ____
ROOT
ATOM      1  C   UNL     1       1.565   8.541  19.850  0.00  0.00    +0.000 A 
ATOM      2  N   UNL     1       1.921   8.494  21.146  0.00  0.00    +0.000 NA
ATOM      3  C   UNL     1       1.244   9.302  21.978  0.00  0.00    +0.000 A 
ATOM      4  C   UNL     1       0.269  10.184  21.572  0.00  0.00    +0.000 A 
ATOM      5  N   UNL     1      -0.411  10.966  22.518  0.00  0.00    +0.000 NA
ATOM      6  C   UNL     1      -1.288  11.823  22.081  0.00  0.00    +0.000 A 
ATOM      7  C   UNL     1      -1.525  12.046  20.584  0.00  0.00    +0.000 A 
ATOM      8  O   UNL     1      -2.192  13.011  20.236  0.00  0.00    +0.000 OA
ATOM      9  N   UNL     1      -0.937  11.126  19.720  0.00  0.00    +0.000 N 
ATOM     10  C   UNL     1       0.023  10.199  20.204  0.00  0.00    +0.000 A 
ATOM     11  N   UNL     1       0.661   9.386  19.328  0.00  0.00    +0.000 NA
ENDROOT
BRANCH   6  12
ATOM     12  C   UNL     1      -2.070  12.610  23.078  0.00  0.00    +0.000 A 
ATOM     13  C   UNL     1      -1.553  13.834  23.527  0.00  0.00    +0.000 A 
ATOM     14  C   UNL     1      -2.254  14.565  24.483  0.00  0.00    +0.000 A 
ATOM     15  F   UNL     1      -1.762  15.737  24.903  0.00  0.00    +0.000 F 
ATOM     16  C   UNL     1      -3.450  14.100  25.010  0.00  0.00    +0.000 A 
ATOM     17  C   UNL     1      -3.943  12.881  24.568  0.00  0.00    +0.000 A 
ATOM     18  F   UNL     1      -5.092  12.413  25.078  0.00  0.00    +0.000 F 
ATOM     19  C   UNL     1      -3.266  12.127  23.613  0.00  0.00    +0.000 A 
ENDBRANCH   6  12
BRANCH   9  20
ATOM     20  C   UNL     1      -1.137  11.269  18.295  0.00  0.00    +0.000 C 
ATOM     21  C   UNL     1      -1.533  10.120  17.399  0.00  0.00    +0.000 C 
ATOM     22  C   UNL     1      -2.524  11.200  17.694  0.00  0.00    +0.000 C 
ENDBRANCH   9  20
BRANCH   1  23
ATOM     23  O   UNL     1       2.134   7.631  18.962  0.00  0.00    +0.000 OA
BRANCH  23  27
ATOM     24  C   UNL     1       3.085   3.811  20.381  0.00  0.00    +0.000 A 
ATOM     25  C   UNL     1       1.880   4.401  20.756  0.00  0.00    +0.000 A 
ATOM     26  C   UNL     1       1.521   5.653  20.260  0.00  0.00    +0.000 A 
ATOM     27  C   UNL     1       2.402   6.365  19.442  0.00  0.00    +0.000 A 
ATOM     28  C   UNL     1       3.600   5.766  19.043  0.00  0.00    +0.000 A 
ATOM     29  C   UNL     1       3.942   4.489  19.513  0.00  0.00    +0.000 A 
BRANCH  24  31
ATOM     30  C   UNL     1       4.464   1.897  20.479  0.00  0.00    +0.000 C 
ATOM     31  O   UNL     1       3.328   2.599  20.963  0.00  0.00    +0.000 OA
ENDBRANCH  24  31
ENDBRANCH  23  27
ENDBRANCH   1  23
TORSDOF 5
ENDMDL
