MODEL 1
REMARK VINA RESULT:      -7.6      0.000      0.000
REMARK  Name = 
REMARK  8 active torsions:
REMARK  status: ('A' for Active; 'I' for Inactive)
REMARK    1  A    between atoms: C_1  and  C_2
REMARK    2  A    between atoms: C_2  and  C_3
REMARK    3  A    between atoms: C_3  and  C_4
REMARK    4  A    between atoms: C_4  and  N_5
REMARK    5  A    between atoms: C_14  and  C_15
REMARK    6  A    between atoms: C_18  and  N_19
REMARK    7  A    between atoms: C_18  and  C_20
REMARK    8  A    between atoms: C_20  and  O_21
REMARK                            x       y       z     vdW  Elec       q    Type
REMARK                         _______ _______ _______ _____ _____    ______ ____
ROOT
ATOM      1  N   UNL     1      -0.906  11.221  22.636  0.00  0.00    +0.000 N 
ATOM      2  C   UNL     1      -0.283  10.493  21.686  0.00  0.00    +0.000 A 
ATOM      3  N   UNL     1      -0.263  10.756  20.397  0.00  0.00    +0.000 NA
ATOM      4  C   UNL     1       0.488   9.796  19.755  0.00  0.00    +0.000 A 
ATOM      5  C   UNL     1       0.986   8.788  20.555  0.00  0.00    +0.000 A 
ATOM      6  S   UNL     1       0.564   9.071  22.170  0.00  0.00    +0.000 S 
ATOM      7  C   UNL     1       1.797   7.689  20.049  0.00  0.00    +0.000 A 
ATOM      8  C   UNL     1       2.030   6.510  20.755  0.00  0.00    +0.000 A 
ATOM      9  C   UNL     1       2.785   5.489  20.176  0.00  0.00    +0.000 A 
ATOM     10  C   UNL     1       3.316   5.618  18.879  0.00  0.00    +0.000 A 
ATOM     11  C   UNL     1       3.098   6.818  18.189  0.00  0.00    +0.000 A 
ATOM     12  C   UNL     1       2.323   7.841  18.746  0.00  0.00    +0.000 A 
ATOM     13  C   UNL     1       2.102   9.138  17.977  0.00  0.00    +0.000 C 
ATOM     14  C   UNL     1       0.748   9.814  18.287  0.00  0.00    +0.000 C 
ATOM     15  H   UNL     1      -0.972  10.769  23.539  0.00  0.00    +0.000 HD
ENDROOT
BRANCH  10  16
ATOM     16  C   UNL     1       4.072   4.437  18.292  0.00  0.00    +0.000 C 
ATOM     17  C   UNL     1       3.690   4.224  16.808  0.00  0.00    +0.000 C 
ATOM     18  C   UNL     1       4.994   4.191  16.012  0.00  0.00    +0.000 C 
ATOM     19  C   UNL     1       6.026   4.917  16.883  0.00  0.00    +0.000 C 
ATOM     20  C   UNL     1       5.615   4.466  18.291  0.00  0.00    +0.000 C 
BRANCH  19  21
ATOM     21  N   UNL     1       5.865   6.370  16.710  0.00  0.00    +0.000 NA
ATOM     22  H   UNL     1       5.585   6.767  17.613  0.00  0.00    +0.000 HD
ATOM     23  H   UNL     1       5.069   6.556  16.100  0.00  0.00    +0.000 HD
ENDBRANCH  19  21
BRANCH  19  24
ATOM     24  C   UNL     1       7.472   4.517  16.534  0.00  0.00    +0.000 C 
BRANCH  24  25
ATOM     25  O   UNL     1       8.174   4.071  17.698  0.00  0.00    +0.000 OA
ATOM     26  H   UNL     1       8.380   3.133  17.571  0.00  0.00    +0.000 HD
ENDBRANCH  24  25
ENDBRANCH  19  24
ENDBRANCH  10  16
BRANCH   1  27
ATOM     27  C   UNL     1      -2.077  11.990  22.257  0.00  0.00    +0.000 C 
BRANCH  27  28
ATOM     28  C   UNL     1      -2.194  13.188  23.198  0.00  0.00    +0.000 C 
BRANCH  28  30
ATOM     29  C   UNL     1      -4.519  14.084  23.501  0.00  0.00    +0.000 C 
ATOM     30  C   UNL     1      -3.465  13.127  24.037  0.00  0.00    +0.000 C 
ENDBRANCH  28  30
ENDBRANCH  27  28
ENDBRANCH   1  27
TORSDOF 7
ENDMDL
MODEL 2
REMARK VINA RESULT:      -7.6      2.352      3.205
REMARK  Name = 
REMARK  8 active torsions:
REMARK  status: ('A' for Active; 'I' for Inactive)
REMARK    1  A    between atoms: C_1  and  C_2
REMARK    2  A    between atoms: C_2  and  C_3
REMARK    3  A    between atoms: C_3  and  C_4
REMARK    4  A    between atoms: C_4  and  N_5
REMARK    5  A    between atoms: C_14  and  C_15
REMARK    6  A    between atoms: C_18  and  N_19
REMARK    7  A    between atoms: C_18  and  C_20
REMARK    8  A    between atoms: C_20  and  O_21
REMARK                            x       y       z     vdW  Elec       q    Type
REMARK                         _______ _______ _______ _____ _____    ______ ____
ROOT
ATOM      1  N   UNL     1      -2.059  13.065  19.861  0.00  0.00    +0.000 N 
ATOM      2  C   UNL     1      -1.206  12.033  20.026  0.00  0.00    +0.000 A 
ATOM      3  N   UNL     1      -0.779  11.556  21.176  0.00  0.00    +0.000 NA
ATOM      4  C   UNL     1       0.064  10.494  20.935  0.00  0.00    +0.000 A 
ATOM      5  C   UNL     1       0.309  10.209  19.607  0.00  0.00    +0.000 A 
ATOM      6  S   UNL     1      -0.586  11.252  18.619  0.00  0.00    +0.000 S 
ATOM      7  C   UNL     1       1.175   9.124  19.166  0.00  0.00    +0.000 A 
ATOM      8  C   UNL     1       1.691   9.022  17.875  0.00  0.00    +0.000 A 
ATOM      9  C   UNL     1       2.549   7.972  17.549  0.00  0.00    +0.000 A 
ATOM     10  C   UNL     1       2.920   7.006  18.504  0.00  0.00    +0.000 A 
ATOM     11  C   UNL     1       2.374   7.103  19.791  0.00  0.00    +0.000 A 
ATOM     12  C   UNL     1       1.531   8.164  20.140  0.00  0.00    +0.000 A 
ATOM     13  C   UNL     1       0.948   8.247  21.547  0.00  0.00    +0.000 C 
ATOM     14  C   UNL     1       0.697   9.695  22.024  0.00  0.00    +0.000 C 
ATOM     15  H   UNL     1      -2.125  13.411  18.912  0.00  0.00    +0.000 HD
ENDROOT
BRANCH  10  16
ATOM     16  C   UNL     1       3.910   5.930  18.091  0.00  0.00    +0.000 C 
ATOM     17  C   UNL     1       4.738   5.451  19.307  0.00  0.00    +0.000 C 
ATOM     18  C   UNL     1       4.612   3.929  19.359  0.00  0.00    +0.000 C 
ATOM     19  C   UNL     1       3.332   3.594  18.585  0.00  0.00    +0.000 C 
ATOM     20  C   UNL     1       3.375   4.629  17.454  0.00  0.00    +0.000 C 
BRANCH  19  21
ATOM     21  N   UNL     1       2.169   3.800  19.464  0.00  0.00    +0.000 NA
ATOM     22  H   UNL     1       1.935   2.900  19.894  0.00  0.00    +0.000 HD
ATOM     23  H   UNL     1       1.351   4.027  18.900  0.00  0.00    +0.000 HD
ENDBRANCH  19  21
BRANCH  19  24
ATOM     24  C   UNL     1       3.327   2.146  18.059  0.00  0.00    +0.000 C 
BRANCH  24  25
ATOM     25  O   UNL     1       2.088   1.842  17.411  0.00  0.00    +0.000 OA
ATOM     26  H   UNL     1       2.098   2.278  16.547  0.00  0.00    +0.000 HD
ENDBRANCH  24  25
ENDBRANCH  19  24
ENDBRANCH  10  16
BRANCH   1  27
ATOM     27  C   UNL     1      -2.100  14.095  20.884  0.00  0.00    +0.000 C 
BRANCH  27  28
ATOM     28  C   UNL     1      -3.536  14.217  21.390  0.00  0.00    +0.000 C 
BRANCH  28  30
ATOM     29  C   UNL     1      -3.354  12.773  23.433  0.00  0.00    +0.000 C 
ATOM     30  C   UNL     1      -4.007  12.937  22.070  0.00  0.00    +0.000 C 
ENDBRANCH  28  30
ENDBRANCH  27  28
ENDBRANCH   1  27
TORSDOF 7
ENDMDL
MODEL 3
REMARK VINA RESULT:      -7.6      1.969      2.378
REMARK  Name = 
REMARK  8 active torsions:
REMARK  status: ('A' for Active; 'I' for Inactive)
REMARK    1  A    between atoms: C_1  and  C_2
REMARK    2  A    between atoms: C_2  and  C_3
REMARK    3  A    between atoms: C_3  and  C_4
REMARK    4  A    between atoms: C_4  and  N_5
REMARK    5  A    between atoms: C_14  and  C_15
REMARK    6  A    between atoms: C_18  and  N_19
REMARK    7  A    between atoms: C_18  and  C_20
REMARK    8  A    between atoms: C_20  and  O_21
REMARK                            x       y       z     vdW  Elec       q    Type
REMARK                         _______ _______ _______ _____ _____    ______ ____
ROOT
ATOM      1  N   UNL     1      -1.428  11.616  23.133  0.00  0.00    +0.000 N 
ATOM      2  C   UNL     1      -0.834  10.985  22.099  0.00  0.00    +0.000 A 
ATOM      3  N   UNL     1      -0.955  11.299  20.827  0.00  0.00    +0.000 NA
ATOM      4  C   UNL     1      -0.186  10.436  20.077  0.00  0.00    +0.000 A 
ATOM      5  C   UNL     1       0.469   9.446  20.782  0.00  0.00    +0.000 A 
ATOM      6  S   UNL     1       0.173   9.627  22.439  0.00  0.00    +0.000 S 
ATOM      7  C   UNL     1       1.322   8.446  20.156  0.00  0.00    +0.000 A 
ATOM      8  C   UNL     1       1.720   7.266  20.782  0.00  0.00    +0.000 A 
ATOM      9  C   UNL     1       2.504   6.342  20.092  0.00  0.00    +0.000 A 
ATOM     10  C   UNL     1       2.901   6.568  18.761  0.00  0.00    +0.000 A 
ATOM     11  C   UNL     1       2.518   7.769  18.150  0.00  0.00    +0.000 A 
ATOM     12  C   UNL     1       1.712   8.696  18.820  0.00  0.00    +0.000 A 
ATOM     13  C   UNL     1       1.310   9.997  18.135  0.00  0.00    +0.000 C 
ATOM     14  C   UNL     1      -0.064  10.535  18.594  0.00  0.00    +0.000 C 
ATOM     15  H   UNL     1      -1.372  11.124  24.016  0.00  0.00    +0.000 HD
ENDROOT
BRANCH  10  16
ATOM     16  C   UNL     1       3.700   5.484  18.055  0.00  0.00    +0.000 C 
ATOM     17  C   UNL     1       4.838   4.962  18.963  0.00  0.00    +0.000 C 
ATOM     18  C   UNL     1       4.698   3.442  19.026  0.00  0.00    +0.000 C 
ATOM     19  C   UNL     1       3.238   3.148  18.661  0.00  0.00    +0.000 C 
ATOM     20  C   UNL     1       2.969   4.208  17.584  0.00  0.00    +0.000 C 
BRANCH  19  21
ATOM     21  N   UNL     1       2.393   3.355  19.848  0.00  0.00    +0.000 NA
ATOM     22  H   UNL     1       2.914   3.938  20.510  0.00  0.00    +0.000 HD
ATOM     23  H   UNL     1       2.272   2.469  20.339  0.00  0.00    +0.000 HD
ENDBRANCH  19  21
BRANCH  19  24
ATOM     24  C   UNL     1       3.044   1.712  18.136  0.00  0.00    +0.000 C 
BRANCH  24  25
ATOM     25  O   UNL     1       4.186   0.902  18.429  0.00  0.00    +0.000 OA
ATOM     26  H   UNL     1       4.971   1.400  18.158  0.00  0.00    +0.000 HD
ENDBRANCH  24  25
ENDBRANCH  19  24
ENDBRANCH  10  16
BRANCH   1  27
ATOM     27  C   UNL     1      -2.691  12.289  22.895  0.00  0.00    +0.000 C 
BRANCH  27  28
ATOM     28  C   UNL     1      -2.568  13.734  23.378  0.00  0.00    +0.000 C 
BRANCH  28  30
ATOM     29  C   UNL     1      -3.508  15.490  24.904  0.00  0.00    +0.000 C 
ATOM     30  C   UNL     1      -3.454  14.003  24.588  0.00  0.00    +0.000 C 
ENDBRANCH  28  30
ENDBRANCH  27  28
ENDBRANCH   1  27
TORSDOF 7
ENDMDL
MODEL 4
REMARK VINA RESULT:      -7.5      3.826      9.934
REMARK  Name = 
REMARK  8 active torsions:
REMARK  status: ('A' for Active; 'I' for Inactive)
REMARK    1  A    between atoms: C_1  and  C_2
REMARK    2  A    between atoms: C_2  and  C_3
REMARK    3  A    between atoms: C_3  and  C_4
REMARK    4  A    between atoms: C_4  and  N_5
REMARK    5  A    between atoms: C_14  and  C_15
REMARK    6  A    between atoms: C_18  and  N_19
REMARK    7  A    between atoms: C_18  and  C_20
REMARK    8  A    between atoms: C_20  and  O_21
REMARK                            x       y       z     vdW  Elec       q    Type
REMARK                         _______ _______ _______ _____ _____    ______ ____
ROOT
ATOM      1  N   UNL     1       6.296   4.956  15.007  0.00  0.00    +0.000 N 
ATOM      2  C   UNL     1       5.385   5.271  15.951  0.00  0.00    +0.000 A 
ATOM      3  N   UNL     1       4.767   4.424  16.745  0.00  0.00    +0.000 NA
ATOM      4  C   UNL     1       3.926   5.125  17.581  0.00  0.00    +0.000 A 
ATOM      5  C   UNL     1       3.876   6.489  17.378  0.00  0.00    +0.000 A 
ATOM      6  S   UNL     1       4.955   6.929  16.151  0.00  0.00    +0.000 S 
ATOM      7  C   UNL     1       3.042   7.386  18.165  0.00  0.00    +0.000 A 
ATOM      8  C   UNL     1       2.726   8.688  17.778  0.00  0.00    +0.000 A 
ATOM      9  C   UNL     1       1.883   9.466  18.573  0.00  0.00    +0.000 A 
ATOM     10  C   UNL     1       1.330   8.961  19.765  0.00  0.00    +0.000 A 
ATOM     11  C   UNL     1       1.676   7.661  20.158  0.00  0.00    +0.000 A 
ATOM     12  C   UNL     1       2.500   6.860  19.360  0.00  0.00    +0.000 A 
ATOM     13  C   UNL     1       2.863   5.450  19.810  0.00  0.00    +0.000 C 
ATOM     14  C   UNL     1       3.100   4.472  18.638  0.00  0.00    +0.000 C 
ATOM     15  H   UNL     1       6.522   5.709  14.370  0.00  0.00    +0.000 HD
ENDROOT
BRANCH  10  16
ATOM     16  C   UNL     1       0.369   9.846  20.542  0.00  0.00    +0.000 C 
ATOM     17  C   UNL     1       0.922  11.286  20.659  0.00  0.00    +0.000 C 
ATOM     18  C   UNL     1      -0.171  12.226  20.154  0.00  0.00    +0.000 C 
ATOM     19  C   UNL     1      -1.072  11.367  19.260  0.00  0.00    +0.000 C 
ATOM     20  C   UNL     1      -1.069  10.030  20.011  0.00  0.00    +0.000 C 
BRANCH  19  21
ATOM     21  N   UNL     1      -0.455  11.244  17.929  0.00  0.00    +0.000 NA
ATOM     22  H   UNL     1       0.213  12.012  17.818  0.00  0.00    +0.000 HD
ATOM     23  H   UNL     1      -1.156  11.418  17.210  0.00  0.00    +0.000 HD
ENDBRANCH  19  21
BRANCH  19  24
ATOM     24  C   UNL     1      -2.488  11.959  19.115  0.00  0.00    +0.000 C 
BRANCH  24  25
ATOM     25  O   UNL     1      -2.853  12.079  17.737  0.00  0.00    +0.000 OA
ATOM     26  H   UNL     1      -3.793  11.855  17.666  0.00  0.00    +0.000 HD
ENDBRANCH  24  25
ENDBRANCH  19  24
ENDBRANCH  10  16
BRANCH   1  27
ATOM     27  C   UNL     1       6.224   3.644  14.391  0.00  0.00    +0.000 C 
BRANCH  27  28
ATOM     28  C   UNL     1       6.468   3.800  12.891  0.00  0.00    +0.000 C 
BRANCH  28  30
ATOM     29  C   UNL     1       5.814   1.862  11.437  0.00  0.00    +0.000 C 
ATOM     30  C   UNL     1       5.353   3.167  12.067  0.00  0.00    +0.000 C 
ENDBRANCH  28  30
ENDBRANCH  27  28
ENDBRANCH   1  27
TORSDOF 7
ENDMDL
MODEL 5
REMARK VINA RESULT:      -7.4      0.972      1.132
REMARK  Name = 
REMARK  8 active torsions:
REMARK  status: ('A' for Active; 'I' for Inactive)
REMARK    1  A    between atoms: C_1  and  C_2
REMARK    2  A    between atoms: C_2  and  C_3
REMARK    3  A    between atoms: C_3  and  C_4
REMARK    4  A    between atoms: C_4  and  N_5
REMARK    5  A    between atoms: C_14  and  C_15
REMARK    6  A    between atoms: C_18  and  N_19
REMARK    7  A    between atoms: C_18  and  C_20
REMARK    8  A    between atoms: C_20  and  O_21
REMARK                            x       y       z     vdW  Elec       q    Type
REMARK                         _______ _______ _______ _____ _____    ______ ____
ROOT
ATOM      1  N   UNL     1      -0.914  10.951  23.148  0.00  0.00    +0.000 N 
ATOM      2  C   UNL     1      -0.346  10.463  22.026  0.00  0.00    +0.000 A 
ATOM      3  N   UNL     1      -0.503  10.938  20.809  0.00  0.00    +0.000 NA
ATOM      4  C   UNL     1       0.248  10.185  19.934  0.00  0.00    +0.000 A 
ATOM      5  C   UNL     1       0.925   9.117  20.486  0.00  0.00    +0.000 A 
ATOM      6  S   UNL     1       0.674   9.079  22.160  0.00  0.00    +0.000 S 
ATOM      7  C   UNL     1       1.764   8.212  19.713  0.00  0.00    +0.000 A 
ATOM      8  C   UNL     1       2.183   6.964  20.171  0.00  0.00    +0.000 A 
ATOM      9  C   UNL     1       2.951   6.141  19.346  0.00  0.00    +0.000 A 
ATOM     10  C   UNL     1       3.311   6.541  18.045  0.00  0.00    +0.000 A 
ATOM     11  C   UNL     1       2.908   7.809  17.606  0.00  0.00    +0.000 A 
ATOM     12  C   UNL     1       2.116   8.635  18.412  0.00  0.00    +0.000 A 
ATOM     13  C   UNL     1       1.692  10.011  17.912  0.00  0.00    +0.000 C 
ATOM     14  C   UNL     1       0.330  10.476  18.473  0.00  0.00    +0.000 C 
ATOM     15  H   UNL     1      -0.832  10.349  23.959  0.00  0.00    +0.000 HD
ENDROOT
BRANCH  10  16
ATOM     16  C   UNL     1       4.093   5.563  17.184  0.00  0.00    +0.000 C 
ATOM     17  C   UNL     1       4.850   6.307  16.059  0.00  0.00    +0.000 C 
ATOM     18  C   UNL     1       6.313   5.877  16.145  0.00  0.00    +0.000 C 
ATOM     19  C   UNL     1       6.511   5.373  17.580  0.00  0.00    +0.000 C 
ATOM     20  C   UNL     1       5.170   4.679  17.851  0.00  0.00    +0.000 C 
BRANCH  19  21
ATOM     21  N   UNL     1       6.714   6.526  18.472  0.00  0.00    +0.000 NA
ATOM     22  H   UNL     1       6.450   7.373  17.959  0.00  0.00    +0.000 HD
ATOM     23  H   UNL     1       7.710   6.646  18.653  0.00  0.00    +0.000 HD
ENDBRANCH  19  21
BRANCH  19  24
ATOM     24  C   UNL     1       7.708   4.411  17.703  0.00  0.00    +0.000 C 
BRANCH  24  25
ATOM     25  O   UNL     1       8.468   4.690  18.883  0.00  0.00    +0.000 OA
ATOM     26  H   UNL     1       8.993   3.901  19.083  0.00  0.00    +0.000 HD
ENDBRANCH  24  25
ENDBRANCH  19  24
ENDBRANCH  10  16
BRANCH   1  27
ATOM     27  C   UNL     1      -2.186  11.641  23.033  0.00  0.00    +0.000 C 
BRANCH  27  28
ATOM     28  C   UNL     1      -1.950  13.133  23.264  0.00  0.00    +0.000 C 
BRANCH  28  30
ATOM     29  C   UNL     1      -4.320  12.988  24.075  0.00  0.00    +0.000 C 
ATOM     30  C   UNL     1      -3.000  13.735  24.190  0.00  0.00    +0.000 C 
ENDBRANCH  28  30
ENDBRANCH  27  28
ENDBRANCH   1  27
TORSDOF 7
ENDMDL
MODEL 6
REMARK VINA RESULT:      -7.4      3.634      9.859
REMARK  Name = 
REMARK  8 active torsions:
REMARK  status: ('A' for Active; 'I' for Inactive)
REMARK    1  A    between atoms: C_1  and  C_2
REMARK    2  A    between atoms: C_2  and  C_3
REMARK    3  A    between atoms: C_3  and  C_4
REMARK    4  A    between atoms: C_4  and  N_5
REMARK    5  A    between atoms: C_14  and  C_15
REMARK    6  A    between atoms: C_18  and  N_19
REMARK    7  A    between atoms: C_18  and  C_20
REMARK    8  A    between atoms: C_20  and  O_21
REMARK                            x       y       z     vdW  Elec       q    Type
REMARK                         _______ _______ _______ _____ _____    ______ ____
ROOT
ATOM      1  N   UNL     1       6.489   5.360  15.090  0.00  0.00    +0.000 N 
ATOM      2  C   UNL     1       5.565   5.588  16.046  0.00  0.00    +0.000 A 
ATOM      3  N   UNL     1       5.128   4.713  16.926  0.00  0.00    +0.000 NA
ATOM      4  C   UNL     1       4.203   5.324  17.744  0.00  0.00    +0.000 A 
ATOM      5  C   UNL     1       3.909   6.638  17.444  0.00  0.00    +0.000 A 
ATOM      6  S   UNL     1       4.858   7.158  16.142  0.00  0.00    +0.000 S 
ATOM      7  C   UNL     1       2.955   7.439  18.198  0.00  0.00    +0.000 A 
ATOM      8  C   UNL     1       2.405   8.631  17.731  0.00  0.00    +0.000 A 
ATOM      9  C   UNL     1       1.464   9.314  18.502  0.00  0.00    +0.000 A 
ATOM     10  C   UNL     1       1.043   8.819  19.751  0.00  0.00    +0.000 A 
ATOM     11  C   UNL     1       1.622   7.633  20.223  0.00  0.00    +0.000 A 
ATOM     12  C   UNL     1       2.550   6.924  19.451  0.00  0.00    +0.000 A 
ATOM     13  C   UNL     1       3.167   5.638  19.987  0.00  0.00    +0.000 C 
ATOM     14  C   UNL     1       3.536   4.625  18.881  0.00  0.00    +0.000 C 
ATOM     15  H   UNL     1       6.560   6.088  14.389  0.00  0.00    +0.000 HD
ENDROOT
BRANCH  10  16
ATOM     16  C   UNL     1      -0.034   9.584  20.501  0.00  0.00    +0.000 C 
ATOM     17  C   UNL     1       0.555  10.272  21.756  0.00  0.00    +0.000 C 
ATOM     18  C   UNL     1       0.167  11.747  21.679  0.00  0.00    +0.000 C 
ATOM     19  C   UNL     1      -0.124  12.021  20.199  0.00  0.00    +0.000 C 
ATOM     20  C   UNL     1      -0.795  10.710  19.769  0.00  0.00    +0.000 C 
BRANCH  19  21
ATOM     21  N   UNL     1       1.148  12.237  19.490  0.00  0.00    +0.000 NA
ATOM     22  H   UNL     1       1.786  12.724  20.126  0.00  0.00    +0.000 HD
ATOM     23  H   UNL     1       1.005  12.898  18.727  0.00  0.00    +0.000 HD
ENDBRANCH  19  21
BRANCH  19  24
ATOM     24  C   UNL     1      -1.038  13.245  19.998  0.00  0.00    +0.000 C 
BRANCH  24  25
ATOM     25  O   UNL     1      -1.152  13.575  18.611  0.00  0.00    +0.000 OA
ATOM     26  H   UNL     1      -0.913  14.509  18.515  0.00  0.00    +0.000 HD
ENDBRANCH  24  25
ENDBRANCH  19  24
ENDBRANCH  10  16
BRANCH   1  27
ATOM     27  C   UNL     1       6.628   4.010  14.575  0.00  0.00    +0.000 C 
BRANCH  27  28
ATOM     28  C   UNL     1       5.649   3.830  13.416  0.00  0.00    +0.000 C 
BRANCH  28  30
ATOM     29  C   UNL     1       5.555   2.161  11.545  0.00  0.00    +0.000 C 
ATOM     30  C   UNL     1       6.343   3.304  12.165  0.00  0.00    +0.000 C 
ENDBRANCH  28  30
ENDBRANCH  27  28
ENDBRANCH   1  27
TORSDOF 7
ENDMDL
MODEL 7
REMARK VINA RESULT:      -7.4      0.810      1.077
REMARK  Name = 
REMARK  8 active torsions:
REMARK  status: ('A' for Active; 'I' for Inactive)
REMARK    1  A    between atoms: C_1  and  C_2
REMARK    2  A    between atoms: C_2  and  C_3
REMARK    3  A    between atoms: C_3  and  C_4
REMARK    4  A    between atoms: C_4  and  N_5
REMARK    5  A    between atoms: C_14  and  C_15
REMARK    6  A    between atoms: C_18  and  N_19
REMARK    7  A    between atoms: C_18  and  C_20
REMARK    8  A    between atoms: C_20  and  O_21
REMARK                            x       y       z     vdW  Elec       q    Type
REMARK                         _______ _______ _______ _____ _____    ______ ____
ROOT
ATOM      1  N   UNL     1      -1.161  11.504  22.536  0.00  0.00    +0.000 N 
ATOM      2  C   UNL     1      -0.526  10.737  21.626  0.00  0.00    +0.000 A 
ATOM      3  N   UNL     1      -0.468  10.960  20.331  0.00  0.00    +0.000 NA
ATOM      4  C   UNL     1       0.283   9.968  19.738  0.00  0.00    +0.000 A 
ATOM      5  C   UNL     1       0.742   8.977  20.581  0.00  0.00    +0.000 A 
ATOM      6  S   UNL     1       0.282   9.316  22.174  0.00  0.00    +0.000 S 
ATOM      7  C   UNL     1       1.547   7.850  20.130  0.00  0.00    +0.000 A 
ATOM      8  C   UNL     1       1.740   6.689  20.876  0.00  0.00    +0.000 A 
ATOM      9  C   UNL     1       2.493   5.639  20.349  0.00  0.00    +0.000 A 
ATOM     10  C   UNL     1       3.060   5.719  19.063  0.00  0.00    +0.000 A 
ATOM     11  C   UNL     1       2.882   6.901  18.333  0.00  0.00    +0.000 A 
ATOM     12  C   UNL     1       2.110   7.954  18.838  0.00  0.00    +0.000 A 
ATOM     13  C   UNL     1       1.932   9.231  18.024  0.00  0.00    +0.000 C 
ATOM     14  C   UNL     1       0.583   9.938  18.277  0.00  0.00    +0.000 C 
ATOM     15  H   UNL     1      -1.259  11.079  23.451  0.00  0.00    +0.000 HD
ENDROOT
BRANCH  10  16
ATOM     16  C   UNL     1       3.811   4.509  18.533  0.00  0.00    +0.000 C 
ATOM     17  C   UNL     1       3.568   4.335  17.015  0.00  0.00    +0.000 C 
ATOM     18  C   UNL     1       4.942   4.246  16.352  0.00  0.00    +0.000 C 
ATOM     19  C   UNL     1       5.917   4.906  17.333  0.00  0.00    +0.000 C 
ATOM     20  C   UNL     1       5.347   4.458  18.685  0.00  0.00    +0.000 C 
BRANCH  19  21
ATOM     21  N   UNL     1       5.847   6.368  17.172  0.00  0.00    +0.000 NA
ATOM     22  H   UNL     1       6.780   6.702  16.911  0.00  0.00    +0.000 HD
ATOM     23  H   UNL     1       5.671   6.803  18.077  0.00  0.00    +0.000 HD
ENDBRANCH  19  21
BRANCH  19  24
ATOM     24  C   UNL     1       7.369   4.436  17.121  0.00  0.00    +0.000 C 
BRANCH  24  25
ATOM     25  O   UNL     1       7.807   4.714  15.788  0.00  0.00    +0.000 OA
ATOM     26  H   UNL     1       7.776   3.881  15.293  0.00  0.00    +0.000 HD
ENDBRANCH  24  25
ENDBRANCH  19  24
ENDBRANCH  10  16
BRANCH   1  27
ATOM     27  C   UNL     1      -2.309  12.279  22.103  0.00  0.00    +0.000 C 
BRANCH  27  28
ATOM     28  C   UNL     1      -2.349  13.575  22.912  0.00  0.00    +0.000 C 
BRANCH  28  30
ATOM     29  C   UNL     1      -0.969  15.598  23.457  0.00  0.00    +0.000 C 
ATOM     30  C   UNL     1      -0.950  14.097  23.214  0.00  0.00    +0.000 C 
ENDBRANCH  28  30
ENDBRANCH  27  28
ENDBRANCH   1  27
TORSDOF 7
ENDMDL
MODEL 8
REMARK VINA RESULT:      -7.3      2.757      3.688
REMARK  Name = 
REMARK  8 active torsions:
REMARK  status: ('A' for Active; 'I' for Inactive)
REMARK    1  A    between atoms: C_1  and  C_2
REMARK    2  A    between atoms: C_2  and  C_3
REMARK    3  A    between atoms: C_3  and  C_4
REMARK    4  A    between atoms: C_4  and  N_5
REMARK    5  A    between atoms: C_14  and  C_15
REMARK    6  A    between atoms: C_18  and  N_19
REMARK    7  A    between atoms: C_18  and  C_20
REMARK    8  A    between atoms: C_20  and  O_21
REMARK                            x       y       z     vdW  Elec       q    Type
REMARK                         _______ _______ _______ _____ _____    ______ ____
ROOT
ATOM      1  N   UNL     1      -1.264  13.395  20.086  0.00  0.00    +0.000 N 
ATOM      2  C   UNL     1      -0.559  12.252  20.214  0.00  0.00    +0.000 A 
ATOM      3  N   UNL     1      -0.246  11.657  21.345  0.00  0.00    +0.000 NA
ATOM      4  C   UNL     1       0.463  10.509  21.066  0.00  0.00    +0.000 A 
ATOM      5  C   UNL     1       0.724  10.272  19.732  0.00  0.00    +0.000 A 
ATOM      6  S   UNL     1       0.014  11.480  18.782  0.00  0.00    +0.000 S 
ATOM      7  C   UNL     1       1.461   9.111  19.253  0.00  0.00    +0.000 A 
ATOM      8  C   UNL     1       2.013   9.018  17.977  0.00  0.00    +0.000 A 
ATOM      9  C   UNL     1       2.742   7.884  17.615  0.00  0.00    +0.000 A 
ATOM     10  C   UNL     1       2.944   6.825  18.519  0.00  0.00    +0.000 A 
ATOM     11  C   UNL     1       2.362   6.917  19.790  0.00  0.00    +0.000 A 
ATOM     12  C   UNL     1       1.649   8.058  20.177  0.00  0.00    +0.000 A 
ATOM     13  C   UNL     1       1.023   8.134  21.565  0.00  0.00    +0.000 C 
ATOM     14  C   UNL     1       0.941   9.572  22.124  0.00  0.00    +0.000 C 
ATOM     15  H   UNL     1      -1.245  13.801  19.159  0.00  0.00    +0.000 HD
ENDROOT
BRANCH  10  16
ATOM     16  C   UNL     1       3.805   5.654  18.072  0.00  0.00    +0.000 C 
ATOM     17  C   UNL     1       4.644   5.109  19.252  0.00  0.00    +0.000 C 
ATOM     18  C   UNL     1       4.376   3.607  19.333  0.00  0.00    +0.000 C 
ATOM     19  C   UNL     1       3.031   3.390  18.630  0.00  0.00    +0.000 C 
ATOM     20  C   UNL     1       3.115   4.405  17.482  0.00  0.00    +0.000 C 
BRANCH  19  21
ATOM     21  N   UNL     1       1.940   3.716  19.563  0.00  0.00    +0.000 NA
ATOM     22  H   UNL     1       1.859   2.947  20.236  0.00  0.00    +0.000 HD
ATOM     23  H   UNL     1       1.051   3.706  19.065  0.00  0.00    +0.000 HD
ENDBRANCH  19  21
BRANCH  19  24
ATOM     24  C   UNL     1       2.860   1.944  18.126  0.00  0.00    +0.000 C 
BRANCH  24  25
ATOM     25  O   UNL     1       4.098   1.229  18.196  0.00  0.00    +0.000 OA
ATOM     26  H   UNL     1       3.886   0.285  18.236  0.00  0.00    +0.000 HD
ENDBRANCH  24  25
ENDBRANCH  19  24
ENDBRANCH  10  16
BRANCH   1  27
ATOM     27  C   UNL     1      -1.215  14.360  21.170  0.00  0.00    +0.000 C 
BRANCH  27  28
ATOM     28  C   UNL     1      -0.066  15.331  20.901  0.00  0.00    +0.000 C 
BRANCH  28  30
ATOM     29  C   UNL     1       1.029  16.194  18.815  0.00  0.00    +0.000 C 
ATOM     30  C   UNL     1      -0.269  16.101  19.602  0.00  0.00    +0.000 C 
ENDBRANCH  28  30
ENDBRANCH  27  28
ENDBRANCH   1  27
TORSDOF 7
ENDMDL
MODEL 9
REMARK VINA RESULT:      -7.2      3.631      9.572
REMARK  Name = 
REMARK  8 active torsions:
REMARK  status: ('A' for Active; 'I' for Inactive)
REMARK    1  A    between atoms: C_1  and  C_2
REMARK    2  A    between atoms: C_2  and  C_3
REMARK    3  A    between atoms: C_3  and  C_4
REMARK    4  A    between atoms: C_4  and  N_5
REMARK    5  A    between atoms: C_14  and  C_15
REMARK    6  A    between atoms: C_18  and  N_19
REMARK    7  A    between atoms: C_18  and  C_20
REMARK    8  A    between atoms: C_20  and  O_21
REMARK                            x       y       z     vdW  Elec       q    Type
REMARK                         _______ _______ _______ _____ _____    ______ ____
ROOT
ATOM      1  N   UNL     1       3.418   4.336  18.696  0.00  0.00    +0.000 N 
ATOM      2  C   UNL     1       2.928   5.580  18.879  0.00  0.00    +0.000 A 
ATOM      3  N   UNL     1       3.014   6.580  18.029  0.00  0.00    +0.000 NA
ATOM      4  C   UNL     1       2.382   7.680  18.565  0.00  0.00    +0.000 A 
ATOM      5  C   UNL     1       1.868   7.519  19.836  0.00  0.00    +0.000 A 
ATOM      6  S   UNL     1       2.121   5.930  20.363  0.00  0.00    +0.000 S 
ATOM      7  C   UNL     1       1.171   8.573  20.558  0.00  0.00    +0.000 A 
ATOM      8  C   UNL     1       0.939   8.547  21.932  0.00  0.00    +0.000 A 
ATOM      9  C   UNL     1       0.300   9.622  22.552  0.00  0.00    +0.000 A 
ATOM     10  C   UNL     1      -0.114  10.749  21.817  0.00  0.00    +0.000 A 
ATOM     11  C   UNL     1       0.099  10.753  20.433  0.00  0.00    +0.000 A 
ATOM     12  C   UNL     1       0.761   9.694  19.800  0.00  0.00    +0.000 A 
ATOM     13  C   UNL     1       0.980   9.720  18.292  0.00  0.00    +0.000 C 
ATOM     14  C   UNL     1       2.259   8.980  17.843  0.00  0.00    +0.000 C 
ATOM     15  H   UNL     1       3.425   3.758  19.527  0.00  0.00    +0.000 HD
ENDROOT
BRANCH  10  16
ATOM     16  C   UNL     1      -0.745  11.907  22.573  0.00  0.00    +0.000 C 
ATOM     17  C   UNL     1      -0.386  13.256  21.908  0.00  0.00    +0.000 C 
ATOM     18  C   UNL     1      -1.700  13.993  21.656  0.00  0.00    +0.000 C 
ATOM     19  C   UNL     1      -2.783  12.908  21.636  0.00  0.00    +0.000 C 
ATOM     20  C   UNL     1      -2.281  11.950  22.724  0.00  0.00    +0.000 C 
BRANCH  19  21
ATOM     21  N   UNL     1      -2.798  12.265  20.312  0.00  0.00    +0.000 NA
ATOM     22  H   UNL     1      -3.380  12.834  19.690  0.00  0.00    +0.000 HD
ATOM     23  H   UNL     1      -3.292  11.375  20.370  0.00  0.00    +0.000 HD
ENDBRANCH  19  21
BRANCH  19  24
ATOM     24  C   UNL     1      -4.183  13.472  21.948  0.00  0.00    +0.000 C 
BRANCH  24  25
ATOM     25  O   UNL     1      -5.122  12.415  22.167  0.00  0.00    +0.000 OA
ATOM     26  H   UNL     1      -4.832  11.655  21.642  0.00  0.00    +0.000 HD
ENDBRANCH  24  25
ENDBRANCH  19  24
ENDBRANCH  10  16
BRANCH   1  27
ATOM     27  C   UNL     1       4.575   4.172  17.835  0.00  0.00    +0.000 C 
BRANCH  27  28
ATOM     28  C   UNL     1       5.832   4.467  18.653  0.00  0.00    +0.000 C 
BRANCH  28  30
ATOM     29  C   UNL     1       7.476   6.237  17.976  0.00  0.00    +0.000 C 
ATOM     30  C   UNL     1       7.021   4.802  17.761  0.00  0.00    +0.000 C 
ENDBRANCH  28  30
ENDBRANCH  27  28
ENDBRANCH   1  27
TORSDOF 7
ENDMDL
