MODEL 1
REMARK VINA RESULT:      -8.5      0.000      0.000
REMARK  Name = 
REMARK  7 active torsions:
REMARK  status: ('A' for Active; 'I' for Inactive)
REMARK    1  A    between atoms: C_1  and  C_2
REMARK    2  A    between atoms: C_7  and  O_8
REMARK    3  A    between atoms: O_8  and  C_9
REMARK    4  A    between atoms: C_12  and  S_13
REMARK    5  A    between atoms: S_13  and  N_16
REMARK    6  A    between atoms: C_25  and  C_26
REMARK    7  A    between atoms: C_28  and  C_29
REMARK                            x       y       z     vdW  Elec       q    Type
REMARK                         _______ _______ _______ _____ _____    ______ ____
ROOT
ATOM      1  C   UNL     1       1.184   9.620  19.828  0.00  0.00    +0.000 A 
ATOM      2  C   UNL     1       1.514   9.070  18.575  0.00  0.00    +0.000 A 
ATOM      3  C   UNL     1       2.045   7.786  18.481  0.00  0.00    +0.000 A 
ATOM      4  C   UNL     1       2.149   7.001  19.629  0.00  0.00    +0.000 A 
ATOM      5  C   UNL     1       1.648   7.469  20.854  0.00  0.00    +0.000 A 
ATOM      6  C   UNL     1       1.181   8.793  20.963  0.00  0.00    +0.000 A 
ENDROOT
BRANCH   4   7
ATOM      7  S   UNL     1       2.878   5.376  19.489  0.00  0.00    +0.000 S 
ATOM      8  O   UNL     1       2.687   4.704  20.760  0.00  0.00    +0.000 OA
ATOM      9  O   UNL     1       2.385   4.796  18.260  0.00  0.00    +0.000 OA
BRANCH   7  10
ATOM     10  N   UNL     1       4.524   5.672  19.251  0.00  0.00    +0.000 N 
ATOM     11  C   UNL     1       4.972   5.524  17.926  0.00  0.00    +0.000 A 
ATOM     12  C   UNL     1       4.876   6.564  17.013  0.00  0.00    +0.000 A 
ATOM     13  C   UNL     1       5.256   6.316  15.697  0.00  0.00    +0.000 A 
ATOM     14  C   UNL     1       5.689   5.043  15.358  0.00  0.00    +0.000 A 
ATOM     15  F   UNL     1       6.039   4.760  14.098  0.00  0.00    +0.000 F 
ATOM     16  C   UNL     1       5.743   4.067  16.341  0.00  0.00    +0.000 A 
ATOM     17  N   UNL     1       5.397   4.281  17.636  0.00  0.00    +0.000 NA
ATOM     18  H   UNL     1       5.084   5.123  19.898  0.00  0.00    +0.000 HD
ENDBRANCH   7  10
ENDBRANCH   4   7
BRANCH   6  19
ATOM     19  C   UNL     1       0.747   9.276  22.244  0.00  0.00    +0.000 C 
ATOM     20  N   UNL     1       0.437   9.673  23.287  0.00  0.00    +0.000 NA
ENDBRANCH   6  19
BRANCH   1  21
ATOM     21  O   UNL     1       0.940  10.989  19.949  0.00  0.00    +0.000 OA
BRANCH  21  28
ATOM     22  C   UNL     1      -3.283  13.381  21.129  0.00  0.00    +0.000 C 
ATOM     23  C   UNL     1      -2.435  12.515  20.236  0.00  0.00    +0.000 A 
ATOM     24  C   UNL     1      -3.029  11.961  19.094  0.00  0.00    +0.000 A 
ATOM     25  F   UNL     1      -4.337  12.137  18.859  0.00  0.00    +0.000 F 
ATOM     26  C   UNL     1      -2.294  11.232  18.177  0.00  0.00    +0.000 A 
ATOM     27  C   UNL     1      -0.943  11.019  18.407  0.00  0.00    +0.000 A 
ATOM     28  C   UNL     1      -0.349  11.425  19.616  0.00  0.00    +0.000 A 
ATOM     29  C   UNL     1      -1.065  12.253  20.508  0.00  0.00    +0.000 A 
ATOM     30  C   UNL     1      -0.438  12.816  21.757  0.00  0.00    +0.000 C 
ENDBRANCH  21  28
ENDBRANCH   1  21
TORSDOF 5
ENDMDL
MODEL 2
REMARK VINA RESULT:      -8.4      2.744      3.386
REMARK  Name = 
REMARK  7 active torsions:
REMARK  status: ('A' for Active; 'I' for Inactive)
REMARK    1  A    between atoms: C_1  and  C_2
REMARK    2  A    between atoms: C_7  and  O_8
REMARK    3  A    between atoms: O_8  and  C_9
REMARK    4  A    between atoms: C_12  and  S_13
REMARK    5  A    between atoms: S_13  and  N_16
REMARK    6  A    between atoms: C_25  and  C_26
REMARK    7  A    between atoms: C_28  and  C_29
REMARK                            x       y       z     vdW  Elec       q    Type
REMARK                         _______ _______ _______ _____ _____    ______ ____
ROOT
ATOM      1  C   UNL     1       0.899   9.664  19.077  0.00  0.00    +0.000 A 
ATOM      2  C   UNL     1       1.352   9.384  17.774  0.00  0.00    +0.000 A 
ATOM      3  C   UNL     1       2.260   8.353  17.544  0.00  0.00    +0.000 A 
ATOM      4  C   UNL     1       2.640   7.526  18.600  0.00  0.00    +0.000 A 
ATOM      5  C   UNL     1       2.051   7.678  19.866  0.00  0.00    +0.000 A 
ATOM      6  C   UNL     1       1.191   8.764  20.115  0.00  0.00    +0.000 A 
ENDROOT
BRANCH   4   7
ATOM      7  S   UNL     1       3.842   6.242  18.289  0.00  0.00    +0.000 S 
ATOM      8  O   UNL     1       4.636   6.658  17.149  0.00  0.00    +0.000 OA
ATOM      9  O   UNL     1       4.464   5.929  19.555  0.00  0.00    +0.000 OA
BRANCH   7  10
ATOM     10  N   UNL     1       2.916   4.893  17.866  0.00  0.00    +0.000 N 
ATOM     11  C   UNL     1       2.498   4.093  18.944  0.00  0.00    +0.000 A 
ATOM     12  C   UNL     1       1.344   4.389  19.655  0.00  0.00    +0.000 A 
ATOM     13  C   UNL     1       1.042   3.607  20.766  0.00  0.00    +0.000 A 
ATOM     14  C   UNL     1       1.914   2.589  21.121  0.00  0.00    +0.000 A 
ATOM     15  F   UNL     1       1.669   1.832  22.196  0.00  0.00    +0.000 F 
ATOM     16  C   UNL     1       3.046   2.375  20.351  0.00  0.00    +0.000 A 
ATOM     17  N   UNL     1       3.361   3.108  19.252  0.00  0.00    +0.000 NA
ATOM     18  H   UNL     1       3.390   4.341  17.155  0.00  0.00    +0.000 HD
ENDBRANCH   7  10
ENDBRANCH   4   7
BRANCH   6  19
ATOM     19  C   UNL     1       0.663   8.945  21.438  0.00  0.00    +0.000 C 
ATOM     20  N   UNL     1       0.271   9.073  22.520  0.00  0.00    +0.000 NA
ENDBRANCH   6  19
BRANCH   1  21
ATOM     21  O   UNL     1       0.237  10.863  19.345  0.00  0.00    +0.000 OA
BRANCH  21  28
ATOM     22  C   UNL     1      -4.407  12.667  19.702  0.00  0.00    +0.000 C 
ATOM     23  C   UNL     1      -3.351  11.792  19.082  0.00  0.00    +0.000 A 
ATOM     24  C   UNL     1      -3.738  10.905  18.068  0.00  0.00    +0.000 A 
ATOM     25  F   UNL     1      -5.028  10.790  17.726  0.00  0.00    +0.000 F 
ATOM     26  C   UNL     1      -2.811  10.136  17.388  0.00  0.00    +0.000 A 
ATOM     27  C   UNL     1      -1.472  10.221  17.736  0.00  0.00    +0.000 A 
ATOM     28  C   UNL     1      -1.068  10.981  18.849  0.00  0.00    +0.000 A 
ATOM     29  C   UNL     1      -1.988  11.842  19.484  0.00  0.00    +0.000 A 
ATOM     30  C   UNL     1      -1.580  12.768  20.602  0.00  0.00    +0.000 C 
ENDBRANCH  21  28
ENDBRANCH   1  21
TORSDOF 5
ENDMDL
MODEL 3
REMARK VINA RESULT:      -8.2      2.794      3.948
REMARK  Name = 
REMARK  7 active torsions:
REMARK  status: ('A' for Active; 'I' for Inactive)
REMARK    1  A    between atoms: C_1  and  C_2
REMARK    2  A    between atoms: C_7  and  O_8
REMARK    3  A    between atoms: O_8  and  C_9
REMARK    4  A    between atoms: C_12  and  S_13
REMARK    5  A    between atoms: S_13  and  N_16
REMARK    6  A    between atoms: C_25  and  C_26
REMARK    7  A    between atoms: C_28  and  C_29
REMARK                            x       y       z     vdW  Elec       q    Type
REMARK                         _______ _______ _______ _____ _____    ______ ____
ROOT
ATOM      1  C   UNL     1       2.992   6.766  18.435  0.00  0.00    +0.000 A 
ATOM      2  C   UNL     1       3.939   7.293  17.537  0.00  0.00    +0.000 A 
ATOM      3  C   UNL     1       5.292   6.994  17.675  0.00  0.00    +0.000 A 
ATOM      4  C   UNL     1       5.696   6.079  18.647  0.00  0.00    +0.000 A 
ATOM      5  C   UNL     1       4.742   5.404  19.424  0.00  0.00    +0.000 A 
ATOM      6  C   UNL     1       3.383   5.761  19.335  0.00  0.00    +0.000 A 
ENDROOT
BRANCH   4   7
ATOM      7  S   UNL     1       7.442   5.749  18.835  0.00  0.00    +0.000 S 
ATOM      8  O   UNL     1       8.160   6.857  18.237  0.00  0.00    +0.000 OA
ATOM      9  O   UNL     1       7.657   5.383  20.217  0.00  0.00    +0.000 OA
BRANCH   7  10
ATOM     10  N   UNL     1       7.706   4.351  17.924  0.00  0.00    +0.000 N 
ATOM     11  C   UNL     1       7.036   4.307  16.689  0.00  0.00    +0.000 A 
ATOM     12  C   UNL     1       7.581   4.886  15.553  0.00  0.00    +0.000 A 
ATOM     13  C   UNL     1       6.820   4.882  14.387  0.00  0.00    +0.000 A 
ATOM     14  C   UNL     1       5.552   4.323  14.422  0.00  0.00    +0.000 A 
ATOM     15  F   UNL     1       4.782   4.322  13.328  0.00  0.00    +0.000 F 
ATOM     16  C   UNL     1       5.092   3.773  15.608  0.00  0.00    +0.000 A 
ATOM     17  N   UNL     1       5.815   3.746  16.757  0.00  0.00    +0.000 NA
ATOM     18  H   UNL     1       7.519   3.520  18.480  0.00  0.00    +0.000 HD
ENDBRANCH   7  10
ENDBRANCH   4   7
BRANCH   6  19
ATOM     19  C   UNL     1       2.434   5.113  20.197  0.00  0.00    +0.000 C 
ATOM     20  N   UNL     1       1.693   4.557  20.892  0.00  0.00    +0.000 NA
ENDBRANCH   6  19
BRANCH   1  21
ATOM     21  O   UNL     1       1.701   7.294  18.481  0.00  0.00    +0.000 OA
BRANCH  21  28
ATOM     22  C   UNL     1       0.266  10.890  21.637  0.00  0.00    +0.000 C 
ATOM     23  C   UNL     1       0.809  10.395  20.322  0.00  0.00    +0.000 A 
ATOM     24  C   UNL     1       1.046  11.333  19.309  0.00  0.00    +0.000 A 
ATOM     25  F   UNL     1       0.718  12.620  19.488  0.00  0.00    +0.000 F 
ATOM     26  C   UNL     1       1.629  10.970  18.108  0.00  0.00    +0.000 A 
ATOM     27  C   UNL     1       1.958   9.641  17.889  0.00  0.00    +0.000 A 
ATOM     28  C   UNL     1       1.593   8.649  18.818  0.00  0.00    +0.000 A 
ATOM     29  C   UNL     1       1.091   9.023  20.084  0.00  0.00    +0.000 A 
ATOM     30  C   UNL     1       0.797   8.009  21.161  0.00  0.00    +0.000 C 
ENDBRANCH  21  28
ENDBRANCH   1  21
TORSDOF 5
ENDMDL
MODEL 4
REMARK VINA RESULT:      -8.2      2.526      8.965
REMARK  Name = 
REMARK  7 active torsions:
REMARK  status: ('A' for Active; 'I' for Inactive)
REMARK    1  A    between atoms: C_1  and  C_2
REMARK    2  A    between atoms: C_7  and  O_8
REMARK    3  A    between atoms: O_8  and  C_9
REMARK    4  A    between atoms: C_12  and  S_13
REMARK    5  A    between atoms: S_13  and  N_16
REMARK    6  A    between atoms: C_25  and  C_26
REMARK    7  A    between atoms: C_28  and  C_29
REMARK                            x       y       z     vdW  Elec       q    Type
REMARK                         _______ _______ _______ _____ _____    ______ ____
ROOT
ATOM      1  C   UNL     1       2.789   6.831  18.413  0.00  0.00    +0.000 A 
ATOM      2  C   UNL     1       2.870   8.035  17.690  0.00  0.00    +0.000 A 
ATOM      3  C   UNL     1       2.156   9.159  18.100  0.00  0.00    +0.000 A 
ATOM      4  C   UNL     1       1.441   9.119  19.297  0.00  0.00    +0.000 A 
ATOM      5  C   UNL     1       1.506   7.984  20.122  0.00  0.00    +0.000 A 
ATOM      6  C   UNL     1       2.166   6.825  19.672  0.00  0.00    +0.000 A 
ENDROOT
BRANCH   4   7
ATOM      7  S   UNL     1       0.497  10.557  19.776  0.00  0.00    +0.000 S 
ATOM      8  O   UNL     1      -0.608  10.098  20.595  0.00  0.00    +0.000 OA
ATOM      9  O   UNL     1       1.437  11.534  20.275  0.00  0.00    +0.000 OA
BRANCH   7  10
ATOM     10  N   UNL     1      -0.101  11.171  18.319  0.00  0.00    +0.000 N 
ATOM     11  C   UNL     1      -1.495  11.077  18.159  0.00  0.00    +0.000 A 
ATOM     12  C   UNL     1      -2.345  12.050  18.665  0.00  0.00    +0.000 A 
ATOM     13  C   UNL     1      -3.717  11.845  18.547  0.00  0.00    +0.000 A 
ATOM     14  C   UNL     1      -4.167  10.676  17.953  0.00  0.00    +0.000 A 
ATOM     15  F   UNL     1      -5.477  10.433  17.843  0.00  0.00    +0.000 F 
ATOM     16  C   UNL     1      -3.238   9.760  17.483  0.00  0.00    +0.000 A 
ATOM     17  N   UNL     1      -1.894   9.938  17.567  0.00  0.00    +0.000 NA
ATOM     18  H   UNL     1       0.394  10.765  17.529  0.00  0.00    +0.000 HD
ENDBRANCH   7  10
ENDBRANCH   4   7
BRANCH   6  19
ATOM     19  C   UNL     1       2.151   5.650  20.498  0.00  0.00    +0.000 C 
ATOM     20  N   UNL     1       2.132   4.680  21.131  0.00  0.00    +0.000 NA
ENDBRANCH   6  19
BRANCH   1  21
ATOM     21  O   UNL     1       3.253   5.642  17.848  0.00  0.00    +0.000 OA
BRANCH  21  28
ATOM     22  C   UNL     1       7.583   4.949  15.454  0.00  0.00    +0.000 C 
ATOM     23  C   UNL     1       6.728   5.015  16.693  0.00  0.00    +0.000 A 
ATOM     24  C   UNL     1       7.314   4.674  17.919  0.00  0.00    +0.000 A 
ATOM     25  F   UNL     1       8.576   4.225  17.965  0.00  0.00    +0.000 F 
ATOM     26  C   UNL     1       6.622   4.798  19.111  0.00  0.00    +0.000 A 
ATOM     27  C   UNL     1       5.308   5.241  19.089  0.00  0.00    +0.000 A 
ATOM     28  C   UNL     1       4.640   5.442  17.867  0.00  0.00    +0.000 A 
ATOM     29  C   UNL     1       5.365   5.414  16.656  0.00  0.00    +0.000 A 
ATOM     30  C   UNL     1       4.725   5.742  15.331  0.00  0.00    +0.000 C 
ENDBRANCH  21  28
ENDBRANCH   1  21
TORSDOF 5
ENDMDL
MODEL 5
REMARK VINA RESULT:      -8.1      3.666      7.997
REMARK  Name = 
REMARK  7 active torsions:
REMARK  status: ('A' for Active; 'I' for Inactive)
REMARK    1  A    between atoms: C_1  and  C_2
REMARK    2  A    between atoms: C_7  and  O_8
REMARK    3  A    between atoms: O_8  and  C_9
REMARK    4  A    between atoms: C_12  and  S_13
REMARK    5  A    between atoms: S_13  and  N_16
REMARK    6  A    between atoms: C_25  and  C_26
REMARK    7  A    between atoms: C_28  and  C_29
REMARK                            x       y       z     vdW  Elec       q    Type
REMARK                         _______ _______ _______ _____ _____    ______ ____
ROOT
ATOM      1  C   UNL     1       1.805   8.564  19.478  0.00  0.00    +0.000 A 
ATOM      2  C   UNL     1       1.624   8.780  18.099  0.00  0.00    +0.000 A 
ATOM      3  C   UNL     1       0.543   9.525  17.632  0.00  0.00    +0.000 A 
ATOM      4  C   UNL     1      -0.304  10.151  18.546  0.00  0.00    +0.000 A 
ATOM      5  C   UNL     1      -0.024  10.098  19.921  0.00  0.00    +0.000 A 
ATOM      6  C   UNL     1       1.023   9.285  20.395  0.00  0.00    +0.000 A 
ENDROOT
BRANCH   4   7
ATOM      7  S   UNL     1      -1.709  11.060  17.923  0.00  0.00    +0.000 S 
ATOM      8  O   UNL     1      -2.172  10.380  16.729  0.00  0.00    +0.000 OA
ATOM      9  O   UNL     1      -2.597  11.287  19.042  0.00  0.00    +0.000 OA
BRANCH   7  10
ATOM     10  N   UNL     1      -1.079  12.570  17.501  0.00  0.00    +0.000 N 
ATOM     11  C   UNL     1      -0.209  13.140  18.447  0.00  0.00    +0.000 A 
ATOM     12  C   UNL     1       1.142  12.825  18.463  0.00  0.00    +0.000 A 
ATOM     13  C   UNL     1       1.925  13.357  19.484  0.00  0.00    +0.000 A 
ATOM     14  C   UNL     1       1.318  14.153  20.443  0.00  0.00    +0.000 A 
ATOM     15  F   UNL     1       2.033  14.662  21.452  0.00  0.00    +0.000 F 
ATOM     16  C   UNL     1      -0.041  14.406  20.344  0.00  0.00    +0.000 A 
ATOM     17  N   UNL     1      -0.829  13.917  19.352  0.00  0.00    +0.000 NA
ATOM     18  H   UNL     1      -1.826  13.212  17.247  0.00  0.00    +0.000 HD
ENDBRANCH   7  10
ENDBRANCH   4   7
BRANCH   6  19
ATOM     19  C   UNL     1       1.240   9.185  21.811  0.00  0.00    +0.000 C 
ATOM     20  N   UNL     1       1.416   9.145  22.955  0.00  0.00    +0.000 NA
ENDBRANCH   6  19
BRANCH   1  21
ATOM     21  O   UNL     1       2.696   7.586  19.922  0.00  0.00    +0.000 OA
BRANCH  21  28
ATOM     22  C   UNL     1       2.629   3.434  17.145  0.00  0.00    +0.000 C 
ATOM     23  C   UNL     1       2.206   4.267  18.327  0.00  0.00    +0.000 A 
ATOM     24  C   UNL     1       1.227   3.748  19.184  0.00  0.00    +0.000 A 
ATOM     25  F   UNL     1       0.631   2.581  18.904  0.00  0.00    +0.000 F 
ATOM     26  C   UNL     1       0.853   4.411  20.340  0.00  0.00    +0.000 A 
ATOM     27  C   UNL     1       1.439   5.630  20.642  0.00  0.00    +0.000 A 
ATOM     28  C   UNL     1       2.308   6.254  19.728  0.00  0.00    +0.000 A 
ATOM     29  C   UNL     1       2.770   5.543  18.600  0.00  0.00    +0.000 A 
ATOM     30  C   UNL     1       3.795   6.116  17.655  0.00  0.00    +0.000 C 
ENDBRANCH  21  28
ENDBRANCH   1  21
TORSDOF 5
ENDMDL
MODEL 6
REMARK VINA RESULT:      -8.1      2.253      8.621
REMARK  Name = 
REMARK  7 active torsions:
REMARK  status: ('A' for Active; 'I' for Inactive)
REMARK    1  A    between atoms: C_1  and  C_2
REMARK    2  A    between atoms: C_7  and  O_8
REMARK    3  A    between atoms: O_8  and  C_9
REMARK    4  A    between atoms: C_12  and  S_13
REMARK    5  A    between atoms: S_13  and  N_16
REMARK    6  A    between atoms: C_25  and  C_26
REMARK    7  A    between atoms: C_28  and  C_29
REMARK                            x       y       z     vdW  Elec       q    Type
REMARK                         _______ _______ _______ _____ _____    ______ ____
ROOT
ATOM      1  C   UNL     1       2.629   5.479  18.994  0.00  0.00    +0.000 A 
ATOM      2  C   UNL     1       2.743   6.736  18.370  0.00  0.00    +0.000 A 
ATOM      3  C   UNL     1       2.185   7.871  18.951  0.00  0.00    +0.000 A 
ATOM      4  C   UNL     1       1.602   7.779  20.214  0.00  0.00    +0.000 A 
ATOM      5  C   UNL     1       1.649   6.572  20.929  0.00  0.00    +0.000 A 
ATOM      6  C   UNL     1       2.146   5.408  20.311  0.00  0.00    +0.000 A 
ENDROOT
BRANCH   4   7
ATOM      7  S   UNL     1       0.851   9.240  20.917  0.00  0.00    +0.000 S 
ATOM      8  O   UNL     1      -0.551   8.945  21.136  0.00  0.00    +0.000 OA
ATOM      9  O   UNL     1       1.700   9.670  22.005  0.00  0.00    +0.000 OA
BRANCH   7  10
ATOM     10  N   UNL     1       0.997  10.411  19.707  0.00  0.00    +0.000 N 
ATOM     11  C   UNL     1      -0.216  10.829  19.132  0.00  0.00    +0.000 A 
ATOM     12  C   UNL     1      -0.977  11.836  19.710  0.00  0.00    +0.000 A 
ATOM     13  C   UNL     1      -2.209  12.135  19.136  0.00  0.00    +0.000 A 
ATOM     14  C   UNL     1      -2.626  11.404  18.034  0.00  0.00    +0.000 A 
ATOM     15  F   UNL     1      -3.814  11.646  17.470  0.00  0.00    +0.000 F 
ATOM     16  C   UNL     1      -1.797  10.412  17.533  0.00  0.00    +0.000 A 
ATOM     17  N   UNL     1      -0.582  10.107  18.059  0.00  0.00    +0.000 NA
ATOM     18  H   UNL     1       1.662  10.113  18.998  0.00  0.00    +0.000 HD
ENDBRANCH   7  10
ENDBRANCH   4   7
BRANCH   6  19
ATOM     19  C   UNL     1       2.111   4.167  21.033  0.00  0.00    +0.000 C 
ATOM     20  N   UNL     1       2.059   3.150  21.585  0.00  0.00    +0.000 NA
ENDBRANCH   6  19
BRANCH   1  21
ATOM     21  O   UNL     1       2.917   4.315  18.282  0.00  0.00    +0.000 OA
BRANCH  21  28
ATOM     22  C   UNL     1       7.886   4.758  18.020  0.00  0.00    +0.000 C 
ATOM     23  C   UNL     1       6.516   4.623  17.410  0.00  0.00    +0.000 A 
ATOM     24  C   UNL     1       6.404   4.687  16.015  0.00  0.00    +0.000 A 
ATOM     25  F   UNL     1       7.481   4.944  15.261  0.00  0.00    +0.000 F 
ATOM     26  C   UNL     1       5.194   4.479  15.376  0.00  0.00    +0.000 A 
ATOM     27  C   UNL     1       4.061   4.232  16.135  0.00  0.00    +0.000 A 
ATOM     28  C   UNL     1       4.105   4.315  17.539  0.00  0.00    +0.000 A 
ATOM     29  C   UNL     1       5.349   4.427  18.197  0.00  0.00    +0.000 A 
ATOM     30  C   UNL     1       5.465   4.399  19.700  0.00  0.00    +0.000 C 
ENDBRANCH  21  28
ENDBRANCH   1  21
TORSDOF 5
ENDMDL
MODEL 7
REMARK VINA RESULT:      -8.0      2.624      3.034
REMARK  Name = 
REMARK  7 active torsions:
REMARK  status: ('A' for Active; 'I' for Inactive)
REMARK    1  A    between atoms: C_1  and  C_2
REMARK    2  A    between atoms: C_7  and  O_8
REMARK    3  A    between atoms: O_8  and  C_9
REMARK    4  A    between atoms: C_12  and  S_13
REMARK    5  A    between atoms: S_13  and  N_16
REMARK    6  A    between atoms: C_25  and  C_26
REMARK    7  A    between atoms: C_28  and  C_29
REMARK                            x       y       z     vdW  Elec       q    Type
REMARK                         _______ _______ _______ _____ _____    ______ ____
ROOT
ATOM      1  C   UNL     1       1.127   9.564  18.995  0.00  0.00    +0.000 A 
ATOM      2  C   UNL     1       1.753   9.408  17.745  0.00  0.00    +0.000 A 
ATOM      3  C   UNL     1       2.706   8.410  17.547  0.00  0.00    +0.000 A 
ATOM      4  C   UNL     1       2.960   7.493  18.566  0.00  0.00    +0.000 A 
ATOM      5  C   UNL     1       2.206   7.524  19.750  0.00  0.00    +0.000 A 
ATOM      6  C   UNL     1       1.298   8.575  19.978  0.00  0.00    +0.000 A 
ENDROOT
BRANCH   4   7
ATOM      7  S   UNL     1       4.220   6.254  18.305  0.00  0.00    +0.000 S 
ATOM      8  O   UNL     1       5.364   6.917  17.709  0.00  0.00    +0.000 OA
ATOM      9  O   UNL     1       4.349   5.515  19.540  0.00  0.00    +0.000 OA
BRANCH   7  10
ATOM     10  N   UNL     1       3.538   5.192  17.181  0.00  0.00    +0.000 N 
ATOM     11  C   UNL     1       2.863   4.090  17.735  0.00  0.00    +0.000 A 
ATOM     12  C   UNL     1       1.535   4.181  18.127  0.00  0.00    +0.000 A 
ATOM     13  C   UNL     1       0.960   3.077  18.750  0.00  0.00    +0.000 A 
ATOM     14  C   UNL     1       1.741   1.953  18.969  0.00  0.00    +0.000 A 
ATOM     15  F   UNL     1       1.230   0.883  19.585  0.00  0.00    +0.000 F 
ATOM     16  C   UNL     1       3.062   1.960  18.546  0.00  0.00    +0.000 A 
ATOM     17  N   UNL     1       3.648   3.014  17.920  0.00  0.00    +0.000 NA
ATOM     18  H   UNL     1       4.231   4.899  16.498  0.00  0.00    +0.000 HD
ENDBRANCH   7  10
ENDBRANCH   4   7
BRANCH   6  19
ATOM     19  C   UNL     1       0.596   8.630  21.230  0.00  0.00    +0.000 C 
ATOM     20  N   UNL     1       0.021   8.635  22.235  0.00  0.00    +0.000 NA
ENDBRANCH   6  19
BRANCH   1  21
ATOM     21  O   UNL     1       0.410  10.727  19.278  0.00  0.00    +0.000 OA
BRANCH  21  28
ATOM     22  C   UNL     1      -4.275  12.453  19.447  0.00  0.00    +0.000 C 
ATOM     23  C   UNL     1      -3.182  11.588  18.877  0.00  0.00    +0.000 A 
ATOM     24  C   UNL     1      -3.518  10.680  17.863  0.00  0.00    +0.000 A 
ATOM     25  F   UNL     1      -4.793  10.538  17.478  0.00  0.00    +0.000 F 
ATOM     26  C   UNL     1      -2.555   9.918  17.226  0.00  0.00    +0.000 A 
ATOM     27  C   UNL     1      -1.230  10.032  17.620  0.00  0.00    +0.000 A 
ATOM     28  C   UNL     1      -0.879  10.814  18.736  0.00  0.00    +0.000 A 
ATOM     29  C   UNL     1      -1.836  11.668  19.325  0.00  0.00    +0.000 A 
ATOM     30  C   UNL     1      -1.484  12.616  20.443  0.00  0.00    +0.000 C 
ENDBRANCH  21  28
ENDBRANCH   1  21
TORSDOF 5
ENDMDL
MODEL 8
REMARK VINA RESULT:      -8.0      0.967      1.287
REMARK  Name = 
REMARK  7 active torsions:
REMARK  status: ('A' for Active; 'I' for Inactive)
REMARK    1  A    between atoms: C_1  and  C_2
REMARK    2  A    between atoms: C_7  and  O_8
REMARK    3  A    between atoms: O_8  and  C_9
REMARK    4  A    between atoms: C_12  and  S_13
REMARK    5  A    between atoms: S_13  and  N_16
REMARK    6  A    between atoms: C_25  and  C_26
REMARK    7  A    between atoms: C_28  and  C_29
REMARK                            x       y       z     vdW  Elec       q    Type
REMARK                         _______ _______ _______ _____ _____    ______ ____
ROOT
ATOM      1  C   UNL     1       1.104   9.613  19.759  0.00  0.00    +0.000 A 
ATOM      2  C   UNL     1       1.586   9.161  18.516  0.00  0.00    +0.000 A 
ATOM      3  C   UNL     1       2.203   7.917  18.404  0.00  0.00    +0.000 A 
ATOM      4  C   UNL     1       2.248   7.071  19.511  0.00  0.00    +0.000 A 
ATOM      5  C   UNL     1       1.605   7.434  20.705  0.00  0.00    +0.000 A 
ATOM      6  C   UNL     1       1.047   8.720  20.841  0.00  0.00    +0.000 A 
ENDROOT
BRANCH   4   7
ATOM      7  S   UNL     1       3.088   5.503  19.354  0.00  0.00    +0.000 S 
ATOM      8  O   UNL     1       4.494   5.735  19.616  0.00  0.00    +0.000 OA
ATOM      9  O   UNL     1       2.336   4.541  20.128  0.00  0.00    +0.000 OA
BRANCH   7  10
ATOM     10  N   UNL     1       2.881   5.076  17.732  0.00  0.00    +0.000 N 
ATOM     11  C   UNL     1       4.070   4.928  16.997  0.00  0.00    +0.000 A 
ATOM     12  C   UNL     1       4.771   3.730  16.995  0.00  0.00    +0.000 A 
ATOM     13  C   UNL     1       5.986   3.684  16.319  0.00  0.00    +0.000 A 
ATOM     14  C   UNL     1       6.448   4.836  15.701  0.00  0.00    +0.000 A 
ATOM     15  F   UNL     1       7.623   4.837  15.061  0.00  0.00    +0.000 F 
ATOM     16  C   UNL     1       5.678   5.988  15.763  0.00  0.00    +0.000 A 
ATOM     17  N   UNL     1       4.481   6.060  16.400  0.00  0.00    +0.000 NA
ATOM     18  H   UNL     1       2.236   5.715  17.273  0.00  0.00    +0.000 HD
ENDBRANCH   7  10
ENDBRANCH   4   7
BRANCH   6  19
ATOM     19  C   UNL     1       0.464   9.097  22.098  0.00  0.00    +0.000 C 
ATOM     20  N   UNL     1      -0.026   9.432  23.092  0.00  0.00    +0.000 NA
ENDBRANCH   6  19
BRANCH   1  21
ATOM     21  O   UNL     1       0.764  10.956  19.931  0.00  0.00    +0.000 OA
BRANCH  21  28
ATOM     22  C   UNL     1      -3.609  13.193  20.838  0.00  0.00    +0.000 C 
ATOM     23  C   UNL     1      -2.681  12.346  20.009  0.00  0.00    +0.000 A 
ATOM     24  C   UNL     1      -3.191  11.744  18.851  0.00  0.00    +0.000 A 
ATOM     25  F   UNL     1      -4.491  11.860  18.545  0.00  0.00    +0.000 F 
ATOM     26  C   UNL     1      -2.379  11.029  17.990  0.00  0.00    +0.000 A 
ATOM     27  C   UNL     1      -1.035  10.876  18.294  0.00  0.00    +0.000 A 
ATOM     28  C   UNL     1      -0.522  11.331  19.523  0.00  0.00    +0.000 A 
ATOM     29  C   UNL     1      -1.317  12.146  20.357  0.00  0.00    +0.000 A 
ATOM     30  C   UNL     1      -0.780  12.761  21.625  0.00  0.00    +0.000 C 
ENDBRANCH  21  28
ENDBRANCH   1  21
TORSDOF 5
ENDMDL
MODEL 9
REMARK VINA RESULT:      -8.0      3.386      4.176
REMARK  Name = 
REMARK  7 active torsions:
REMARK  status: ('A' for Active; 'I' for Inactive)
REMARK    1  A    between atoms: C_1  and  C_2
REMARK    2  A    between atoms: C_7  and  O_8
REMARK    3  A    between atoms: O_8  and  C_9
REMARK    4  A    between atoms: C_12  and  S_13
REMARK    5  A    between atoms: S_13  and  N_16
REMARK    6  A    between atoms: C_25  and  C_26
REMARK    7  A    between atoms: C_28  and  C_29
REMARK                            x       y       z     vdW  Elec       q    Type
REMARK                         _______ _______ _______ _____ _____    ______ ____
ROOT
ATOM      1  C   UNL     1       0.871   9.696  19.208  0.00  0.00    +0.000 A 
ATOM      2  C   UNL     1       1.102   9.341  17.865  0.00  0.00    +0.000 A 
ATOM      3  C   UNL     1       1.981   8.309  17.544  0.00  0.00    +0.000 A 
ATOM      4  C   UNL     1       2.552   7.552  18.566  0.00  0.00    +0.000 A 
ATOM      5  C   UNL     1       2.183   7.775  19.903  0.00  0.00    +0.000 A 
ATOM      6  C   UNL     1       1.354   8.864  20.231  0.00  0.00    +0.000 A 
ENDROOT
BRANCH   4   7
ATOM      7  S   UNL     1       3.712   6.266  18.130  0.00  0.00    +0.000 S 
ATOM      8  O   UNL     1       4.409   6.698  16.934  0.00  0.00    +0.000 OA
ATOM      9  O   UNL     1       4.439   5.926  19.332  0.00  0.00    +0.000 OA
BRANCH   7  10
ATOM     10  N   UNL     1       2.743   4.932  17.765  0.00  0.00    +0.000 N 
ATOM     11  C   UNL     1       2.383   4.136  18.867  0.00  0.00    +0.000 A 
ATOM     12  C   UNL     1       1.281   4.446  19.650  0.00  0.00    +0.000 A 
ATOM     13  C   UNL     1       1.038   3.666  20.777  0.00  0.00    +0.000 A 
ATOM     14  C   UNL     1       1.917   2.635  21.075  0.00  0.00    +0.000 A 
ATOM     15  F   UNL     1       1.730   1.879  22.162  0.00  0.00    +0.000 F 
ATOM     16  C   UNL     1       2.995   2.406  20.233  0.00  0.00    +0.000 A 
ATOM     17  N   UNL     1       3.249   3.138  19.118  0.00  0.00    +0.000 NA
ATOM     18  H   UNL     1       3.163   4.375  17.024  0.00  0.00    +0.000 HD
ENDBRANCH   7  10
ENDBRANCH   4   7
BRANCH   6  19
ATOM     19  C   UNL     1       1.054   9.119  21.612  0.00  0.00    +0.000 C 
ATOM     20  N   UNL     1       0.832   9.291  22.736  0.00  0.00    +0.000 NA
ENDBRANCH   6  19
BRANCH   1  21
ATOM     21  O   UNL     1       0.238  10.901  19.515  0.00  0.00    +0.000 OA
BRANCH  21  28
ATOM     22  C   UNL     1       1.432  15.170  21.816  0.00  0.00    +0.000 C 
ATOM     23  C   UNL     1       1.583  14.147  20.722  0.00  0.00    +0.000 A 
ATOM     24  C   UNL     1       2.475  14.422  19.677  0.00  0.00    +0.000 A 
ATOM     25  F   UNL     1       3.108  15.602  19.621  0.00  0.00    +0.000 F 
ATOM     26  C   UNL     1       2.737  13.493  18.686  0.00  0.00    +0.000 A 
ATOM     27  C   UNL     1       2.079  12.273  18.709  0.00  0.00    +0.000 A 
ATOM     28  C   UNL     1       1.064  12.023  19.651  0.00  0.00    +0.000 A 
ATOM     29  C   UNL     1       0.863  12.921  20.721  0.00  0.00    +0.000 A 
ATOM     30  C   UNL     1      -0.126  12.644  21.825  0.00  0.00    +0.000 C 
ENDBRANCH  21  28
ENDBRANCH   1  21
TORSDOF 5
ENDMDL
