MODEL 1
REMARK VINA RESULT:      -8.4      0.000      0.000
REMARK  Name = 
REMARK  4 active torsions:
REMARK  status: ('A' for Active; 'I' for Inactive)
REMARK    1  A    between atoms: C_1  and  C_2
REMARK    2  A    between atoms: C_2  and  N_3
REMARK    3  A    between atoms: C_6  and  N_7
REMARK    4  A    between atoms: N_7  and  C_8
REMARK                            x       y       z     vdW  Elec       q    Type
REMARK                         _______ _______ _______ _____ _____    ______ ____
ROOT
ATOM      1  C   UNL     1       5.469   4.155  17.922  0.00  0.00    +0.000 A 
ATOM      2  C   UNL     1       5.843   5.015  18.954  0.00  0.00    +0.000 A 
ATOM      3  C   UNL     1       6.837   5.946  18.723  0.00  0.00    +0.000 A 
ATOM      4  N   UNL     1       7.454   6.106  17.541  0.00  0.00    +0.000 NA
ATOM      5  C   UNL     1       7.053   5.337  16.517  0.00  0.00    +0.000 A 
ATOM      6  C   UNL     1       7.640   5.562  15.282  0.00  0.00    +0.000 A 
ATOM      7  C   UNL     1       7.233   4.888  14.125  0.00  0.00    +0.000 A 
ATOM      8  C   UNL     1       7.773   5.215  12.868  0.00  0.00    +0.000 A 
ATOM      9  C   UNL     1       7.313   4.586  11.713  0.00  0.00    +0.000 A 
ATOM     10  C   UNL     1       6.335   3.599  11.803  0.00  0.00    +0.000 A 
ATOM     11  C   UNL     1       5.817   3.239  13.050  0.00  0.00    +0.000 A 
ATOM     12  C   UNL     1       6.242   3.892  14.223  0.00  0.00    +0.000 A 
ATOM     13  C   UNL     1       5.693   3.607  15.485  0.00  0.00    +0.000 A 
ATOM     14  C   UNL     1       6.055   4.346  16.640  0.00  0.00    +0.000 A 
ENDROOT
BRANCH   1  15
ATOM     15  N   UNL     1       4.451   3.192  18.094  0.00  0.00    +0.000 N 
ATOM     16  H   UNL     1       4.853   2.265  17.951  0.00  0.00    +0.000 HD
BRANCH  15  20
ATOM     17  N   UNL     1       1.223   3.328  19.640  0.00  0.00    +0.000 NA
ATOM     18  C   UNL     1       2.031   4.516  19.312  0.00  0.00    +0.000 C 
ATOM     19  C   UNL     1       2.390   4.586  17.830  0.00  0.00    +0.000 C 
ATOM     20  C   UNL     1       3.159   3.340  17.389  0.00  0.00    +0.000 C 
ATOM     21  C   UNL     1       2.272   2.128  17.690  0.00  0.00    +0.000 C 
ATOM     22  C   UNL     1       1.863   2.086  19.164  0.00  0.00    +0.000 C 
BRANCH  17  24
ATOM     23  C   UNL     1       2.202   2.612  21.851  0.00  0.00    +0.000 C 
ATOM     24  C   UNL     1       1.022   3.220  21.100  0.00  0.00    +0.000 C 
ENDBRANCH  17  24
ENDBRANCH  15  20
ENDBRANCH   1  15
TORSDOF 3
ENDMDL
MODEL 2
REMARK VINA RESULT:      -8.4      4.384      7.969
REMARK  Name = 
REMARK  4 active torsions:
REMARK  status: ('A' for Active; 'I' for Inactive)
REMARK    1  A    between atoms: C_1  and  C_2
REMARK    2  A    between atoms: C_2  and  N_3
REMARK    3  A    between atoms: C_6  and  N_7
REMARK    4  A    between atoms: N_7  and  C_8
REMARK                            x       y       z     vdW  Elec       q    Type
REMARK                         _______ _______ _______ _____ _____    ______ ____
ROOT
ATOM      1  C   UNL     1       2.580   6.714  19.616  0.00  0.00    +0.000 A 
ATOM      2  C   UNL     1       3.244   6.756  18.391  0.00  0.00    +0.000 A 
ATOM      3  C   UNL     1       2.997   7.810  17.532  0.00  0.00    +0.000 A 
ATOM      4  N   UNL     1       2.175   8.833  17.817  0.00  0.00    +0.000 NA
ATOM      5  C   UNL     1       1.586   8.844  19.023  0.00  0.00    +0.000 A 
ATOM      6  C   UNL     1       0.801   9.942  19.339  0.00  0.00    +0.000 A 
ATOM      7  C   UNL     1       0.218  10.108  20.601  0.00  0.00    +0.000 A 
ATOM      8  C   UNL     1      -0.483  11.282  20.926  0.00  0.00    +0.000 A 
ATOM      9  C   UNL     1      -1.002  11.468  22.206  0.00  0.00    +0.000 A 
ATOM     10  C   UNL     1      -0.858  10.468  23.164  0.00  0.00    +0.000 A 
ATOM     11  C   UNL     1      -0.194   9.281  22.842  0.00  0.00    +0.000 A 
ATOM     12  C   UNL     1       0.371   9.093  21.566  0.00  0.00    +0.000 A 
ATOM     13  C   UNL     1       1.105   7.944  21.229  0.00  0.00    +0.000 A 
ATOM     14  C   UNL     1       1.756   7.816  19.975  0.00  0.00    +0.000 A 
ENDROOT
BRANCH   1  15
ATOM     15  N   UNL     1       2.801   5.669  20.540  0.00  0.00    +0.000 N 
ATOM     16  H   UNL     1       3.638   5.158  20.258  0.00  0.00    +0.000 HD
BRANCH  15  20
ATOM     17  N   UNL     1       2.469   2.264  19.481  0.00  0.00    +0.000 NA
ATOM     18  C   UNL     1       3.121   2.677  20.736  0.00  0.00    +0.000 C 
ATOM     19  C   UNL     1       2.197   3.500  21.630  0.00  0.00    +0.000 C 
ATOM     20  C   UNL     1       1.700   4.752  20.907  0.00  0.00    +0.000 C 
ATOM     21  C   UNL     1       0.979   4.289  19.638  0.00  0.00    +0.000 C 
ATOM     22  C   UNL     1       1.884   3.416  18.766  0.00  0.00    +0.000 C 
BRANCH  17  24
ATOM     23  C   UNL     1       4.017   2.509  17.505  0.00  0.00    +0.000 C 
ATOM     24  C   UNL     1       3.437   1.601  18.584  0.00  0.00    +0.000 C 
ENDBRANCH  17  24
ENDBRANCH  15  20
ENDBRANCH   1  15
TORSDOF 3
ENDMDL
MODEL 3
REMARK VINA RESULT:      -8.2      0.920      1.060
REMARK  Name = 
REMARK  4 active torsions:
REMARK  status: ('A' for Active; 'I' for Inactive)
REMARK    1  A    between atoms: C_1  and  C_2
REMARK    2  A    between atoms: C_2  and  N_3
REMARK    3  A    between atoms: C_6  and  N_7
REMARK    4  A    between atoms: N_7  and  C_8
REMARK                            x       y       z     vdW  Elec       q    Type
REMARK                         _______ _______ _______ _____ _____    ______ ____
ROOT
ATOM      1  C   UNL     1       5.355   5.076  17.728  0.00  0.00    +0.000 A 
ATOM      2  C   UNL     1       6.020   5.968  18.568  0.00  0.00    +0.000 A 
ATOM      3  C   UNL     1       7.204   6.537  18.138  0.00  0.00    +0.000 A 
ATOM      4  N   UNL     1       7.748   6.312  16.930  0.00  0.00    +0.000 NA
ATOM      5  C   UNL     1       7.080   5.514  16.083  0.00  0.00    +0.000 A 
ATOM      6  C   UNL     1       7.609   5.350  14.812  0.00  0.00    +0.000 A 
ATOM      7  C   UNL     1       6.950   4.620  13.815  0.00  0.00    +0.000 A 
ATOM      8  C   UNL     1       7.458   4.562  12.505  0.00  0.00    +0.000 A 
ATOM      9  C   UNL     1       6.761   3.890  11.503  0.00  0.00    +0.000 A 
ATOM     10  C   UNL     1       5.568   3.239  11.805  0.00  0.00    +0.000 A 
ATOM     11  C   UNL     1       5.072   3.260  13.111  0.00  0.00    +0.000 A 
ATOM     12  C   UNL     1       5.742   3.967  14.127  0.00  0.00    +0.000 A 
ATOM     13  C   UNL     1       5.237   4.068  15.434  0.00  0.00    +0.000 A 
ATOM     14  C   UNL     1       5.870   4.871  16.418  0.00  0.00    +0.000 A 
ENDROOT
BRANCH   1  15
ATOM     15  N   UNL     1       4.135   4.473  18.108  0.00  0.00    +0.000 N 
ATOM     16  H   UNL     1       4.088   3.545  17.687  0.00  0.00    +0.000 HD
BRANCH  15  20
ATOM     17  N   UNL     1       1.178   3.984  20.068  0.00  0.00    +0.000 NA
ATOM     18  C   UNL     1       2.216   4.983  20.377  0.00  0.00    +0.000 C 
ATOM     19  C   UNL     1       2.454   5.953  19.223  0.00  0.00    +0.000 C 
ATOM     20  C   UNL     1       2.861   5.208  17.951  0.00  0.00    +0.000 C 
ATOM     21  C   UNL     1       1.739   4.219  17.624  0.00  0.00    +0.000 C 
ATOM     22  C   UNL     1       1.458   3.281  18.800  0.00  0.00    +0.000 C 
BRANCH  17  24
ATOM     23  C   UNL     1       2.430   2.506  21.683  0.00  0.00    +0.000 C 
ATOM     24  C   UNL     1       1.083   2.979  21.147  0.00  0.00    +0.000 C 
ENDBRANCH  17  24
ENDBRANCH  15  20
ENDBRANCH   1  15
TORSDOF 3
ENDMDL
MODEL 4
REMARK VINA RESULT:      -7.9      2.909      6.981
REMARK  Name = 
REMARK  4 active torsions:
REMARK  status: ('A' for Active; 'I' for Inactive)
REMARK    1  A    between atoms: C_1  and  C_2
REMARK    2  A    between atoms: C_2  and  N_3
REMARK    3  A    between atoms: C_6  and  N_7
REMARK    4  A    between atoms: N_7  and  C_8
REMARK                            x       y       z     vdW  Elec       q    Type
REMARK                         _______ _______ _______ _____ _____    ______ ____
ROOT
ATOM      1  C   UNL     1       2.906   4.400  18.546  0.00  0.00    +0.000 A 
ATOM      2  C   UNL     1       2.681   3.287  19.356  0.00  0.00    +0.000 A 
ATOM      3  C   UNL     1       2.151   3.474  20.618  0.00  0.00    +0.000 A 
ATOM      4  N   UNL     1       1.798   4.672  21.113  0.00  0.00    +0.000 NA
ATOM      5  C   UNL     1       1.939   5.743  20.318  0.00  0.00    +0.000 A 
ATOM      6  C   UNL     1       1.500   6.964  20.808  0.00  0.00    +0.000 A 
ATOM      7  C   UNL     1       1.508   8.129  20.032  0.00  0.00    +0.000 A 
ATOM      8  C   UNL     1       0.957   9.327  20.520  0.00  0.00    +0.000 A 
ATOM      9  C   UNL     1       0.908  10.465  19.716  0.00  0.00    +0.000 A 
ATOM     10  C   UNL     1       1.440  10.428  18.430  0.00  0.00    +0.000 A 
ATOM     11  C   UNL     1       2.023   9.254  17.947  0.00  0.00    +0.000 A 
ATOM     12  C   UNL     1       2.046   8.084  18.731  0.00  0.00    +0.000 A 
ATOM     13  C   UNL     1       2.559   6.867  18.253  0.00  0.00    +0.000 A 
ATOM     14  C   UNL     1       2.480   5.673  19.016  0.00  0.00    +0.000 A 
ENDROOT
BRANCH   1  15
ATOM     15  N   UNL     1       3.433   4.271  17.243  0.00  0.00    +0.000 N 
ATOM     16  H   UNL     1       2.726   3.835  16.649  0.00  0.00    +0.000 HD
BRANCH  15  20
ATOM     17  N   UNL     1       6.530   6.054  17.007  0.00  0.00    +0.000 NA
ATOM     18  C   UNL     1       5.994   5.495  18.261  0.00  0.00    +0.000 C 
ATOM     19  C   UNL     1       5.742   3.992  18.167  0.00  0.00    +0.000 C 
ATOM     20  C   UNL     1       4.767   3.666  17.034  0.00  0.00    +0.000 C 
ATOM     21  C   UNL     1       5.377   4.209  15.739  0.00  0.00    +0.000 C 
ATOM     22  C   UNL     1       5.685   5.704  15.849  0.00  0.00    +0.000 C 
BRANCH  17  24
ATOM     23  C   UNL     1       7.891   8.040  17.759  0.00  0.00    +0.000 C 
ATOM     24  C   UNL     1       6.621   7.527  17.090  0.00  0.00    +0.000 C 
ENDBRANCH  17  24
ENDBRANCH  15  20
ENDBRANCH   1  15
TORSDOF 3
ENDMDL
MODEL 5
REMARK VINA RESULT:      -7.7      2.721      5.271
REMARK  Name = 
REMARK  4 active torsions:
REMARK  status: ('A' for Active; 'I' for Inactive)
REMARK    1  A    between atoms: C_1  and  C_2
REMARK    2  A    between atoms: C_2  and  N_3
REMARK    3  A    between atoms: C_6  and  N_7
REMARK    4  A    between atoms: N_7  and  C_8
REMARK                            x       y       z     vdW  Elec       q    Type
REMARK                         _______ _______ _______ _____ _____    ______ ____
ROOT
ATOM      1  C   UNL     1       5.176   4.757  18.155  0.00  0.00    +0.000 A 
ATOM      2  C   UNL     1       6.112   4.614  17.131  0.00  0.00    +0.000 A 
ATOM      3  C   UNL     1       6.090   5.506  16.076  0.00  0.00    +0.000 A 
ATOM      4  N   UNL     1       5.238   6.540  15.986  0.00  0.00    +0.000 NA
ATOM      5  C   UNL     1       4.381   6.735  17.001  0.00  0.00    +0.000 A 
ATOM      6  C   UNL     1       3.560   7.849  16.937  0.00  0.00    +0.000 A 
ATOM      7  C   UNL     1       2.698   8.206  17.981  0.00  0.00    +0.000 A 
ATOM      8  C   UNL     1       1.957   9.399  17.933  0.00  0.00    +0.000 A 
ATOM      9  C   UNL     1       1.153   9.780  19.006  0.00  0.00    +0.000 A 
ATOM     10  C   UNL     1       1.053   8.955  20.124  0.00  0.00    +0.000 A 
ATOM     11  C   UNL     1       1.756   7.749  20.168  0.00  0.00    +0.000 A 
ATOM     12  C   UNL     1       2.604   7.368  19.109  0.00  0.00    +0.000 A 
ATOM     13  C   UNL     1       3.380   6.198  19.150  0.00  0.00    +0.000 A 
ATOM     14  C   UNL     1       4.307   5.882  18.123  0.00  0.00    +0.000 A 
ENDROOT
BRANCH   1  15
ATOM     15  N   UNL     1       5.158   3.885  19.266  0.00  0.00    +0.000 N 
ATOM     16  H   UNL     1       6.018   4.019  19.798  0.00  0.00    +0.000 HD
BRANCH  15  20
ATOM     17  N   UNL     1       2.155   2.233  20.304  0.00  0.00    +0.000 NA
ATOM     18  C   UNL     1       2.358   2.806  18.962  0.00  0.00    +0.000 C 
ATOM     19  C   UNL     1       3.581   2.223  18.259  0.00  0.00    +0.000 C 
ATOM     20  C   UNL     1       4.851   2.449  19.082  0.00  0.00    +0.000 C 
ATOM     21  C   UNL     1       4.631   1.795  20.448  0.00  0.00    +0.000 C 
ATOM     22  C   UNL     1       3.373   2.336  21.132  0.00  0.00    +0.000 C 
BRANCH  17  24
ATOM     23  C   UNL     1       0.696   4.287  20.419  0.00  0.00    +0.000 C 
ATOM     24  C   UNL     1       1.054   2.927  21.006  0.00  0.00    +0.000 C 
ENDBRANCH  17  24
ENDBRANCH  15  20
ENDBRANCH   1  15
TORSDOF 3
ENDMDL
MODEL 6
REMARK VINA RESULT:      -7.7      3.042      7.257
REMARK  Name = 
REMARK  4 active torsions:
REMARK  status: ('A' for Active; 'I' for Inactive)
REMARK    1  A    between atoms: C_1  and  C_2
REMARK    2  A    between atoms: C_2  and  N_3
REMARK    3  A    between atoms: C_6  and  N_7
REMARK    4  A    between atoms: N_7  and  C_8
REMARK                            x       y       z     vdW  Elec       q    Type
REMARK                         _______ _______ _______ _____ _____    ______ ____
ROOT
ATOM      1  C   UNL     1       3.550   4.754  18.583  0.00  0.00    +0.000 A 
ATOM      2  C   UNL     1       3.416   3.599  19.353  0.00  0.00    +0.000 A 
ATOM      3  C   UNL     1       2.742   3.671  20.557  0.00  0.00    +0.000 A 
ATOM      4  N   UNL     1       2.165   4.790  21.027  0.00  0.00    +0.000 NA
ATOM      5  C   UNL     1       2.221   5.891  20.262  0.00  0.00    +0.000 A 
ATOM      6  C   UNL     1       1.556   7.018  20.719  0.00  0.00    +0.000 A 
ATOM      7  C   UNL     1       1.464   8.192  19.961  0.00  0.00    +0.000 A 
ATOM      8  C   UNL     1       0.693   9.281  20.404  0.00  0.00    +0.000 A 
ATOM      9  C   UNL     1       0.552  10.420  19.612  0.00  0.00    +0.000 A 
ATOM     10  C   UNL     1       1.208  10.497  18.387  0.00  0.00    +0.000 A 
ATOM     11  C   UNL     1       2.007   9.436  17.953  0.00  0.00    +0.000 A 
ATOM     12  C   UNL     1       2.128   8.262  18.721  0.00  0.00    +0.000 A 
ATOM     13  C   UNL     1       2.865   7.149  18.284  0.00  0.00    +0.000 A 
ATOM     14  C   UNL     1       2.892   5.936  19.021  0.00  0.00    +0.000 A 
ENDROOT
BRANCH   1  15
ATOM     15  N   UNL     1       4.217   4.740  17.338  0.00  0.00    +0.000 N 
ATOM     16  H   UNL     1       4.256   3.776  17.003  0.00  0.00    +0.000 HD
BRANCH  15  20
ATOM     17  N   UNL     1       6.345   4.565  14.463  0.00  0.00    +0.000 NA
ATOM     18  C   UNL     1       5.330   5.613  14.675  0.00  0.00    +0.000 C 
ATOM     19  C   UNL     1       5.542   6.372  15.982  0.00  0.00    +0.000 C 
ATOM     20  C   UNL     1       5.519   5.424  17.182  0.00  0.00    +0.000 C 
ATOM     21  C   UNL     1       6.619   4.382  16.960  0.00  0.00    +0.000 C 
ATOM     22  C   UNL     1       6.443   3.658  15.623  0.00  0.00    +0.000 C 
BRANCH  17  24
ATOM     23  C   UNL     1       7.014   3.911  12.121  0.00  0.00    +0.000 C 
ATOM     24  C   UNL     1       6.020   3.760  13.267  0.00  0.00    +0.000 C 
ENDBRANCH  17  24
ENDBRANCH  15  20
ENDBRANCH   1  15
TORSDOF 3
ENDMDL
MODEL 7
REMARK VINA RESULT:      -7.6      2.602      6.857
REMARK  Name = 
REMARK  4 active torsions:
REMARK  status: ('A' for Active; 'I' for Inactive)
REMARK    1  A    between atoms: C_1  and  C_2
REMARK    2  A    between atoms: C_2  and  N_3
REMARK    3  A    between atoms: C_6  and  N_7
REMARK    4  A    between atoms: N_7  and  C_8
REMARK                            x       y       z     vdW  Elec       q    Type
REMARK                         _______ _______ _______ _____ _____    ______ ____
ROOT
ATOM      1  C   UNL     1       3.934   4.131  17.956  0.00  0.00    +0.000 A 
ATOM      2  C   UNL     1       3.900   2.893  18.597  0.00  0.00    +0.000 A 
ATOM      3  C   UNL     1       3.344   2.807  19.858  0.00  0.00    +0.000 A 
ATOM      4  N   UNL     1       2.792   3.846  20.506  0.00  0.00    +0.000 NA
ATOM      5  C   UNL     1       2.750   5.028  19.871  0.00  0.00    +0.000 A 
ATOM      6  C   UNL     1       2.109   6.075  20.515  0.00  0.00    +0.000 A 
ATOM      7  C   UNL     1       1.919   7.323  19.910  0.00  0.00    +0.000 A 
ATOM      8  C   UNL     1       1.171   8.330  20.545  0.00  0.00    +0.000 A 
ATOM      9  C   UNL     1       0.931   9.545  19.907  0.00  0.00    +0.000 A 
ATOM     10  C   UNL     1       1.463   9.781  18.642  0.00  0.00    +0.000 A 
ATOM     11  C   UNL     1       2.238   8.802  18.016  0.00  0.00    +0.000 A 
ATOM     12  C   UNL     1       2.458   7.553  18.629  0.00  0.00    +0.000 A 
ATOM     13  C   UNL     1       3.173   6.520  18.000  0.00  0.00    +0.000 A 
ATOM     14  C   UNL     1       3.296   5.234  18.587  0.00  0.00    +0.000 A 
ENDROOT
BRANCH   1  15
ATOM     15  N   UNL     1       4.477   4.278  16.661  0.00  0.00    +0.000 N 
ATOM     16  H   UNL     1       3.869   3.796  15.997  0.00  0.00    +0.000 HD
BRANCH  15  20
ATOM     17  N   UNL     1       7.194   6.594  16.942  0.00  0.00    +0.000 NA
ATOM     18  C   UNL     1       6.749   5.709  18.033  0.00  0.00    +0.000 C 
ATOM     19  C   UNL     1       6.781   4.235  17.637  0.00  0.00    +0.000 C 
ATOM     20  C   UNL     1       5.904   3.974  16.411  0.00  0.00    +0.000 C 
ATOM     21  C   UNL     1       6.425   4.864  15.281  0.00  0.00    +0.000 C 
ATOM     22  C   UNL     1       6.449   6.338  15.694  0.00  0.00    +0.000 C 
BRANCH  17  24
ATOM     23  C   UNL     1       8.237   8.660  17.945  0.00  0.00    +0.000 C 
ATOM     24  C   UNL     1       7.010   8.012  17.313  0.00  0.00    +0.000 C 
ENDBRANCH  17  24
ENDBRANCH  15  20
ENDBRANCH   1  15
TORSDOF 3
ENDMDL
MODEL 8
REMARK VINA RESULT:      -7.6      0.945      1.300
REMARK  Name = 
REMARK  4 active torsions:
REMARK  status: ('A' for Active; 'I' for Inactive)
REMARK    1  A    between atoms: C_1  and  C_2
REMARK    2  A    between atoms: C_2  and  N_3
REMARK    3  A    between atoms: C_6  and  N_7
REMARK    4  A    between atoms: N_7  and  C_8
REMARK                            x       y       z     vdW  Elec       q    Type
REMARK                         _______ _______ _______ _____ _____    ______ ____
ROOT
ATOM      1  C   UNL     1       5.108   4.662  17.538  0.00  0.00    +0.000 A 
ATOM      2  C   UNL     1       5.591   5.500  18.542  0.00  0.00    +0.000 A 
ATOM      3  C   UNL     1       6.762   6.201  18.323  0.00  0.00    +0.000 A 
ATOM      4  N   UNL     1       7.458   6.157  17.175  0.00  0.00    +0.000 NA
ATOM      5  C   UNL     1       6.965   5.414  16.173  0.00  0.00    +0.000 A 
ATOM      6  C   UNL     1       7.649   5.436  14.967  0.00  0.00    +0.000 A 
ATOM      7  C   UNL     1       7.175   4.779  13.825  0.00  0.00    +0.000 A 
ATOM      8  C   UNL     1       7.833   4.908  12.590  0.00  0.00    +0.000 A 
ATOM      9  C   UNL     1       7.318   4.305  11.444  0.00  0.00    +0.000 A 
ATOM     10  C   UNL     1       6.159   3.537  11.526  0.00  0.00    +0.000 A 
ATOM     11  C   UNL     1       5.516   3.371  12.756  0.00  0.00    +0.000 A 
ATOM     12  C   UNL     1       6.002   4.006  13.916  0.00  0.00    +0.000 A 
ATOM     13  C   UNL     1       5.343   3.918  15.153  0.00  0.00    +0.000 A 
ATOM     14  C   UNL     1       5.785   4.648  16.287  0.00  0.00    +0.000 A 
ENDROOT
BRANCH   1  15
ATOM     15  N   UNL     1       3.910   3.932  17.698  0.00  0.00    +0.000 N 
ATOM     16  H   UNL     1       3.311   4.432  18.355  0.00  0.00    +0.000 HD
BRANCH  15  20
ATOM     17  N   UNL     1       2.014   2.251  20.229  0.00  0.00    +0.000 NA
ATOM     18  C   UNL     1       1.577   2.391  18.829  0.00  0.00    +0.000 C 
ATOM     19  C   UNL     1       2.588   1.812  17.843  0.00  0.00    +0.000 C 
ATOM     20  C   UNL     1       3.954   2.483  17.995  0.00  0.00    +0.000 C 
ATOM     21  C   UNL     1       4.406   2.273  19.442  0.00  0.00    +0.000 C 
ATOM     22  C   UNL     1       3.369   2.800  20.435  0.00  0.00    +0.000 C 
BRANCH  17  24
ATOM     23  C   UNL     1       0.895   4.432  20.824  0.00  0.00    +0.000 C 
ATOM     24  C   UNL     1       1.083   2.952  21.138  0.00  0.00    +0.000 C 
ENDBRANCH  17  24
ENDBRANCH  15  20
ENDBRANCH   1  15
TORSDOF 3
ENDMDL
MODEL 9
REMARK VINA RESULT:      -7.4      1.960      6.839
REMARK  Name = 
REMARK  4 active torsions:
REMARK  status: ('A' for Active; 'I' for Inactive)
REMARK    1  A    between atoms: C_1  and  C_2
REMARK    2  A    between atoms: C_2  and  N_3
REMARK    3  A    between atoms: C_6  and  N_7
REMARK    4  A    between atoms: N_7  and  C_8
REMARK                            x       y       z     vdW  Elec       q    Type
REMARK                         _______ _______ _______ _____ _____    ______ ____
ROOT
ATOM      1  C   UNL     1       6.337   4.286  16.627  0.00  0.00    +0.000 A 
ATOM      2  C   UNL     1       7.570   4.730  17.104  0.00  0.00    +0.000 A 
ATOM      3  C   UNL     1       7.665   5.159  18.414  0.00  0.00    +0.000 A 
ATOM      4  N   UNL     1       6.642   5.143  19.284  0.00  0.00    +0.000 NA
ATOM      5  C   UNL     1       5.469   4.648  18.861  0.00  0.00    +0.000 A 
ATOM      6  C   UNL     1       4.442   4.563  19.788  0.00  0.00    +0.000 A 
ATOM      7  C   UNL     1       3.207   3.976  19.486  0.00  0.00    +0.000 A 
ATOM      8  C   UNL     1       2.224   3.808  20.476  0.00  0.00    +0.000 A 
ATOM      9  C   UNL     1       1.024   3.161  20.183  0.00  0.00    +0.000 A 
ATOM     10  C   UNL     1       0.779   2.708  18.890  0.00  0.00    +0.000 A 
ATOM     11  C   UNL     1       1.734   2.902  17.888  0.00  0.00    +0.000 A 
ATOM     12  C   UNL     1       2.968   3.518  18.176  0.00  0.00    +0.000 A 
ATOM     13  C   UNL     1       3.978   3.666  17.212  0.00  0.00    +0.000 A 
ATOM     14  C   UNL     1       5.253   4.193  17.543  0.00  0.00    +0.000 A 
ENDROOT
BRANCH   1  15
ATOM     15  N   UNL     1       6.181   3.823  15.302  0.00  0.00    +0.000 N 
ATOM     16  H   UNL     1       6.998   3.262  15.056  0.00  0.00    +0.000 HD
BRANCH  15  20
ATOM     17  N   UNL     1       6.704   3.292  11.799  0.00  0.00    +0.000 NA
ATOM     18  C   UNL     1       5.456   2.954  12.507  0.00  0.00    +0.000 C 
ATOM     19  C   UNL     1       4.843   4.159  13.215  0.00  0.00    +0.000 C 
ATOM     20  C   UNL     1       5.823   4.766  14.220  0.00  0.00    +0.000 C 
ATOM     21  C   UNL     1       7.084   5.159  13.446  0.00  0.00    +0.000 C 
ATOM     22  C   UNL     1       7.670   3.965  12.689  0.00  0.00    +0.000 C 
BRANCH  17  24
ATOM     23  C   UNL     1       6.380   0.913  11.027  0.00  0.00    +0.000 C 
ATOM     24  C   UNL     1       7.340   2.075  11.253  0.00  0.00    +0.000 C 
ENDBRANCH  17  24
ENDBRANCH  15  20
ENDBRANCH   1  15
TORSDOF 3
ENDMDL
