MODEL 1
REMARK VINA RESULT:      -9.2      0.000      0.000
REMARK  Name = 
REMARK  8 active torsions:
REMARK  status: ('A' for Active; 'I' for Inactive)
REMARK    1  A    between atoms: C_1  and  C_2
REMARK    2  A    between atoms: C_2  and  C_3
REMARK    3  A    between atoms: C_6  and  C_7
REMARK    4  A    between atoms: C_7  and  O_8
REMARK    5  A    between atoms: O_8  and  C_9
REMARK    6  A    between atoms: C_9  and  C_11
REMARK    7  A    between atoms: C_11  and  C_12
REMARK    8  A    between atoms: C_20  and  N_21
REMARK                            x       y       z     vdW  Elec       q    Type
REMARK                         _______ _______ _______ _____ _____    ______ ____
ROOT
ATOM      1  C   UNL     1       2.588   2.446  21.446  0.00  0.00    +0.000 C 
ATOM      2  C   UNL     1       1.964   3.276  20.335  0.00  0.00    +0.000 C 
ATOM      3  C   UNL     1       0.627   2.672  19.899  0.00  0.00    +0.000 C 
ATOM      4  O   UNL     1       2.846   3.338  19.214  0.00  0.00    +0.000 OA
ATOM      5  C   UNL     1       2.696   4.653  18.651  0.00  0.00    +0.000 C 
ATOM      6  C   UNL     1       4.038   5.394  18.587  0.00  0.00    +0.000 C 
ATOM      7  O   UNL     1       3.988   6.489  19.527  0.00  0.00    +0.000 OA
ATOM      8  C   UNL     1       2.619   6.705  19.913  0.00  0.00    +0.000 C 
ATOM      9  C   UNL     1       1.847   5.426  19.634  0.00  0.00    +0.000 C 
ATOM     10  O   UNL     1       1.763   4.605  20.809  0.00  0.00    +0.000 OA
ENDROOT
BRANCH   8  11
ATOM     11  N   UNL     1       2.128   7.886  19.226  0.00  0.00    +0.000 N 
ATOM     12  C   UNL     1       2.424   8.225  17.930  0.00  0.00    +0.000 A 
ATOM     13  N   UNL     1       1.894   9.381  17.590  0.00  0.00    +0.000 NA
ATOM     14  C   UNL     1       1.171   9.778  18.695  0.00  0.00    +0.000 A 
ATOM     15  C   UNL     1       0.361  10.897  18.958  0.00  0.00    +0.000 A 
ATOM     16  N   UNL     1       0.163  11.927  18.049  0.00  0.00    +0.000 N 
ATOM     17  N   UNL     1      -0.242  10.994  20.165  0.00  0.00    +0.000 NA
ATOM     18  C   UNL     1      -0.032  10.018  21.068  0.00  0.00    +0.000 A 
ATOM     19  N   UNL     1       0.756   8.933  20.947  0.00  0.00    +0.000 NA
ATOM     20  C   UNL     1       1.313   8.867  19.727  0.00  0.00    +0.000 A 
ATOM     21  H   UNL     1       0.900  11.988  17.355  0.00  0.00    +0.000 HD
ATOM     22  H   UNL     1      -0.110  12.783  18.515  0.00  0.00    +0.000 HD
ENDBRANCH   8  11
BRANCH   6  23
ATOM     23  C   UNL     1       4.382   5.982  17.207  0.00  0.00    +0.000 C 
BRANCH  23  24
ATOM     24  O   UNL     1       5.790   6.059  16.961  0.00  0.00    +0.000 OA
BRANCH  24  25
ATOM     25  C   UNL     1       6.405   4.856  16.790  0.00  0.00    +0.000 C 
ATOM     26  O   UNL     1       7.403   4.485  17.393  0.00  0.00    +0.000 OA
BRANCH  25  27
ATOM     27  C   UNL     1       5.679   4.026  15.762  0.00  0.00    +0.000 C 
BRANCH  27  28
ATOM     28  C   UNL     1       6.248   4.170  14.376  0.00  0.00    +0.000 A 
ATOM     29  C   UNL     1       5.760   3.387  13.316  0.00  0.00    +0.000 A 
ATOM     30  C   UNL     1       6.291   3.514  12.030  0.00  0.00    +0.000 A 
ATOM     31  C   UNL     1       7.323   4.420  11.792  0.00  0.00    +0.000 A 
ATOM     32  C   UNL     1       7.810   5.188  12.840  0.00  0.00    +0.000 A 
ATOM     33  F   UNL     1       8.808   6.056  12.613  0.00  0.00    +0.000 F 
ATOM     34  C   UNL     1       7.288   5.074  14.124  0.00  0.00    +0.000 A 
ENDBRANCH  27  28
ENDBRANCH  25  27
ENDBRANCH  24  25
ENDBRANCH  23  24
ENDBRANCH   6  23
TORSDOF 6
ENDMDL
MODEL 2
REMARK VINA RESULT:      -9.0      0.908      1.244
REMARK  Name = 
REMARK  8 active torsions:
REMARK  status: ('A' for Active; 'I' for Inactive)
REMARK    1  A    between atoms: C_1  and  C_2
REMARK    2  A    between atoms: C_2  and  C_3
REMARK    3  A    between atoms: C_6  and  C_7
REMARK    4  A    between atoms: C_7  and  O_8
REMARK    5  A    between atoms: O_8  and  C_9
REMARK    6  A    between atoms: C_9  and  C_11
REMARK    7  A    between atoms: C_11  and  C_12
REMARK    8  A    between atoms: C_20  and  N_21
REMARK                            x       y       z     vdW  Elec       q    Type
REMARK                         _______ _______ _______ _____ _____    ______ ____
ROOT
ATOM      1  C   UNL     1       2.379   2.282  20.974  0.00  0.00    +0.000 C 
ATOM      2  C   UNL     1       1.875   3.195  19.867  0.00  0.00    +0.000 C 
ATOM      3  C   UNL     1       0.596   2.629  19.246  0.00  0.00    +0.000 C 
ATOM      4  O   UNL     1       2.873   3.337  18.856  0.00  0.00    +0.000 OA
ATOM      5  C   UNL     1       2.779   4.690  18.379  0.00  0.00    +0.000 C 
ATOM      6  C   UNL     1       4.117   5.428  18.515  0.00  0.00    +0.000 C 
ATOM      7  O   UNL     1       3.960   6.451  19.524  0.00  0.00    +0.000 OA
ATOM      8  C   UNL     1       2.557   6.643  19.774  0.00  0.00    +0.000 C 
ATOM      9  C   UNL     1       1.826   5.391  19.319  0.00  0.00    +0.000 C 
ATOM     10  O   UNL     1       1.618   4.486  20.413  0.00  0.00    +0.000 OA
ENDROOT
BRANCH   8  11
ATOM     11  N   UNL     1       2.138   7.874  19.127  0.00  0.00    +0.000 N 
ATOM     12  C   UNL     1       2.432   8.224  17.834  0.00  0.00    +0.000 A 
ATOM     13  N   UNL     1       1.979   9.424  17.534  0.00  0.00    +0.000 NA
ATOM     14  C   UNL     1       1.309   9.842  18.664  0.00  0.00    +0.000 A 
ATOM     15  C   UNL     1       0.587  11.008  18.972  0.00  0.00    +0.000 A 
ATOM     16  N   UNL     1       0.444  12.073  18.093  0.00  0.00    +0.000 N 
ATOM     17  N   UNL     1       0.016  11.116  20.194  0.00  0.00    +0.000 NA
ATOM     18  C   UNL     1       0.174  10.104  21.068  0.00  0.00    +0.000 A 
ATOM     19  N   UNL     1       0.880   8.970  20.902  0.00  0.00    +0.000 NA
ATOM     20  C   UNL     1       1.406   8.896  19.670  0.00  0.00    +0.000 A 
ATOM     21  H   UNL     1       1.170  12.100  17.385  0.00  0.00    +0.000 HD
ATOM     22  H   UNL     1       0.243  12.934  18.586  0.00  0.00    +0.000 HD
ENDBRANCH   8  11
BRANCH   6  23
ATOM     23  C   UNL     1       4.605   6.115  17.228  0.00  0.00    +0.000 C 
BRANCH  23  24
ATOM     24  O   UNL     1       6.029   6.090  17.080  0.00  0.00    +0.000 OA
BRANCH  24  25
ATOM     25  C   UNL     1       6.558   4.852  16.874  0.00  0.00    +0.000 C 
ATOM     26  O   UNL     1       7.572   4.423  17.408  0.00  0.00    +0.000 OA
BRANCH  25  27
ATOM     27  C   UNL     1       5.713   4.064  15.904  0.00  0.00    +0.000 C 
BRANCH  27  28
ATOM     28  C   UNL     1       6.225   4.124  14.490  0.00  0.00    +0.000 A 
ATOM     29  C   UNL     1       7.231   5.037  14.131  0.00  0.00    +0.000 A 
ATOM     30  C   UNL     1       7.703   5.100  12.817  0.00  0.00    +0.000 A 
ATOM     31  C   UNL     1       7.167   4.256  11.846  0.00  0.00    +0.000 A 
ATOM     32  C   UNL     1       6.169   3.359  12.199  0.00  0.00    +0.000 A 
ATOM     33  F   UNL     1       5.648   2.552  11.263  0.00  0.00    +0.000 F 
ATOM     34  C   UNL     1       5.692   3.285  13.504  0.00  0.00    +0.000 A 
ENDBRANCH  27  28
ENDBRANCH  25  27
ENDBRANCH  24  25
ENDBRANCH  23  24
ENDBRANCH   6  23
TORSDOF 6
ENDMDL
MODEL 3
REMARK VINA RESULT:      -8.7      4.974      7.603
REMARK  Name = 
REMARK  8 active torsions:
REMARK  status: ('A' for Active; 'I' for Inactive)
REMARK    1  A    between atoms: C_1  and  C_2
REMARK    2  A    between atoms: C_2  and  C_3
REMARK    3  A    between atoms: C_6  and  C_7
REMARK    4  A    between atoms: C_7  and  O_8
REMARK    5  A    between atoms: O_8  and  C_9
REMARK    6  A    between atoms: C_9  and  C_11
REMARK    7  A    between atoms: C_11  and  C_12
REMARK    8  A    between atoms: C_20  and  N_21
REMARK                            x       y       z     vdW  Elec       q    Type
REMARK                         _______ _______ _______ _____ _____    ______ ____
ROOT
ATOM      1  C   UNL     1       7.280   3.421  12.709  0.00  0.00    +0.000 C 
ATOM      2  C   UNL     1       6.156   4.034  13.529  0.00  0.00    +0.000 C 
ATOM      3  C   UNL     1       4.869   4.109  12.705  0.00  0.00    +0.000 C 
ATOM      4  O   UNL     1       6.521   5.345  13.961  0.00  0.00    +0.000 OA
ATOM      5  C   UNL     1       5.961   5.512  15.274  0.00  0.00    +0.000 C 
ATOM      6  C   UNL     1       7.040   5.865  16.306  0.00  0.00    +0.000 C 
ATOM      7  O   UNL     1       7.179   4.744  17.207  0.00  0.00    +0.000 OA
ATOM      8  C   UNL     1       6.045   3.874  17.040  0.00  0.00    +0.000 C 
ATOM      9  C   UNL     1       5.440   4.151  15.675  0.00  0.00    +0.000 C 
ATOM     10  O   UNL     1       5.941   3.235  14.690  0.00  0.00    +0.000 OA
ENDROOT
BRANCH   8  11
ATOM     11  N   UNL     1       5.147   4.068  18.166  0.00  0.00    +0.000 N 
ATOM     12  C   UNL     1       5.283   5.040  19.123  0.00  0.00    +0.000 A 
ATOM     13  N   UNL     1       4.363   4.940  20.060  0.00  0.00    +0.000 NA
ATOM     14  C   UNL     1       3.559   3.895  19.657  0.00  0.00    +0.000 A 
ATOM     15  C   UNL     1       2.400   3.313  20.200  0.00  0.00    +0.000 A 
ATOM     16  N   UNL     1       1.828   3.725  21.396  0.00  0.00    +0.000 N 
ATOM     17  N   UNL     1       1.819   2.284  19.542  0.00  0.00    +0.000 NA
ATOM     18  C   UNL     1       2.383   1.854  18.397  0.00  0.00    +0.000 A 
ATOM     19  N   UNL     1       3.511   2.298  17.812  0.00  0.00    +0.000 NA
ATOM     20  C   UNL     1       4.038   3.332  18.486  0.00  0.00    +0.000 A 
ATOM     21  H   UNL     1       2.482   4.208  22.001  0.00  0.00    +0.000 HD
ATOM     22  H   UNL     1       1.267   2.990  21.809  0.00  0.00    +0.000 HD
ENDBRANCH   8  11
BRANCH   6  23
ATOM     23  C   UNL     1       6.734   7.109  17.157  0.00  0.00    +0.000 C 
BRANCH  23  24
ATOM     24  O   UNL     1       7.625   8.201  16.902  0.00  0.00    +0.000 OA
BRANCH  24  25
ATOM     25  C   UNL     1       8.203   8.735  18.013  0.00  0.00    +0.000 C 
ATOM     26  O   UNL     1       8.700   8.090  18.926  0.00  0.00    +0.000 OA
BRANCH  25  27
ATOM     27  C   UNL     1       8.166  10.242  17.963  0.00  0.00    +0.000 C 
BRANCH  27  28
ATOM     28  C   UNL     1       9.337  10.885  18.658  0.00  0.00    +0.000 A 
ATOM     29  C   UNL     1      10.555  11.073  17.983  0.00  0.00    +0.000 A 
ATOM     30  C   UNL     1      11.645  11.664  18.627  0.00  0.00    +0.000 A 
ATOM     31  C   UNL     1      11.531  12.064  19.957  0.00  0.00    +0.000 A 
ATOM     32  C   UNL     1      10.331  11.872  20.626  0.00  0.00    +0.000 A 
ATOM     33  F   UNL     1      10.223  12.251  21.908  0.00  0.00    +0.000 F 
ATOM     34  C   UNL     1       9.237  11.288  19.995  0.00  0.00    +0.000 A 
ENDBRANCH  27  28
ENDBRANCH  25  27
ENDBRANCH  24  25
ENDBRANCH  23  24
ENDBRANCH   6  23
TORSDOF 6
ENDMDL
MODEL 4
REMARK VINA RESULT:      -8.6      4.211      8.216
REMARK  Name = 
REMARK  8 active torsions:
REMARK  status: ('A' for Active; 'I' for Inactive)
REMARK    1  A    between atoms: C_1  and  C_2
REMARK    2  A    between atoms: C_2  and  C_3
REMARK    3  A    between atoms: C_6  and  C_7
REMARK    4  A    between atoms: C_7  and  O_8
REMARK    5  A    between atoms: O_8  and  C_9
REMARK    6  A    between atoms: C_9  and  C_11
REMARK    7  A    between atoms: C_11  and  C_12
REMARK    8  A    between atoms: C_20  and  N_21
REMARK                            x       y       z     vdW  Elec       q    Type
REMARK                         _______ _______ _______ _____ _____    ______ ____
ROOT
ATOM      1  C   UNL     1       1.906   1.790  19.867  0.00  0.00    +0.000 C 
ATOM      2  C   UNL     1       3.213   2.560  19.753  0.00  0.00    +0.000 C 
ATOM      3  C   UNL     1       4.197   2.110  20.835  0.00  0.00    +0.000 C 
ATOM      4  O   UNL     1       2.971   3.961  19.883  0.00  0.00    +0.000 OA
ATOM      5  C   UNL     1       3.891   4.617  18.994  0.00  0.00    +0.000 C 
ATOM      6  C   UNL     1       3.160   5.513  17.987  0.00  0.00    +0.000 C 
ATOM      7  O   UNL     1       3.312   4.925  16.676  0.00  0.00    +0.000 OA
ATOM      8  C   UNL     1       4.359   3.940  16.729  0.00  0.00    +0.000 C 
ATOM      9  C   UNL     1       4.529   3.516  18.178  0.00  0.00    +0.000 C 
ATOM     10  O   UNL     1       3.773   2.330  18.463  0.00  0.00    +0.000 OA
ENDROOT
BRANCH   8  11
ATOM     11  N   UNL     1       5.546   4.497  16.104  0.00  0.00    +0.000 N 
ATOM     12  C   UNL     1       6.481   5.274  16.739  0.00  0.00    +0.000 A 
ATOM     13  N   UNL     1       7.416   5.693  15.913  0.00  0.00    +0.000 NA
ATOM     14  C   UNL     1       7.107   5.109  14.702  0.00  0.00    +0.000 A 
ATOM     15  C   UNL     1       7.726   5.135  13.440  0.00  0.00    +0.000 A 
ATOM     16  N   UNL     1       8.869   5.873  13.166  0.00  0.00    +0.000 N 
ATOM     17  N   UNL     1       7.173   4.426  12.430  0.00  0.00    +0.000 NA
ATOM     18  C   UNL     1       6.046   3.732  12.674  0.00  0.00    +0.000 A 
ATOM     19  N   UNL     1       5.342   3.672  13.820  0.00  0.00    +0.000 NA
ATOM     20  C   UNL     1       5.940   4.370  14.798  0.00  0.00    +0.000 A 
ATOM     21  H   UNL     1       9.009   6.641  13.814  0.00  0.00    +0.000 HD
ATOM     22  H   UNL     1       8.948   6.078  12.178  0.00  0.00    +0.000 HD
ENDBRANCH   8  11
BRANCH   6  23
ATOM     23  C   UNL     1       3.685   6.957  17.912  0.00  0.00    +0.000 C 
BRANCH  23  24
ATOM     24  O   UNL     1       2.697   7.894  17.470  0.00  0.00    +0.000 OA
BRANCH  24  25
ATOM     25  C   UNL     1       2.096   8.601  18.467  0.00  0.00    +0.000 C 
ATOM     26  O   UNL     1       1.870   8.176  19.592  0.00  0.00    +0.000 OA
BRANCH  25  27
ATOM     27  C   UNL     1       1.758   9.996  18.005  0.00  0.00    +0.000 C 
BRANCH  27  28
ATOM     28  C   UNL     1       0.350  10.406  18.344  0.00  0.00    +0.000 A 
ATOM     29  C   UNL     1       0.101  11.323  19.379  0.00  0.00    +0.000 A 
ATOM     30  C   UNL     1      -1.206  11.700  19.700  0.00  0.00    +0.000 A 
ATOM     31  C   UNL     1      -2.278  11.156  18.996  0.00  0.00    +0.000 A 
ATOM     32  C   UNL     1      -2.033  10.244  17.979  0.00  0.00    +0.000 A 
ATOM     33  F   UNL     1      -3.065   9.715  17.305  0.00  0.00    +0.000 F 
ATOM     34  C   UNL     1      -0.737   9.863  17.647  0.00  0.00    +0.000 A 
ENDBRANCH  27  28
ENDBRANCH  25  27
ENDBRANCH  24  25
ENDBRANCH  23  24
ENDBRANCH   6  23
TORSDOF 6
ENDMDL
MODEL 5
REMARK VINA RESULT:      -8.4      1.663      2.005
REMARK  Name = 
REMARK  8 active torsions:
REMARK  status: ('A' for Active; 'I' for Inactive)
REMARK    1  A    between atoms: C_1  and  C_2
REMARK    2  A    between atoms: C_2  and  C_3
REMARK    3  A    between atoms: C_6  and  C_7
REMARK    4  A    between atoms: C_7  and  O_8
REMARK    5  A    between atoms: O_8  and  C_9
REMARK    6  A    between atoms: C_9  and  C_11
REMARK    7  A    between atoms: C_11  and  C_12
REMARK    8  A    between atoms: C_20  and  N_21
REMARK                            x       y       z     vdW  Elec       q    Type
REMARK                         _______ _______ _______ _____ _____    ______ ____
ROOT
ATOM      1  C   UNL     1       3.949   1.788  20.785  0.00  0.00    +0.000 C 
ATOM      2  C   UNL     1       3.183   2.601  19.753  0.00  0.00    +0.000 C 
ATOM      3  C   UNL     1       1.898   1.876  19.344  0.00  0.00    +0.000 C 
ATOM      4  O   UNL     1       3.994   2.819  18.598  0.00  0.00    +0.000 OA
ATOM      5  C   UNL     1       3.676   4.136  18.119  0.00  0.00    +0.000 C 
ATOM      6  C   UNL     1       4.925   5.023  18.037  0.00  0.00    +0.000 C 
ATOM      7  O   UNL     1       4.804   6.056  19.040  0.00  0.00    +0.000 OA
ATOM      8  C   UNL     1       3.442   6.099  19.499  0.00  0.00    +0.000 C 
ATOM      9  C   UNL     1       2.799   4.759  19.182  0.00  0.00    +0.000 C 
ATOM     10  O   UNL     1       2.864   3.874  20.310  0.00  0.00    +0.000 OA
ENDROOT
BRANCH   8  11
ATOM     11  N   UNL     1       2.792   7.253  18.903  0.00  0.00    +0.000 N 
ATOM     12  C   UNL     1       2.968   7.676  17.610  0.00  0.00    +0.000 A 
ATOM     13  N   UNL     1       2.305   8.787  17.361  0.00  0.00    +0.000 NA
ATOM     14  C   UNL     1       1.619   9.058  18.527  0.00  0.00    +0.000 A 
ATOM     15  C   UNL     1       0.721  10.075  18.894  0.00  0.00    +0.000 A 
ATOM     16  N   UNL     1       0.362  11.118  18.052  0.00  0.00    +0.000 N 
ATOM     17  N   UNL     1       0.191  10.056  20.139  0.00  0.00    +0.000 NA
ATOM     18  C   UNL     1       0.556   9.068  20.977  0.00  0.00    +0.000 A 
ATOM     19  N   UNL     1       1.438   8.076  20.754  0.00  0.00    +0.000 NA
ATOM     20  C   UNL     1       1.918   8.121  19.501  0.00  0.00    +0.000 A 
ATOM     21  H   UNL     1       1.043  11.286  17.319  0.00  0.00    +0.000 HD
ATOM     22  H   UNL     1       0.036  11.921  18.576  0.00  0.00    +0.000 HD
ENDBRANCH   8  11
BRANCH   6  23
ATOM     23  C   UNL     1       5.132   5.716  16.679  0.00  0.00    +0.000 C 
BRANCH  23  24
ATOM     24  O   UNL     1       5.398   4.799  15.612  0.00  0.00    +0.000 OA
BRANCH  24  25
ATOM     25  C   UNL     1       6.708   4.711  15.250  0.00  0.00    +0.000 C 
ATOM     26  O   UNL     1       7.620   4.368  15.990  0.00  0.00    +0.000 OA
BRANCH  25  27
ATOM     27  C   UNL     1       6.887   5.077  13.798  0.00  0.00    +0.000 C 
BRANCH  27  28
ATOM     28  C   UNL     1       6.403   4.009  12.854  0.00  0.00    +0.000 A 
ATOM     29  C   UNL     1       7.308   3.111  12.264  0.00  0.00    +0.000 A 
ATOM     30  C   UNL     1       6.861   2.123  11.383  0.00  0.00    +0.000 A 
ATOM     31  C   UNL     1       5.505   2.029  11.074  0.00  0.00    +0.000 A 
ATOM     32  C   UNL     1       4.612   2.921  11.651  0.00  0.00    +0.000 A 
ATOM     33  F   UNL     1       3.308   2.835  11.350  0.00  0.00    +0.000 F 
ATOM     34  C   UNL     1       5.043   3.907  12.533  0.00  0.00    +0.000 A 
ENDBRANCH  27  28
ENDBRANCH  25  27
ENDBRANCH  24  25
ENDBRANCH  23  24
ENDBRANCH   6  23
TORSDOF 6
ENDMDL
MODEL 6
REMARK VINA RESULT:      -8.4      1.811      2.852
REMARK  Name = 
REMARK  8 active torsions:
REMARK  status: ('A' for Active; 'I' for Inactive)
REMARK    1  A    between atoms: C_1  and  C_2
REMARK    2  A    between atoms: C_2  and  C_3
REMARK    3  A    between atoms: C_6  and  C_7
REMARK    4  A    between atoms: C_7  and  O_8
REMARK    5  A    between atoms: O_8  and  C_9
REMARK    6  A    between atoms: C_9  and  C_11
REMARK    7  A    between atoms: C_11  and  C_12
REMARK    8  A    between atoms: C_20  and  N_21
REMARK                            x       y       z     vdW  Elec       q    Type
REMARK                         _______ _______ _______ _____ _____    ______ ____
ROOT
ATOM      1  C   UNL     1       3.104   2.262  21.590  0.00  0.00    +0.000 C 
ATOM      2  C   UNL     1       2.222   3.098  20.676  0.00  0.00    +0.000 C 
ATOM      3  C   UNL     1       0.756   2.681  20.815  0.00  0.00    +0.000 C 
ATOM      4  O   UNL     1       2.634   2.942  19.318  0.00  0.00    +0.000 OA
ATOM      5  C   UNL     1       2.448   4.221  18.688  0.00  0.00    +0.000 C 
ATOM      6  C   UNL     1       3.752   4.736  18.066  0.00  0.00    +0.000 C 
ATOM      7  O   UNL     1       4.181   5.890  18.822  0.00  0.00    +0.000 OA
ATOM      8  C   UNL     1       3.084   6.344  19.635  0.00  0.00    +0.000 C 
ATOM      9  C   UNL     1       2.116   5.185  19.804  0.00  0.00    +0.000 C 
ATOM     10  O   UNL     1       2.368   4.473  21.024  0.00  0.00    +0.000 OA
ENDROOT
BRANCH   8  11
ATOM     11  N   UNL     1       2.522   7.536  19.025  0.00  0.00    +0.000 N 
ATOM     12  C   UNL     1       2.804   7.981  17.758  0.00  0.00    +0.000 A 
ATOM     13  N   UNL     1       2.202   9.122  17.492  0.00  0.00    +0.000 NA
ATOM     14  C   UNL     1       1.448   9.395  18.613  0.00  0.00    +0.000 A 
ATOM     15  C   UNL     1       0.566  10.438  18.943  0.00  0.00    +0.000 A 
ATOM     16  N   UNL     1       0.307  11.513  18.104  0.00  0.00    +0.000 N 
ATOM     17  N   UNL     1      -0.050  10.413  20.147  0.00  0.00    +0.000 NA
ATOM     18  C   UNL     1       0.217   9.392  20.984  0.00  0.00    +0.000 A 
ATOM     19  N   UNL     1       1.075   8.371  20.797  0.00  0.00    +0.000 NA
ATOM     20  C   UNL     1       1.642   8.425  19.583  0.00  0.00    +0.000 A 
ATOM     21  H   UNL     1       1.043  11.669  17.424  0.00  0.00    +0.000 HD
ATOM     22  H   UNL     1      -0.024  12.316  18.624  0.00  0.00    +0.000 HD
ENDBRANCH   8  11
BRANCH   6  23
ATOM     23  C   UNL     1       3.637   5.164  16.592  0.00  0.00    +0.000 C 
BRANCH  23  24
ATOM     24  O   UNL     1       4.867   5.654  16.049  0.00  0.00    +0.000 OA
BRANCH  24  25
ATOM     25  C   UNL     1       5.530   4.770  15.253  0.00  0.00    +0.000 C 
ATOM     26  O   UNL     1       5.137   4.373  14.164  0.00  0.00    +0.000 OA
BRANCH  25  27
ATOM     27  C   UNL     1       6.833   4.352  15.886  0.00  0.00    +0.000 C 
BRANCH  27  28
ATOM     28  C   UNL     1       7.299   5.300  16.960  0.00  0.00    +0.000 A 
ATOM     29  C   UNL     1       7.660   4.820  18.230  0.00  0.00    +0.000 A 
ATOM     30  C   UNL     1       8.087   5.698  19.230  0.00  0.00    +0.000 A 
ATOM     31  C   UNL     1       8.146   7.066  18.974  0.00  0.00    +0.000 A 
ATOM     32  C   UNL     1       7.781   7.541  17.722  0.00  0.00    +0.000 A 
ATOM     33  F   UNL     1       7.832   8.858  17.476  0.00  0.00    +0.000 F 
ATOM     34  C   UNL     1       7.358   6.678  16.716  0.00  0.00    +0.000 A 
ENDBRANCH  27  28
ENDBRANCH  25  27
ENDBRANCH  24  25
ENDBRANCH  23  24
ENDBRANCH   6  23
TORSDOF 6
ENDMDL
MODEL 7
REMARK VINA RESULT:      -8.2      1.291      1.584
REMARK  Name = 
REMARK  8 active torsions:
REMARK  status: ('A' for Active; 'I' for Inactive)
REMARK    1  A    between atoms: C_1  and  C_2
REMARK    2  A    between atoms: C_2  and  C_3
REMARK    3  A    between atoms: C_6  and  C_7
REMARK    4  A    between atoms: C_7  and  O_8
REMARK    5  A    between atoms: O_8  and  C_9
REMARK    6  A    between atoms: C_9  and  C_11
REMARK    7  A    between atoms: C_11  and  C_12
REMARK    8  A    between atoms: C_20  and  N_21
REMARK                            x       y       z     vdW  Elec       q    Type
REMARK                         _______ _______ _______ _____ _____    ______ ____
ROOT
ATOM      1  C   UNL     1       1.822   1.565  19.780  0.00  0.00    +0.000 C 
ATOM      2  C   UNL     1       2.128   2.619  18.727  0.00  0.00    +0.000 C 
ATOM      3  C   UNL     1       1.696   2.134  17.341  0.00  0.00    +0.000 C 
ATOM      4  O   UNL     1       3.526   2.910  18.715  0.00  0.00    +0.000 OA
ATOM      5  C   UNL     1       3.646   4.316  18.437  0.00  0.00    +0.000 C 
ATOM      6  C   UNL     1       4.436   5.040  19.534  0.00  0.00    +0.000 C 
ATOM      7  O   UNL     1       3.523   5.911  20.239  0.00  0.00    +0.000 OA
ATOM      8  C   UNL     1       2.323   6.053  19.458  0.00  0.00    +0.000 C 
ATOM      9  C   UNL     1       2.241   4.870  18.508  0.00  0.00    +0.000 C 
ATOM     10  O   UNL     1       1.433   3.819  19.058  0.00  0.00    +0.000 OA
ENDROOT
BRANCH   8  11
ATOM     11  N   UNL     1       2.340   7.358  18.822  0.00  0.00    +0.000 N 
ATOM     12  C   UNL     1       2.896   7.631  17.598  0.00  0.00    +0.000 A 
ATOM     13  N   UNL     1       2.823   8.911  17.299  0.00  0.00    +0.000 NA
ATOM     14  C   UNL     1       2.133   9.482  18.348  0.00  0.00    +0.000 A 
ATOM     15  C   UNL     1       1.708  10.795  18.613  0.00  0.00    +0.000 A 
ATOM     16  N   UNL     1       1.977  11.869  17.776  0.00  0.00    +0.000 N 
ATOM     17  N   UNL     1       1.018  11.038  19.751  0.00  0.00    +0.000 NA
ATOM     18  C   UNL     1       0.778  10.011  20.589  0.00  0.00    +0.000 A 
ATOM     19  N   UNL     1       1.176   8.731  20.464  0.00  0.00    +0.000 NA
ATOM     20  C   UNL     1       1.834   8.533  19.311  0.00  0.00    +0.000 A 
ATOM     21  H   UNL     1       2.777  11.708  17.173  0.00  0.00    +0.000 HD
ATOM     22  H   UNL     1       1.942  12.746  18.278  0.00  0.00    +0.000 HD
ENDBRANCH   8  11
BRANCH   6  23
ATOM     23  C   UNL     1       5.601   5.905  19.023  0.00  0.00    +0.000 C 
BRANCH  23  24
ATOM     24  O   UNL     1       6.871   5.249  19.108  0.00  0.00    +0.000 OA
BRANCH  24  25
ATOM     25  C   UNL     1       7.455   4.981  17.907  0.00  0.00    +0.000 C 
ATOM     26  O   UNL     1       8.302   4.119  17.715  0.00  0.00    +0.000 OA
BRANCH  25  27
ATOM     27  C   UNL     1       6.905   5.884  16.831  0.00  0.00    +0.000 C 
BRANCH  27  28
ATOM     28  C   UNL     1       6.604   5.158  15.547  0.00  0.00    +0.000 A 
ATOM     29  C   UNL     1       5.534   4.251  15.471  0.00  0.00    +0.000 A 
ATOM     30  C   UNL     1       5.257   3.571  14.283  0.00  0.00    +0.000 A 
ATOM     31  C   UNL     1       6.054   3.783  13.160  0.00  0.00    +0.000 A 
ATOM     32  C   UNL     1       7.116   4.672  13.237  0.00  0.00    +0.000 A 
ATOM     33  F   UNL     1       7.888   4.872  12.158  0.00  0.00    +0.000 F 
ATOM     34  C   UNL     1       7.401   5.358  14.413  0.00  0.00    +0.000 A 
ENDBRANCH  27  28
ENDBRANCH  25  27
ENDBRANCH  24  25
ENDBRANCH  23  24
ENDBRANCH   6  23
TORSDOF 6
ENDMDL
MODEL 8
REMARK VINA RESULT:      -8.1      4.339      7.130
REMARK  Name = 
REMARK  8 active torsions:
REMARK  status: ('A' for Active; 'I' for Inactive)
REMARK    1  A    between atoms: C_1  and  C_2
REMARK    2  A    between atoms: C_2  and  C_3
REMARK    3  A    between atoms: C_6  and  C_7
REMARK    4  A    between atoms: C_7  and  O_8
REMARK    5  A    between atoms: O_8  and  C_9
REMARK    6  A    between atoms: C_9  and  C_11
REMARK    7  A    between atoms: C_11  and  C_12
REMARK    8  A    between atoms: C_20  and  N_21
REMARK                            x       y       z     vdW  Elec       q    Type
REMARK                         _______ _______ _______ _____ _____    ______ ____
ROOT
ATOM      1  C   UNL     1      -4.175  10.625  18.001  0.00  0.00    +0.000 C 
ATOM      2  C   UNL     1      -2.741  10.844  17.545  0.00  0.00    +0.000 C 
ATOM      3  C   UNL     1      -2.660  10.857  16.016  0.00  0.00    +0.000 C 
ATOM      4  O   UNL     1      -1.899   9.812  18.058  0.00  0.00    +0.000 OA
ATOM      5  C   UNL     1      -0.636  10.430  18.359  0.00  0.00    +0.000 C 
ATOM      6  C   UNL     1      -0.242  10.220  19.826  0.00  0.00    +0.000 C 
ATOM      7  O   UNL     1      -0.299  11.502  20.491  0.00  0.00    +0.000 OA
ATOM      8  C   UNL     1      -0.353  12.537  19.493  0.00  0.00    +0.000 C 
ATOM      9  C   UNL     1      -0.858  11.917  18.202  0.00  0.00    +0.000 C 
ATOM     10  O   UNL     1      -2.276  12.088  18.064  0.00  0.00    +0.000 OA
ENDROOT
BRANCH   8  11
ATOM     11  N   UNL     1       0.954  13.164  19.410  0.00  0.00    +0.000 N 
ATOM     12  C   UNL     1       1.849  12.988  18.385  0.00  0.00    +0.000 A 
ATOM     13  N   UNL     1       2.979  13.627  18.603  0.00  0.00    +0.000 NA
ATOM     14  C   UNL     1       2.784  14.297  19.792  0.00  0.00    +0.000 A 
ATOM     15  C   UNL     1       3.591  15.167  20.545  0.00  0.00    +0.000 A 
ATOM     16  N   UNL     1       4.888  15.508  20.186  0.00  0.00    +0.000 N 
ATOM     17  N   UNL     1       3.095  15.688  21.690  0.00  0.00    +0.000 NA
ATOM     18  C   UNL     1       1.850  15.340  22.067  0.00  0.00    +0.000 A 
ATOM     19  N   UNL     1       1.009  14.483  21.457  0.00  0.00    +0.000 NA
ATOM     20  C   UNL     1       1.534  14.012  20.315  0.00  0.00    +0.000 A 
ATOM     21  H   UNL     1       5.317  14.829  19.566  0.00  0.00    +0.000 HD
ATOM     22  H   UNL     1       5.426  15.810  20.988  0.00  0.00    +0.000 HD
ENDBRANCH   8  11
BRANCH   6  23
ATOM     23  C   UNL     1       1.172   9.651  20.037  0.00  0.00    +0.000 C 
BRANCH  23  24
ATOM     24  O   UNL     1       1.199   8.221  20.112  0.00  0.00    +0.000 OA
BRANCH  24  25
ATOM     25  C   UNL     1       2.015   7.619  19.203  0.00  0.00    +0.000 C 
ATOM     26  O   UNL     1       2.131   7.955  18.032  0.00  0.00    +0.000 OA
BRANCH  25  27
ATOM     27  C   UNL     1       2.777   6.483  19.838  0.00  0.00    +0.000 C 
BRANCH  27  28
ATOM     28  C   UNL     1       2.191   5.131  19.528  0.00  0.00    +0.000 A 
ATOM     29  C   UNL     1       1.311   4.509  20.429  0.00  0.00    +0.000 A 
ATOM     30  C   UNL     1       0.770   3.252  20.147  0.00  0.00    +0.000 A 
ATOM     31  C   UNL     1       1.113   2.599  18.965  0.00  0.00    +0.000 A 
ATOM     32  C   UNL     1       1.988   3.210  18.078  0.00  0.00    +0.000 A 
ATOM     33  F   UNL     1       2.323   2.579  16.943  0.00  0.00    +0.000 F 
ATOM     34  C   UNL     1       2.531   4.463  18.345  0.00  0.00    +0.000 A 
ENDBRANCH  27  28
ENDBRANCH  25  27
ENDBRANCH  24  25
ENDBRANCH  23  24
ENDBRANCH   6  23
TORSDOF 6
ENDMDL
MODEL 9
REMARK VINA RESULT:      -8.1      2.023      3.003
REMARK  Name = 
REMARK  8 active torsions:
REMARK  status: ('A' for Active; 'I' for Inactive)
REMARK    1  A    between atoms: C_1  and  C_2
REMARK    2  A    between atoms: C_2  and  C_3
REMARK    3  A    between atoms: C_6  and  C_7
REMARK    4  A    between atoms: C_7  and  O_8
REMARK    5  A    between atoms: O_8  and  C_9
REMARK    6  A    between atoms: C_9  and  C_11
REMARK    7  A    between atoms: C_11  and  C_12
REMARK    8  A    between atoms: C_20  and  N_21
REMARK                            x       y       z     vdW  Elec       q    Type
REMARK                         _______ _______ _______ _____ _____    ______ ____
ROOT
ATOM      1  C   UNL     1       2.334   2.103  21.260  0.00  0.00    +0.000 C 
ATOM      2  C   UNL     1       1.731   2.998  20.189  0.00  0.00    +0.000 C 
ATOM      3  C   UNL     1       0.337   2.503  19.797  0.00  0.00    +0.000 C 
ATOM      4  O   UNL     1       2.571   3.017  19.035  0.00  0.00    +0.000 OA
ATOM      5  C   UNL     1       2.498   4.350  18.500  0.00  0.00    +0.000 C 
ATOM      6  C   UNL     1       3.888   4.991  18.394  0.00  0.00    +0.000 C 
ATOM      7  O   UNL     1       3.956   6.069  19.354  0.00  0.00    +0.000 OA
ATOM      8  C   UNL     1       2.622   6.377  19.797  0.00  0.00    +0.000 C 
ATOM      9  C   UNL     1       1.748   5.165  19.529  0.00  0.00    +0.000 C 
ATOM     10  O   UNL     1       1.648   4.330  20.692  0.00  0.00    +0.000 OA
ENDROOT
BRANCH   8  11
ATOM     11  N   UNL     1       2.195   7.605  19.150  0.00  0.00    +0.000 N 
ATOM     12  C   UNL     1       2.495   7.961  17.860  0.00  0.00    +0.000 A 
ATOM     13  N   UNL     1       2.031   9.156  17.559  0.00  0.00    +0.000 NA
ATOM     14  C   UNL     1       1.346   9.564  18.684  0.00  0.00    +0.000 A 
ATOM     15  C   UNL     1       0.607  10.720  18.989  0.00  0.00    +0.000 A 
ATOM     16  N   UNL     1       0.460  11.786  18.111  0.00  0.00    +0.000 N 
ATOM     17  N   UNL     1       0.025  10.819  20.206  0.00  0.00    +0.000 NA
ATOM     18  C   UNL     1       0.187   9.807  21.079  0.00  0.00    +0.000 A 
ATOM     19  N   UNL     1       0.908   8.681  20.917  0.00  0.00    +0.000 NA
ATOM     20  C   UNL     1       1.446   8.617  19.689  0.00  0.00    +0.000 A 
ATOM     21  H   UNL     1       1.191  11.823  17.409  0.00  0.00    +0.000 HD
ATOM     22  H   UNL     1       0.244  12.643  18.604  0.00  0.00    +0.000 HD
ENDBRANCH   8  11
BRANCH   6  23
ATOM     23  C   UNL     1       4.221   5.578  17.012  0.00  0.00    +0.000 C 
BRANCH  23  24
ATOM     24  O   UNL     1       4.451   4.577  16.014  0.00  0.00    +0.000 OA
BRANCH  24  25
ATOM     25  C   UNL     1       5.552   4.786  15.241  0.00  0.00    +0.000 C 
ATOM     26  O   UNL     1       5.543   5.283  14.124  0.00  0.00    +0.000 OA
BRANCH  25  27
ATOM     27  C   UNL     1       6.801   4.334  15.957  0.00  0.00    +0.000 C 
BRANCH  27  28
ATOM     28  C   UNL     1       7.286   5.326  16.981  0.00  0.00    +0.000 A 
ATOM     29  C   UNL     1       7.335   6.698  16.682  0.00  0.00    +0.000 A 
ATOM     30  C   UNL     1       7.791   7.619  17.629  0.00  0.00    +0.000 A 
ATOM     31  C   UNL     1       8.213   7.177  18.881  0.00  0.00    +0.000 A 
ATOM     32  C   UNL     1       8.173   5.821  19.173  0.00  0.00    +0.000 A 
ATOM     33  F   UNL     1       8.585   5.393  20.376  0.00  0.00    +0.000 F 
ATOM     34  C   UNL     1       7.718   4.893  18.242  0.00  0.00    +0.000 A 
ENDBRANCH  27  28
ENDBRANCH  25  27
ENDBRANCH  24  25
ENDBRANCH  23  24
ENDBRANCH   6  23
TORSDOF 6
ENDMDL
