MODEL 1
REMARK VINA RESULT:      -7.4      0.000      0.000
REMARK  Name = 
REMARK  7 active torsions:
REMARK  status: ('A' for Active; 'I' for Inactive)
REMARK    1  A    between atoms: C_1  and  O_2
REMARK    2  A    between atoms: O_2  and  C_3
REMARK    3  A    between atoms: C_9  and  C_10
REMARK    4  A    between atoms: C_10  and  C_12
REMARK    5  A    between atoms: N_16  and  C_17
REMARK    6  A    between atoms: C_17  and  C_18
REMARK    7  A    between atoms: C_21  and  C_22
REMARK                            x       y       z     vdW  Elec       q    Type
REMARK                         _______ _______ _______ _____ _____    ______ ____
ROOT
ATOM      1  C   UNL     1       3.183   4.199  19.844  0.00  0.00    +0.000 C 
ATOM      2  C   UNL     1       1.818   3.648  19.353  0.00  0.00    +0.000 C 
ATOM      3  C   UNL     1       1.473   4.150  17.944  0.00  0.00    +0.000 C 
ATOM      4  C   UNL     1       1.567   5.669  17.850  0.00  0.00    +0.000 C 
ATOM      5  N   UNL     1       2.859   6.165  18.330  0.00  0.00    +0.000 NA
ATOM      6  C   UNL     1       3.165   5.724  19.697  0.00  0.00    +0.000 C 
ENDROOT
BRANCH   1   7
ATOM      7  C   UNL     1       4.326   3.459  19.137  0.00  0.00    +0.000 C 
ATOM      8  O   UNL     1       4.576   2.282  19.430  0.00  0.00    +0.000 OA
BRANCH   7  15
ATOM      9  C   UNL     1       6.455   4.768  18.384  0.00  0.00    +0.000 A 
ATOM     10  C   UNL     1       7.319   5.033  17.297  0.00  0.00    +0.000 A 
ATOM     11  C   UNL     1       6.991   4.669  15.994  0.00  0.00    +0.000 A 
ATOM     12  C   UNL     1       5.789   4.036  15.748  0.00  0.00    +0.000 A 
ATOM     13  F   UNL     1       5.468   3.679  14.502  0.00  0.00    +0.000 F 
ATOM     14  C   UNL     1       4.931   3.727  16.800  0.00  0.00    +0.000 A 
ATOM     15  C   UNL     1       5.255   4.065  18.127  0.00  0.00    +0.000 A 
BRANCH   9  17
ATOM     16  C   UNL     1       8.074   5.681  19.850  0.00  0.00    +0.000 C 
ATOM     17  O   UNL     1       6.773   5.118  19.666  0.00  0.00    +0.000 OA
ENDBRANCH   9  17
ENDBRANCH   7  15
ENDBRANCH   1   7
BRANCH   5  18
ATOM     18  C   UNL     1       3.027   7.619  18.147  0.00  0.00    +0.000 C 
BRANCH  18  19
ATOM     19  C   UNL     1       1.903   8.510  18.619  0.00  0.00    +0.000 A 
ATOM     20  C   UNL     1       1.134   9.374  17.860  0.00  0.00    +0.000 A 
ATOM     21  C   UNL     1       0.214  10.129  18.643  0.00  0.00    +0.000 A 
ATOM     22  C   UNL     1       0.292   9.811  19.982  0.00  0.00    +0.000 A 
ATOM     23  C   UNL     1      -0.511  10.365  21.109  0.00  0.00    +0.000 C 
ATOM     24  S   UNL     1       1.493   8.629  20.280  0.00  0.00    +0.000 S 
ENDBRANCH  18  19
ENDBRANCH   5  18
TORSDOF 5
ENDMDL
MODEL 2
REMARK VINA RESULT:      -7.3      1.707      2.318
REMARK  Name = 
REMARK  7 active torsions:
REMARK  status: ('A' for Active; 'I' for Inactive)
REMARK    1  A    between atoms: C_1  and  O_2
REMARK    2  A    between atoms: O_2  and  C_3
REMARK    3  A    between atoms: C_9  and  C_10
REMARK    4  A    between atoms: C_10  and  C_12
REMARK    5  A    between atoms: N_16  and  C_17
REMARK    6  A    between atoms: C_17  and  C_18
REMARK    7  A    between atoms: C_21  and  C_22
REMARK                            x       y       z     vdW  Elec       q    Type
REMARK                         _______ _______ _______ _____ _____    ______ ____
ROOT
ATOM      1  C   UNL     1       3.727   2.928  18.656  0.00  0.00    +0.000 C 
ATOM      2  C   UNL     1       2.713   1.756  18.730  0.00  0.00    +0.000 C 
ATOM      3  C   UNL     1       1.267   2.257  18.824  0.00  0.00    +0.000 C 
ATOM      4  C   UNL     1       1.093   3.263  19.957  0.00  0.00    +0.000 C 
ATOM      5  N   UNL     1       2.069   4.353  19.871  0.00  0.00    +0.000 NA
ATOM      6  C   UNL     1       3.456   3.872  19.830  0.00  0.00    +0.000 C 
ENDROOT
BRANCH   1   7
ATOM      7  C   UNL     1       3.695   3.554  17.255  0.00  0.00    +0.000 C 
ATOM      8  O   UNL     1       2.659   3.502  16.577  0.00  0.00    +0.000 OA
BRANCH   7  15
ATOM      9  C   UNL     1       5.831   5.050  17.146  0.00  0.00    +0.000 A 
ATOM     10  C   UNL     1       6.997   5.340  16.399  0.00  0.00    +0.000 A 
ATOM     11  C   UNL     1       7.181   4.852  15.109  0.00  0.00    +0.000 A 
ATOM     12  C   UNL     1       6.202   4.067  14.533  0.00  0.00    +0.000 A 
ATOM     13  F   UNL     1       6.373   3.591  13.297  0.00  0.00    +0.000 F 
ATOM     14  C   UNL     1       5.059   3.732  15.253  0.00  0.00    +0.000 A 
ATOM     15  C   UNL     1       4.864   4.195  16.567  0.00  0.00    +0.000 A 
BRANCH   9  17
ATOM     16  C   UNL     1       6.812   5.556  19.240  0.00  0.00    +0.000 C 
ATOM     17  O   UNL     1       5.645   5.521  18.415  0.00  0.00    +0.000 OA
ENDBRANCH   9  17
ENDBRANCH   7  15
ENDBRANCH   1   7
BRANCH   5  18
ATOM     18  C   UNL     1       1.856   5.403  20.885  0.00  0.00    +0.000 C 
BRANCH  18  19
ATOM     19  C   UNL     1       1.734   6.825  20.393  0.00  0.00    +0.000 A 
ATOM     20  C   UNL     1       1.139   7.895  21.038  0.00  0.00    +0.000 A 
ATOM     21  C   UNL     1       1.126   9.080  20.247  0.00  0.00    +0.000 A 
ATOM     22  C   UNL     1       1.725   8.890  19.020  0.00  0.00    +0.000 A 
ATOM     23  C   UNL     1       1.923   9.884  17.928  0.00  0.00    +0.000 C 
ATOM     24  S   UNL     1       2.270   7.279  18.827  0.00  0.00    +0.000 S 
ENDBRANCH  18  19
ENDBRANCH   5  18
TORSDOF 5
ENDMDL
MODEL 3
REMARK VINA RESULT:      -7.2      1.439      1.741
REMARK  Name = 
REMARK  7 active torsions:
REMARK  status: ('A' for Active; 'I' for Inactive)
REMARK    1  A    between atoms: C_1  and  O_2
REMARK    2  A    between atoms: O_2  and  C_3
REMARK    3  A    between atoms: C_9  and  C_10
REMARK    4  A    between atoms: C_10  and  C_12
REMARK    5  A    between atoms: N_16  and  C_17
REMARK    6  A    between atoms: C_17  and  C_18
REMARK    7  A    between atoms: C_21  and  C_22
REMARK                            x       y       z     vdW  Elec       q    Type
REMARK                         _______ _______ _______ _____ _____    ______ ____
ROOT
ATOM      1  C   UNL     1       3.829   3.681  19.242  0.00  0.00    +0.000 C 
ATOM      2  C   UNL     1       2.831   2.542  19.583  0.00  0.00    +0.000 C 
ATOM      3  C   UNL     1       1.374   2.999  19.441  0.00  0.00    +0.000 C 
ATOM      4  C   UNL     1       1.106   4.276  20.229  0.00  0.00    +0.000 C 
ATOM      5  N   UNL     1       2.068   5.332  19.899  0.00  0.00    +0.000 NA
ATOM      6  C   UNL     1       3.462   4.907  20.082  0.00  0.00    +0.000 C 
ENDROOT
BRANCH   1   7
ATOM      7  C   UNL     1       3.884   3.886  17.722  0.00  0.00    +0.000 C 
ATOM      8  O   UNL     1       2.895   3.619  17.025  0.00  0.00    +0.000 OA
BRANCH   7  15
ATOM      9  C   UNL     1       6.353   4.696  17.480  0.00  0.00    +0.000 A 
ATOM     10  C   UNL     1       7.434   4.841  16.580  0.00  0.00    +0.000 A 
ATOM     11  C   UNL     1       7.269   4.692  15.206  0.00  0.00    +0.000 A 
ATOM     12  C   UNL     1       6.019   4.400  14.700  0.00  0.00    +0.000 A 
ATOM     13  F   UNL     1       5.852   4.250  13.383  0.00  0.00    +0.000 F 
ATOM     14  C   UNL     1       4.940   4.214  15.560  0.00  0.00    +0.000 A 
ATOM     15  C   UNL     1       5.091   4.337  16.953  0.00  0.00    +0.000 A 
BRANCH   9  17
ATOM     16  C   UNL     1       7.614   5.642  19.246  0.00  0.00    +0.000 C 
ATOM     17  O   UNL     1       6.508   4.837  18.830  0.00  0.00    +0.000 OA
ENDBRANCH   9  17
ENDBRANCH   7  15
ENDBRANCH   1   7
BRANCH   5  18
ATOM     18  C   UNL     1       1.769   6.617  20.559  0.00  0.00    +0.000 C 
BRANCH  18  19
ATOM     19  C   UNL     1       1.684   7.842  19.681  0.00  0.00    +0.000 A 
ATOM     20  C   UNL     1       2.210   8.011  18.413  0.00  0.00    +0.000 A 
ATOM     21  C   UNL     1       2.017   9.328  17.905  0.00  0.00    +0.000 A 
ATOM     22  C   UNL     1       1.334  10.131  18.795  0.00  0.00    +0.000 A 
ATOM     23  C   UNL     1       0.927  11.554  18.625  0.00  0.00    +0.000 C 
ATOM     24  S   UNL     1       0.960   9.294  20.240  0.00  0.00    +0.000 S 
ENDBRANCH  18  19
ENDBRANCH   5  18
TORSDOF 5
ENDMDL
MODEL 4
REMARK VINA RESULT:      -7.1      1.660      1.947
REMARK  Name = 
REMARK  7 active torsions:
REMARK  status: ('A' for Active; 'I' for Inactive)
REMARK    1  A    between atoms: C_1  and  O_2
REMARK    2  A    between atoms: O_2  and  C_3
REMARK    3  A    between atoms: C_9  and  C_10
REMARK    4  A    between atoms: C_10  and  C_12
REMARK    5  A    between atoms: N_16  and  C_17
REMARK    6  A    between atoms: C_17  and  C_18
REMARK    7  A    between atoms: C_21  and  C_22
REMARK                            x       y       z     vdW  Elec       q    Type
REMARK                         _______ _______ _______ _____ _____    ______ ____
ROOT
ATOM      1  C   UNL     1       3.891   3.402  19.596  0.00  0.00    +0.000 C 
ATOM      2  C   UNL     1       2.757   2.343  19.554  0.00  0.00    +0.000 C 
ATOM      3  C   UNL     1       1.434   2.943  19.060  0.00  0.00    +0.000 C 
ATOM      4  C   UNL     1       1.051   4.188  19.852  0.00  0.00    +0.000 C 
ATOM      5  N   UNL     1       2.142   5.167  19.888  0.00  0.00    +0.000 NA
ATOM      6  C   UNL     1       3.395   4.603  20.407  0.00  0.00    +0.000 C 
ENDROOT
BRANCH   1   7
ATOM      7  C   UNL     1       4.381   3.694  18.172  0.00  0.00    +0.000 C 
ATOM      8  O   UNL     1       4.223   2.853  17.277  0.00  0.00    +0.000 OA
BRANCH   7  15
ATOM      9  C   UNL     1       6.389   5.362  18.212  0.00  0.00    +0.000 A 
ATOM     10  C   UNL     1       7.035   6.403  17.507  0.00  0.00    +0.000 A 
ATOM     11  C   UNL     1       6.437   7.032  16.419  0.00  0.00    +0.000 A 
ATOM     12  C   UNL     1       5.178   6.639  16.014  0.00  0.00    +0.000 A 
ATOM     13  F   UNL     1       4.598   7.233  14.968  0.00  0.00    +0.000 F 
ATOM     14  C   UNL     1       4.528   5.592  16.664  0.00  0.00    +0.000 A 
ATOM     15  C   UNL     1       5.125   4.927  17.750  0.00  0.00    +0.000 A 
BRANCH   9  17
ATOM     16  C   UNL     1       8.040   5.449  19.906  0.00  0.00    +0.000 C 
ATOM     17  O   UNL     1       6.972   4.736  19.278  0.00  0.00    +0.000 OA
ENDBRANCH   9  17
ENDBRANCH   7  15
ENDBRANCH   1   7
BRANCH   5  18
ATOM     18  C   UNL     1       1.766   6.431  20.549  0.00  0.00    +0.000 C 
BRANCH  18  19
ATOM     19  C   UNL     1       1.714   7.672  19.691  0.00  0.00    +0.000 A 
ATOM     20  C   UNL     1       2.237   7.844  18.421  0.00  0.00    +0.000 A 
ATOM     21  C   UNL     1       2.082   9.174  17.935  0.00  0.00    +0.000 A 
ATOM     22  C   UNL     1       1.431   9.984  18.842  0.00  0.00    +0.000 A 
ATOM     23  C   UNL     1       1.068  11.422  18.698  0.00  0.00    +0.000 C 
ATOM     24  S   UNL     1       1.041   9.137  20.277  0.00  0.00    +0.000 S 
ENDBRANCH  18  19
ENDBRANCH   5  18
TORSDOF 5
ENDMDL
MODEL 5
REMARK VINA RESULT:      -7.0      2.179      2.901
REMARK  Name = 
REMARK  7 active torsions:
REMARK  status: ('A' for Active; 'I' for Inactive)
REMARK    1  A    between atoms: C_1  and  O_2
REMARK    2  A    between atoms: O_2  and  C_3
REMARK    3  A    between atoms: C_9  and  C_10
REMARK    4  A    between atoms: C_10  and  C_12
REMARK    5  A    between atoms: N_16  and  C_17
REMARK    6  A    between atoms: C_17  and  C_18
REMARK    7  A    between atoms: C_21  and  C_22
REMARK                            x       y       z     vdW  Elec       q    Type
REMARK                         _______ _______ _______ _____ _____    ______ ____
ROOT
ATOM      1  C   UNL     1       4.379   3.378  18.403  0.00  0.00    +0.000 C 
ATOM      2  C   UNL     1       3.158   2.698  17.728  0.00  0.00    +0.000 C 
ATOM      3  C   UNL     1       2.148   3.727  17.204  0.00  0.00    +0.000 C 
ATOM      4  C   UNL     1       1.747   4.722  18.288  0.00  0.00    +0.000 C 
ATOM      5  N   UNL     1       2.916   5.342  18.918  0.00  0.00    +0.000 NA
ATOM      6  C   UNL     1       3.858   4.355  19.461  0.00  0.00    +0.000 C 
ENDROOT
BRANCH   1   7
ATOM      7  C   UNL     1       5.305   3.965  17.330  0.00  0.00    +0.000 C 
ATOM      8  O   UNL     1       5.254   3.539  16.168  0.00  0.00    +0.000 OA
BRANCH   7  15
ATOM      9  C   UNL     1       6.587   6.181  16.821  0.00  0.00    +0.000 A 
ATOM     10  C   UNL     1       7.454   7.159  17.360  0.00  0.00    +0.000 A 
ATOM     11  C   UNL     1       8.117   6.965  18.568  0.00  0.00    +0.000 A 
ATOM     12  C   UNL     1       7.932   5.788  19.263  0.00  0.00    +0.000 A 
ATOM     13  F   UNL     1       8.559   5.595  20.426  0.00  0.00    +0.000 F 
ATOM     14  C   UNL     1       7.057   4.818  18.780  0.00  0.00    +0.000 A 
ATOM     15  C   UNL     1       6.359   5.005  17.572  0.00  0.00    +0.000 A 
BRANCH   9  17
ATOM     16  C   UNL     1       4.698   7.086  15.719  0.00  0.00    +0.000 C 
ATOM     17  O   UNL     1       5.930   6.366  15.637  0.00  0.00    +0.000 OA
ENDBRANCH   9  17
ENDBRANCH   7  15
ENDBRANCH   1   7
BRANCH   5  18
ATOM     18  C   UNL     1       2.563   6.392  19.891  0.00  0.00    +0.000 C 
BRANCH  18  19
ATOM     19  C   UNL     1       2.047   7.700  19.341  0.00  0.00    +0.000 A 
ATOM     20  C   UNL     1       2.272   8.236  18.085  0.00  0.00    +0.000 A 
ATOM     21  C   UNL     1       1.704   9.533  17.928  0.00  0.00    +0.000 A 
ATOM     22  C   UNL     1       1.045   9.951  19.065  0.00  0.00    +0.000 A 
ATOM     23  C   UNL     1       0.314  11.231  19.288  0.00  0.00    +0.000 C 
ATOM     24  S   UNL     1       1.146   8.787  20.315  0.00  0.00    +0.000 S 
ENDBRANCH  18  19
ENDBRANCH   5  18
TORSDOF 5
ENDMDL
MODEL 6
REMARK VINA RESULT:      -6.9      2.250      3.130
REMARK  Name = 
REMARK  7 active torsions:
REMARK  status: ('A' for Active; 'I' for Inactive)
REMARK    1  A    between atoms: C_1  and  O_2
REMARK    2  A    between atoms: O_2  and  C_3
REMARK    3  A    between atoms: C_9  and  C_10
REMARK    4  A    between atoms: C_10  and  C_12
REMARK    5  A    between atoms: N_16  and  C_17
REMARK    6  A    between atoms: C_17  and  C_18
REMARK    7  A    between atoms: C_21  and  C_22
REMARK                            x       y       z     vdW  Elec       q    Type
REMARK                         _______ _______ _______ _____ _____    ______ ____
ROOT
ATOM      1  C   UNL     1       4.056   2.953  18.936  0.00  0.00    +0.000 C 
ATOM      2  C   UNL     1       2.957   1.936  18.526  0.00  0.00    +0.000 C 
ATOM      3  C   UNL     1       1.622   2.629  18.226  0.00  0.00    +0.000 C 
ATOM      4  C   UNL     1       1.190   3.537  19.372  0.00  0.00    +0.000 C 
ATOM      5  N   UNL     1       2.248   4.479  19.749  0.00  0.00    +0.000 NA
ATOM      6  C   UNL     1       3.512   3.810  20.083  0.00  0.00    +0.000 C 
ENDROOT
BRANCH   1   7
ATOM      7  C   UNL     1       4.554   3.707  17.697  0.00  0.00    +0.000 C 
ATOM      8  O   UNL     1       4.003   3.531  16.601  0.00  0.00    +0.000 OA
BRANCH   7  15
ATOM      9  C   UNL     1       6.142   5.459  16.592  0.00  0.00    +0.000 A 
ATOM     10  C   UNL     1       7.124   6.445  16.846  0.00  0.00    +0.000 A 
ATOM     11  C   UNL     1       7.726   6.575  18.095  0.00  0.00    +0.000 A 
ATOM     12  C   UNL     1       7.363   5.720  19.116  0.00  0.00    +0.000 A 
ATOM     13  F   UNL     1       7.932   5.841  20.318  0.00  0.00    +0.000 F 
ATOM     14  C   UNL     1       6.374   4.762  18.911  0.00  0.00    +0.000 A 
ATOM     15  C   UNL     1       5.737   4.630  17.663  0.00  0.00    +0.000 A 
BRANCH   9  17
ATOM     16  C   UNL     1       6.326   4.682  14.364  0.00  0.00    +0.000 C 
ATOM     17  O   UNL     1       5.544   5.328  15.371  0.00  0.00    +0.000 OA
ENDBRANCH   9  17
ENDBRANCH   7  15
ENDBRANCH   1   7
BRANCH   5  18
ATOM     18  C   UNL     1       1.823   5.448  20.777  0.00  0.00    +0.000 C 
BRANCH  18  19
ATOM     19  C   UNL     1       1.690   6.891  20.355  0.00  0.00    +0.000 A 
ATOM     20  C   UNL     1       1.084   7.923  21.050  0.00  0.00    +0.000 A 
ATOM     21  C   UNL     1       1.063   9.145  20.318  0.00  0.00    +0.000 A 
ATOM     22  C   UNL     1       1.668   9.020  19.085  0.00  0.00    +0.000 A 
ATOM     23  C   UNL     1       1.859  10.069  18.044  0.00  0.00    +0.000 C 
ATOM     24  S   UNL     1       2.226   7.425  18.815  0.00  0.00    +0.000 S 
ENDBRANCH  18  19
ENDBRANCH   5  18
TORSDOF 5
ENDMDL
MODEL 7
REMARK VINA RESULT:      -6.9      0.984      1.116
REMARK  Name = 
REMARK  7 active torsions:
REMARK  status: ('A' for Active; 'I' for Inactive)
REMARK    1  A    between atoms: C_1  and  O_2
REMARK    2  A    between atoms: O_2  and  C_3
REMARK    3  A    between atoms: C_9  and  C_10
REMARK    4  A    between atoms: C_10  and  C_12
REMARK    5  A    between atoms: N_16  and  C_17
REMARK    6  A    between atoms: C_17  and  C_18
REMARK    7  A    between atoms: C_21  and  C_22
REMARK                            x       y       z     vdW  Elec       q    Type
REMARK                         _______ _______ _______ _____ _____    ______ ____
ROOT
ATOM      1  C   UNL     1       4.057   4.184  19.622  0.00  0.00    +0.000 C 
ATOM      2  C   UNL     1       2.750   3.557  20.178  0.00  0.00    +0.000 C 
ATOM      3  C   UNL     1       1.514   4.038  19.409  0.00  0.00    +0.000 C 
ATOM      4  C   UNL     1       1.455   5.560  19.334  0.00  0.00    +0.000 C 
ATOM      5  N   UNL     1       2.703   6.128  18.817  0.00  0.00    +0.000 NA
ATOM      6  C   UNL     1       3.881   5.705  19.586  0.00  0.00    +0.000 C 
ENDROOT
BRANCH   1   7
ATOM      7  C   UNL     1       4.433   3.508  18.296  0.00  0.00    +0.000 C 
ATOM      8  O   UNL     1       4.018   2.370  18.042  0.00  0.00    +0.000 OA
BRANCH   7  15
ATOM      9  C   UNL     1       6.688   4.502  17.436  0.00  0.00    +0.000 A 
ATOM     10  C   UNL     1       7.460   4.778  16.284  0.00  0.00    +0.000 A 
ATOM     11  C   UNL     1       6.917   4.705  15.004  0.00  0.00    +0.000 A 
ATOM     12  C   UNL     1       5.591   4.360  14.847  0.00  0.00    +0.000 A 
ATOM     13  F   UNL     1       5.063   4.283  13.623  0.00  0.00    +0.000 F 
ATOM     14  C   UNL     1       4.812   4.046  15.958  0.00  0.00    +0.000 A 
ATOM     15  C   UNL     1       5.347   4.090  17.258  0.00  0.00    +0.000 A 
BRANCH   9  17
ATOM     16  C   UNL     1       7.697   5.850  19.100  0.00  0.00    +0.000 C 
ATOM     17  O   UNL     1       7.215   4.566  18.696  0.00  0.00    +0.000 OA
ENDBRANCH   9  17
ENDBRANCH   7  15
ENDBRANCH   1   7
BRANCH   5  18
ATOM     18  C   UNL     1       2.641   7.590  18.625  0.00  0.00    +0.000 C 
BRANCH  18  19
ATOM     19  C   UNL     1       1.614   8.350  19.430  0.00  0.00    +0.000 A 
ATOM     20  C   UNL     1       0.773   9.357  18.992  0.00  0.00    +0.000 A 
ATOM     21  C   UNL     1      -0.013   9.916  20.040  0.00  0.00    +0.000 A 
ATOM     22  C   UNL     1       0.237   9.311  21.254  0.00  0.00    +0.000 A 
ATOM     23  C   UNL     1      -0.391   9.600  22.574  0.00  0.00    +0.000 C 
ATOM     24  S   UNL     1       1.437   8.098  21.118  0.00  0.00    +0.000 S 
ENDBRANCH  18  19
ENDBRANCH   5  18
TORSDOF 5
ENDMDL
MODEL 8
REMARK VINA RESULT:      -6.9      3.818      6.718
REMARK  Name = 
REMARK  7 active torsions:
REMARK  status: ('A' for Active; 'I' for Inactive)
REMARK    1  A    between atoms: C_1  and  O_2
REMARK    2  A    between atoms: O_2  and  C_3
REMARK    3  A    between atoms: C_9  and  C_10
REMARK    4  A    between atoms: C_10  and  C_12
REMARK    5  A    between atoms: N_16  and  C_17
REMARK    6  A    between atoms: C_17  and  C_18
REMARK    7  A    between atoms: C_21  and  C_22
REMARK                            x       y       z     vdW  Elec       q    Type
REMARK                         _______ _______ _______ _____ _____    ______ ____
ROOT
ATOM      1  C   UNL     1       5.553   4.613  18.778  0.00  0.00    +0.000 C 
ATOM      2  C   UNL     1       4.842   5.982  18.945  0.00  0.00    +0.000 C 
ATOM      3  C   UNL     1       4.383   6.555  17.598  0.00  0.00    +0.000 C 
ATOM      4  C   UNL     1       5.525   6.600  16.589  0.00  0.00    +0.000 C 
ATOM      5  N   UNL     1       6.188   5.300  16.458  0.00  0.00    +0.000 NA
ATOM      6  C   UNL     1       6.669   4.776  17.743  0.00  0.00    +0.000 C 
ENDROOT
BRANCH   1   7
ATOM      7  C   UNL     1       4.514   3.519  18.496  0.00  0.00    +0.000 C 
ATOM      8  O   UNL     1       4.431   3.021  17.366  0.00  0.00    +0.000 OA
BRANCH   7  15
ATOM      9  C   UNL     1       3.751   2.436  20.745  0.00  0.00    +0.000 A 
ATOM     10  C   UNL     1       2.662   2.266  21.631  0.00  0.00    +0.000 A 
ATOM     11  C   UNL     1       1.362   2.605  21.266  0.00  0.00    +0.000 A 
ATOM     12  C   UNL     1       1.121   3.116  20.008  0.00  0.00    +0.000 A 
ATOM     13  F   UNL     1      -0.123   3.449  19.651  0.00  0.00    +0.000 F 
ATOM     14  C   UNL     1       2.175   3.330  19.124  0.00  0.00    +0.000 A 
ATOM     15  C   UNL     1       3.499   3.016  19.481  0.00  0.00    +0.000 A 
BRANCH   9  17
ATOM     16  C   UNL     1       5.311   0.711  21.187  0.00  0.00    +0.000 C 
ATOM     17  O   UNL     1       5.031   2.110  21.097  0.00  0.00    +0.000 OA
ENDBRANCH   9  17
ENDBRANCH   7  15
ENDBRANCH   1   7
BRANCH   5  18
ATOM     18  C   UNL     1       7.223   5.278  15.407  0.00  0.00    +0.000 C 
BRANCH  18  19
ATOM     19  C   UNL     1       6.861   4.630  14.093  0.00  0.00    +0.000 A 
ATOM     20  C   UNL     1       7.589   4.642  12.916  0.00  0.00    +0.000 A 
ATOM     21  C   UNL     1       6.911   4.000  11.840  0.00  0.00    +0.000 A 
ATOM     22  C   UNL     1       5.684   3.501  12.226  0.00  0.00    +0.000 A 
ATOM     23  C   UNL     1       4.693   2.756  11.400  0.00  0.00    +0.000 C 
ATOM     24  S   UNL     1       5.356   3.837  13.871  0.00  0.00    +0.000 S 
ENDBRANCH  18  19
ENDBRANCH   5  18
TORSDOF 5
ENDMDL
MODEL 9
REMARK VINA RESULT:      -6.9      3.246      6.366
REMARK  Name = 
REMARK  7 active torsions:
REMARK  status: ('A' for Active; 'I' for Inactive)
REMARK    1  A    between atoms: C_1  and  O_2
REMARK    2  A    between atoms: O_2  and  C_3
REMARK    3  A    between atoms: C_9  and  C_10
REMARK    4  A    between atoms: C_10  and  C_12
REMARK    5  A    between atoms: N_16  and  C_17
REMARK    6  A    between atoms: C_17  and  C_18
REMARK    7  A    between atoms: C_21  and  C_22
REMARK                            x       y       z     vdW  Elec       q    Type
REMARK                         _______ _______ _______ _____ _____    ______ ____
ROOT
ATOM      1  C   UNL     1       1.096   4.464  19.745  0.00  0.00    +0.000 C 
ATOM      2  C   UNL     1       0.987   3.127  20.525  0.00  0.00    +0.000 C 
ATOM      3  C   UNL     1       2.341   2.413  20.626  0.00  0.00    +0.000 C 
ATOM      4  C   UNL     1       2.993   2.249  19.258  0.00  0.00    +0.000 C 
ATOM      5  N   UNL     1       3.073   3.522  18.536  0.00  0.00    +0.000 NA
ATOM      6  C   UNL     1       1.768   4.180  18.398  0.00  0.00    +0.000 C 
ENDROOT
BRANCH   1   7
ATOM      7  C   UNL     1       1.760   5.528  20.628  0.00  0.00    +0.000 C 
ATOM      8  O   UNL     1       2.546   5.188  21.523  0.00  0.00    +0.000 OA
BRANCH   7  15
ATOM      9  C   UNL     1       1.881   7.892  19.527  0.00  0.00    +0.000 A 
ATOM     10  C   UNL     1       1.312   9.186  19.512  0.00  0.00    +0.000 A 
ATOM     11  C   UNL     1       0.433   9.610  20.504  0.00  0.00    +0.000 A 
ATOM     12  C   UNL     1       0.106   8.753  21.535  0.00  0.00    +0.000 A 
ATOM     13  F   UNL     1      -0.741   9.150  22.488  0.00  0.00    +0.000 F 
ATOM     14  C   UNL     1       0.620   7.460  21.561  0.00  0.00    +0.000 A 
ATOM     15  C   UNL     1       1.492   7.003  20.555  0.00  0.00    +0.000 A 
BRANCH   9  17
ATOM     16  C   UNL     1       2.980   8.390  17.490  0.00  0.00    +0.000 C 
ATOM     17  O   UNL     1       2.742   7.466  18.554  0.00  0.00    +0.000 OA
ENDBRANCH   9  17
ENDBRANCH   7  15
ENDBRANCH   1   7
BRANCH   5  18
ATOM     18  C   UNL     1       3.801   3.419  17.257  0.00  0.00    +0.000 C 
BRANCH  18  19
ATOM     19  C   UNL     1       4.953   4.370  17.038  0.00  0.00    +0.000 A 
ATOM     20  C   UNL     1       5.735   4.504  15.904  0.00  0.00    +0.000 A 
ATOM     21  C   UNL     1       6.794   5.442  16.071  0.00  0.00    +0.000 A 
ATOM     22  C   UNL     1       6.786   6.014  17.326  0.00  0.00    +0.000 A 
ATOM     23  C   UNL     1       7.713   7.044  17.874  0.00  0.00    +0.000 C 
ATOM     24  S   UNL     1       5.520   5.392  18.294  0.00  0.00    +0.000 S 
ENDBRANCH  18  19
ENDBRANCH   5  18
TORSDOF 5
ENDMDL
