MODEL 1
REMARK VINA RESULT:      -8.2      0.000      0.000
REMARK  Name = 
REMARK  6 active torsions:
REMARK  status: ('A' for Active; 'I' for Inactive)
REMARK    1  A    between atoms: C_1  and  O_2
REMARK    2  A    between atoms: O_2  and  C_3
REMARK    3  A    between atoms: C_6  and  N_7
REMARK    4  A    between atoms: C_10  and  C_11
REMARK    5  A    between atoms: C_16  and  C_17
REMARK    6  A    between atoms: C_19  and  C_20
REMARK                            x       y       z     vdW  Elec       q    Type
REMARK                         _______ _______ _______ _____ _____    ______ ____
ROOT
ATOM      1  N   UNL     1       4.267   2.969  17.874  0.00  0.00    +0.000 N 
ATOM      2  C   UNL     1       3.475   3.561  18.892  0.00  0.00    +0.000 A 
ATOM      3  C   UNL     1       2.960   2.762  19.892  0.00  0.00    +0.000 A 
ATOM      4  C   UNL     1       2.181   3.380  20.849  0.00  0.00    +0.000 A 
ATOM      5  C   UNL     1       1.589   2.600  21.983  0.00  0.00    +0.000 C 
ATOM      6  N   UNL     1       1.899   4.695  20.808  0.00  0.00    +0.000 NA
ATOM      7  C   UNL     1       2.391   5.403  19.768  0.00  0.00    +0.000 A 
ATOM      8  N   UNL     1       2.087   6.814  19.680  0.00  0.00    +0.000 N 
ATOM      9  N   UNL     1       1.422   7.460  20.689  0.00  0.00    +0.000 NA
ATOM     10  C   UNL     1       1.396   8.744  20.331  0.00  0.00    +0.000 A 
ATOM     11  C   UNL     1       0.791   9.766  21.217  0.00  0.00    +0.000 C 
ATOM     12  C   UNL     1       1.983   8.949  19.069  0.00  0.00    +0.000 A 
ATOM     13  C   UNL     1       2.404   7.704  18.652  0.00  0.00    +0.000 A 
ATOM     14  C   UNL     1       3.065   7.325  17.378  0.00  0.00    +0.000 C 
ATOM     15  N   UNL     1       3.167   4.864  18.810  0.00  0.00    +0.000 NA
ATOM     16  H   UNL     1       4.793   2.191  18.264  0.00  0.00    +0.000 HD
ENDROOT
BRANCH   1  20
ATOM     17  C   UNL     1       6.956   5.058  15.350  0.00  0.00    +0.000 A 
ATOM     18  C   UNL     1       6.262   3.935  14.892  0.00  0.00    +0.000 A 
ATOM     19  C   UNL     1       5.370   3.261  15.733  0.00  0.00    +0.000 A 
ATOM     20  C   UNL     1       5.144   3.709  17.038  0.00  0.00    +0.000 A 
ATOM     21  C   UNL     1       5.902   4.784  17.518  0.00  0.00    +0.000 A 
ATOM     22  C   UNL     1       6.789   5.461  16.679  0.00  0.00    +0.000 A 
ATOM     23 CL   UNL     1       7.642   6.819  17.328  0.00  0.00    +0.000 Cl
BRANCH  17  25
ATOM     24  C   UNL     1       7.900   5.375  13.208  0.00  0.00    +0.000 C 
ATOM     25  O   UNL     1       7.837   5.767  14.576  0.00  0.00    +0.000 OA
ENDBRANCH  17  25
ENDBRANCH   1  20
TORSDOF 2
ENDMDL
MODEL 2
REMARK VINA RESULT:      -7.2      1.416      2.017
REMARK  Name = 
REMARK  6 active torsions:
REMARK  status: ('A' for Active; 'I' for Inactive)
REMARK    1  A    between atoms: C_1  and  O_2
REMARK    2  A    between atoms: O_2  and  C_3
REMARK    3  A    between atoms: C_6  and  N_7
REMARK    4  A    between atoms: C_10  and  C_11
REMARK    5  A    between atoms: C_16  and  C_17
REMARK    6  A    between atoms: C_19  and  C_20
REMARK                            x       y       z     vdW  Elec       q    Type
REMARK                         _______ _______ _______ _____ _____    ______ ____
ROOT
ATOM      1  N   UNL     1       4.617   3.361  18.742  0.00  0.00    +0.000 N 
ATOM      2  C   UNL     1       3.574   3.718  19.636  0.00  0.00    +0.000 A 
ATOM      3  C   UNL     1       2.998   2.739  20.420  0.00  0.00    +0.000 A 
ATOM      4  C   UNL     1       1.975   3.131  21.260  0.00  0.00    +0.000 A 
ATOM      5  C   UNL     1       1.296   2.145  22.161  0.00  0.00    +0.000 C 
ATOM      6  N   UNL     1       1.525   4.399  21.304  0.00  0.00    +0.000 NA
ATOM      7  C   UNL     1       2.099   5.290  20.467  0.00  0.00    +0.000 A 
ATOM      8  N   UNL     1       1.623   6.656  20.470  0.00  0.00    +0.000 N 
ATOM      9  N   UNL     1       0.698   7.081  21.386  0.00  0.00    +0.000 NA
ATOM     10  C   UNL     1       0.561   8.389  21.170  0.00  0.00    +0.000 A 
ATOM     11  C   UNL     1      -0.336   9.208  22.020  0.00  0.00    +0.000 C 
ATOM     12  C   UNL     1       1.339   8.825  20.082  0.00  0.00    +0.000 A 
ATOM     13  C   UNL     1       1.999   7.704  19.628  0.00  0.00    +0.000 A 
ATOM     14  C   UNL     1       2.933   7.576  18.481  0.00  0.00    +0.000 C 
ATOM     15  N   UNL     1       3.107   4.976  19.633  0.00  0.00    +0.000 NA
ATOM     16  H   UNL     1       5.164   2.605  19.145  0.00  0.00    +0.000 HD
ENDROOT
BRANCH   1  20
ATOM     17  C   UNL     1       7.251   6.270  17.140  0.00  0.00    +0.000 A 
ATOM     18  C   UNL     1       7.002   6.200  18.514  0.00  0.00    +0.000 A 
ATOM     19  C   UNL     1       6.138   5.229  19.029  0.00  0.00    +0.000 A 
ATOM     20  C   UNL     1       5.523   4.301  18.184  0.00  0.00    +0.000 A 
ATOM     21  C   UNL     1       5.710   4.426  16.803  0.00  0.00    +0.000 A 
ATOM     22  C   UNL     1       6.576   5.392  16.286  0.00  0.00    +0.000 A 
ATOM     23 CL   UNL     1       6.804   5.443  14.571  0.00  0.00    +0.000 Cl
BRANCH  17  25
ATOM     24  C   UNL     1       8.203   8.428  17.271  0.00  0.00    +0.000 C 
ATOM     25  O   UNL     1       8.091   7.192  16.572  0.00  0.00    +0.000 OA
ENDBRANCH  17  25
ENDBRANCH   1  20
TORSDOF 2
ENDMDL
MODEL 3
REMARK VINA RESULT:      -6.9      3.198      6.441
REMARK  Name = 
REMARK  6 active torsions:
REMARK  status: ('A' for Active; 'I' for Inactive)
REMARK    1  A    between atoms: C_1  and  O_2
REMARK    2  A    between atoms: O_2  and  C_3
REMARK    3  A    between atoms: C_6  and  N_7
REMARK    4  A    between atoms: C_10  and  C_11
REMARK    5  A    between atoms: C_16  and  C_17
REMARK    6  A    between atoms: C_19  and  C_20
REMARK                            x       y       z     vdW  Elec       q    Type
REMARK                         _______ _______ _______ _____ _____    ______ ____
ROOT
ATOM      1  N   UNL     1       1.531   7.096  20.888  0.00  0.00    +0.000 N 
ATOM      2  C   UNL     1       2.072   5.955  20.239  0.00  0.00    +0.000 A 
ATOM      3  C   UNL     1       1.837   4.705  20.773  0.00  0.00    +0.000 A 
ATOM      4  C   UNL     1       2.399   3.628  20.116  0.00  0.00    +0.000 A 
ATOM      5  C   UNL     1       2.189   2.229  20.610  0.00  0.00    +0.000 C 
ATOM      6  N   UNL     1       3.169   3.774  19.023  0.00  0.00    +0.000 NA
ATOM      7  C   UNL     1       3.402   5.033  18.591  0.00  0.00    +0.000 A 
ATOM      8  N   UNL     1       4.246   5.228  17.433  0.00  0.00    +0.000 N 
ATOM      9  N   UNL     1       4.703   4.163  16.703  0.00  0.00    +0.000 NA
ATOM     10  C   UNL     1       5.358   4.696  15.671  0.00  0.00    +0.000 A 
ATOM     11  C   UNL     1       5.956   3.833  14.625  0.00  0.00    +0.000 C 
ATOM     12  C   UNL     1       5.391   6.101  15.740  0.00  0.00    +0.000 A 
ATOM     13  C   UNL     1       4.694   6.430  16.882  0.00  0.00    +0.000 A 
ATOM     14  C   UNL     1       4.439   7.774  17.461  0.00  0.00    +0.000 C 
ATOM     15  N   UNL     1       2.874   6.123  19.178  0.00  0.00    +0.000 NA
ATOM     16  H   UNL     1       0.640   6.852  21.314  0.00  0.00    +0.000 HD
ENDROOT
BRANCH   1  20
ATOM     17  C   UNL     1       1.201  10.849  18.946  0.00  0.00    +0.000 A 
ATOM     18  C   UNL     1       1.608   9.708  18.248  0.00  0.00    +0.000 A 
ATOM     19  C   UNL     1       1.703   8.474  18.900  0.00  0.00    +0.000 A 
ATOM     20  C   UNL     1       1.376   8.356  20.253  0.00  0.00    +0.000 A 
ATOM     21  C   UNL     1       1.049   9.515  20.968  0.00  0.00    +0.000 A 
ATOM     22  C   UNL     1       0.949  10.747  20.319  0.00  0.00    +0.000 A 
ATOM     23 CL   UNL     1       0.477  12.122  21.257  0.00  0.00    +0.000 Cl
BRANCH  17  25
ATOM     24  C   UNL     1       2.299  12.802  18.200  0.00  0.00    +0.000 C 
ATOM     25  O   UNL     1       1.081  12.085  18.366  0.00  0.00    +0.000 OA
ENDBRANCH  17  25
ENDBRANCH   1  20
TORSDOF 2
ENDMDL
MODEL 4
REMARK VINA RESULT:      -6.9      3.558      7.294
REMARK  Name = 
REMARK  6 active torsions:
REMARK  status: ('A' for Active; 'I' for Inactive)
REMARK    1  A    between atoms: C_1  and  O_2
REMARK    2  A    between atoms: O_2  and  C_3
REMARK    3  A    between atoms: C_6  and  N_7
REMARK    4  A    between atoms: C_10  and  C_11
REMARK    5  A    between atoms: C_16  and  C_17
REMARK    6  A    between atoms: C_19  and  C_20
REMARK                            x       y       z     vdW  Elec       q    Type
REMARK                         _______ _______ _______ _____ _____    ______ ____
ROOT
ATOM      1  N   UNL     1       2.717   8.198  17.583  0.00  0.00    +0.000 N 
ATOM      2  C   UNL     1       3.580   7.072  17.624  0.00  0.00    +0.000 A 
ATOM      3  C   UNL     1       4.595   6.969  16.695  0.00  0.00    +0.000 A 
ATOM      4  C   UNL     1       5.396   5.847  16.764  0.00  0.00    +0.000 A 
ATOM      5  C   UNL     1       6.533   5.651  15.808  0.00  0.00    +0.000 C 
ATOM      6  N   UNL     1       5.193   4.872  17.669  0.00  0.00    +0.000 NA
ATOM      7  C   UNL     1       4.145   5.014  18.510  0.00  0.00    +0.000 A 
ATOM      8  N   UNL     1       3.883   3.974  19.479  0.00  0.00    +0.000 N 
ATOM      9  N   UNL     1       4.744   2.920  19.638  0.00  0.00    +0.000 NA
ATOM     10  C   UNL     1       4.258   2.216  20.660  0.00  0.00    +0.000 A 
ATOM     11  C   UNL     1       4.967   1.013  21.157  0.00  0.00    +0.000 C 
ATOM     12  C   UNL     1       3.051   2.756  21.142  0.00  0.00    +0.000 A 
ATOM     13  C   UNL     1       2.810   3.869  20.366  0.00  0.00    +0.000 A 
ATOM     14  C   UNL     1       1.658   4.805  20.417  0.00  0.00    +0.000 C 
ATOM     15  N   UNL     1       3.334   6.088  18.503  0.00  0.00    +0.000 NA
ATOM     16  H   UNL     1       3.238   9.011  17.264  0.00  0.00    +0.000 HD
ENDROOT
BRANCH   1  20
ATOM     17  C   UNL     1       0.265   9.276  20.868  0.00  0.00    +0.000 A 
ATOM     18  C   UNL     1       1.230   8.272  20.987  0.00  0.00    +0.000 A 
ATOM     19  C   UNL     1       2.039   7.933  19.897  0.00  0.00    +0.000 A 
ATOM     20  C   UNL     1       1.909   8.604  18.678  0.00  0.00    +0.000 A 
ATOM     21  C   UNL     1       0.888   9.551  18.538  0.00  0.00    +0.000 A 
ATOM     22  C   UNL     1       0.082   9.894  19.626  0.00  0.00    +0.000 A 
ATOM     23 CL   UNL     1      -1.118  11.119  19.392  0.00  0.00    +0.000 Cl
BRANCH  17  25
ATOM     24  C   UNL     1      -0.014   9.487  23.204  0.00  0.00    +0.000 C 
ATOM     25  O   UNL     1      -0.554   9.660  21.897  0.00  0.00    +0.000 OA
ENDBRANCH  17  25
ENDBRANCH   1  20
TORSDOF 2
ENDMDL
MODEL 5
REMARK VINA RESULT:      -6.8      1.122      1.467
REMARK  Name = 
REMARK  6 active torsions:
REMARK  status: ('A' for Active; 'I' for Inactive)
REMARK    1  A    between atoms: C_1  and  O_2
REMARK    2  A    between atoms: O_2  and  C_3
REMARK    3  A    between atoms: C_6  and  N_7
REMARK    4  A    between atoms: C_10  and  C_11
REMARK    5  A    between atoms: C_16  and  C_17
REMARK    6  A    between atoms: C_19  and  C_20
REMARK                            x       y       z     vdW  Elec       q    Type
REMARK                         _______ _______ _______ _____ _____    ______ ____
ROOT
ATOM      1  N   UNL     1       4.414   2.789  18.019  0.00  0.00    +0.000 N 
ATOM      2  C   UNL     1       3.624   3.419  19.015  0.00  0.00    +0.000 A 
ATOM      3  C   UNL     1       3.141   2.666  20.065  0.00  0.00    +0.000 A 
ATOM      4  C   UNL     1       2.362   3.320  20.999  0.00  0.00    +0.000 A 
ATOM      5  C   UNL     1       1.802   2.591  22.182  0.00  0.00    +0.000 C 
ATOM      6  N   UNL     1       2.053   4.625  20.891  0.00  0.00    +0.000 NA
ATOM      7  C   UNL     1       2.516   5.285  19.807  0.00  0.00    +0.000 A 
ATOM      8  N   UNL     1       2.183   6.683  19.648  0.00  0.00    +0.000 N 
ATOM      9  N   UNL     1       1.519   7.369  20.630  0.00  0.00    +0.000 NA
ATOM     10  C   UNL     1       1.462   8.631  20.203  0.00  0.00    +0.000 A 
ATOM     11  C   UNL     1       0.849   9.688  21.043  0.00  0.00    +0.000 C 
ATOM     12  C   UNL     1       2.027   8.779  18.923  0.00  0.00    +0.000 A 
ATOM     13  C   UNL     1       2.467   7.522  18.568  0.00  0.00    +0.000 A 
ATOM     14  C   UNL     1       3.117   7.087  17.306  0.00  0.00    +0.000 C 
ATOM     15  N   UNL     1       3.289   4.710  18.868  0.00  0.00    +0.000 NA
ATOM     16  H   UNL     1       4.961   2.043  18.442  0.00  0.00    +0.000 HD
ENDROOT
BRANCH   1  20
ATOM     17  C   UNL     1       6.920   5.026  15.434  0.00  0.00    +0.000 A 
ATOM     18  C   UNL     1       7.068   5.097  16.823  0.00  0.00    +0.000 A 
ATOM     19  C   UNL     1       6.240   4.346  17.663  0.00  0.00    +0.000 A 
ATOM     20  C   UNL     1       5.264   3.498  17.130  0.00  0.00    +0.000 A 
ATOM     21  C   UNL     1       5.065   3.492  15.745  0.00  0.00    +0.000 A 
ATOM     22  C   UNL     1       5.894   4.238  14.903  0.00  0.00    +0.000 A 
ATOM     23 CL   UNL     1       5.626   4.129  13.197  0.00  0.00    +0.000 Cl
BRANCH  17  25
ATOM     24  C   UNL     1       7.961   5.082  13.315  0.00  0.00    +0.000 C 
ATOM     25  O   UNL     1       7.703   5.730  14.556  0.00  0.00    +0.000 OA
ENDBRANCH  17  25
ENDBRANCH   1  20
TORSDOF 2
ENDMDL
MODEL 6
REMARK VINA RESULT:      -6.6      6.601     11.064
REMARK  Name = 
REMARK  6 active torsions:
REMARK  status: ('A' for Active; 'I' for Inactive)
REMARK    1  A    between atoms: C_1  and  O_2
REMARK    2  A    between atoms: O_2  and  C_3
REMARK    3  A    between atoms: C_6  and  N_7
REMARK    4  A    between atoms: C_10  and  C_11
REMARK    5  A    between atoms: C_16  and  C_17
REMARK    6  A    between atoms: C_19  and  C_20
REMARK                            x       y       z     vdW  Elec       q    Type
REMARK                         _______ _______ _______ _____ _____    ______ ____
ROOT
ATOM      1  N   UNL     1      -4.141  12.455  19.477  0.00  0.00    +0.000 N 
ATOM      2  C   UNL     1      -3.338  11.729  18.559  0.00  0.00    +0.000 A 
ATOM      3  C   UNL     1      -3.785  11.556  17.266  0.00  0.00    +0.000 A 
ATOM      4  C   UNL     1      -2.977  10.827  16.416  0.00  0.00    +0.000 A 
ATOM      5  C   UNL     1      -3.370  10.597  14.988  0.00  0.00    +0.000 C 
ATOM      6  N   UNL     1      -1.818  10.276  16.821  0.00  0.00    +0.000 NA
ATOM      7  C   UNL     1      -1.473  10.440  18.117  0.00  0.00    +0.000 A 
ATOM      8  N   UNL     1      -0.246   9.840  18.591  0.00  0.00    +0.000 N 
ATOM      9  N   UNL     1       0.622   9.224  17.729  0.00  0.00    +0.000 NA
ATOM     10  C   UNL     1       1.673   8.876  18.472  0.00  0.00    +0.000 A 
ATOM     11  C   UNL     1       2.852   8.221  17.857  0.00  0.00    +0.000 C 
ATOM     12  C   UNL     1       1.487   9.201  19.828  0.00  0.00    +0.000 A 
ATOM     13  C   UNL     1       0.248   9.799  19.897  0.00  0.00    +0.000 A 
ATOM     14  C   UNL     1      -0.470  10.314  21.090  0.00  0.00    +0.000 C 
ATOM     15  N   UNL     1      -2.208  11.149  18.993  0.00  0.00    +0.000 NA
ATOM     16  H   UNL     1      -4.645  13.186  18.980  0.00  0.00    +0.000 HD
ENDROOT
BRANCH   1  20
ATOM     17  C   UNL     1      -2.514  14.096  23.030  0.00  0.00    +0.000 A 
ATOM     18  C   UNL     1      -2.047  14.491  21.773  0.00  0.00    +0.000 A 
ATOM     19  C   UNL     1      -2.600  13.948  20.609  0.00  0.00    +0.000 A 
ATOM     20  C   UNL     1      -3.640  13.017  20.680  0.00  0.00    +0.000 A 
ATOM     21  C   UNL     1      -4.049  12.564  21.940  0.00  0.00    +0.000 A 
ATOM     22  C   UNL     1      -3.501  13.108  23.105  0.00  0.00    +0.000 A 
ATOM     23 CL   UNL     1      -4.103  12.542  24.625  0.00  0.00    +0.000 Cl
BRANCH  17  25
ATOM     24  C   UNL     1      -1.239  15.778  24.090  0.00  0.00    +0.000 C 
ATOM     25  O   UNL     1      -2.022  14.594  24.208  0.00  0.00    +0.000 OA
ENDBRANCH  17  25
ENDBRANCH   1  20
TORSDOF 2
ENDMDL
MODEL 7
REMARK VINA RESULT:      -6.6      2.912      6.509
REMARK  Name = 
REMARK  6 active torsions:
REMARK  status: ('A' for Active; 'I' for Inactive)
REMARK    1  A    between atoms: C_1  and  O_2
REMARK    2  A    between atoms: O_2  and  C_3
REMARK    3  A    between atoms: C_6  and  N_7
REMARK    4  A    between atoms: C_10  and  C_11
REMARK    5  A    between atoms: C_16  and  C_17
REMARK    6  A    between atoms: C_19  and  C_20
REMARK                            x       y       z     vdW  Elec       q    Type
REMARK                         _______ _______ _______ _____ _____    ______ ____
ROOT
ATOM      1  N   UNL     1       1.553   6.386  21.135  0.00  0.00    +0.000 N 
ATOM      2  C   UNL     1       2.033   5.378  20.259  0.00  0.00    +0.000 A 
ATOM      3  C   UNL     1       1.748   4.057  20.536  0.00  0.00    +0.000 A 
ATOM      4  C   UNL     1       2.253   3.111  19.666  0.00  0.00    +0.000 A 
ATOM      5  C   UNL     1       1.985   1.651  19.873  0.00  0.00    +0.000 C 
ATOM      6  N   UNL     1       3.016   3.441  18.608  0.00  0.00    +0.000 NA
ATOM      7  C   UNL     1       3.301   4.750  18.432  0.00  0.00    +0.000 A 
ATOM      8  N   UNL     1       4.139   5.138  17.320  0.00  0.00    +0.000 N 
ATOM      9  N   UNL     1       4.539   4.223  16.382  0.00  0.00    +0.000 NA
ATOM     10  C   UNL     1       5.205   4.925  15.464  0.00  0.00    +0.000 A 
ATOM     11  C   UNL     1       5.751   4.265  14.254  0.00  0.00    +0.000 C 
ATOM     12  C   UNL     1       5.303   6.285  15.813  0.00  0.00    +0.000 A 
ATOM     13  C   UNL     1       4.635   6.406  17.012  0.00  0.00    +0.000 A 
ATOM     14  C   UNL     1       4.449   7.616  17.853  0.00  0.00    +0.000 C 
ATOM     15  N   UNL     1       2.830   5.722  19.236  0.00  0.00    +0.000 NA
ATOM     16  H   UNL     1       0.657   6.100  21.521  0.00  0.00    +0.000 HD
ENDROOT
BRANCH   1  20
ATOM     17  C   UNL     1       1.111  10.471  20.094  0.00  0.00    +0.000 A 
ATOM     18  C   UNL     1       0.878  10.030  21.400  0.00  0.00    +0.000 A 
ATOM     19  C   UNL     1       1.037   8.680  21.731  0.00  0.00    +0.000 A 
ATOM     20  C   UNL     1       1.449   7.754  20.769  0.00  0.00    +0.000 A 
ATOM     21  C   UNL     1       1.602   8.184  19.445  0.00  0.00    +0.000 A 
ATOM     22  C   UNL     1       1.448   9.532  19.113  0.00  0.00    +0.000 A 
ATOM     23 CL   UNL     1       1.715   9.997  17.468  0.00  0.00    +0.000 Cl
BRANCH  17  25
ATOM     24  C   UNL     1       1.603  12.734  20.559  0.00  0.00    +0.000 C 
ATOM     25  O   UNL     1       0.981  11.779  19.705  0.00  0.00    +0.000 OA
ENDBRANCH  17  25
ENDBRANCH   1  20
TORSDOF 2
ENDMDL
MODEL 8
REMARK VINA RESULT:      -6.6      3.099      6.377
REMARK  Name = 
REMARK  6 active torsions:
REMARK  status: ('A' for Active; 'I' for Inactive)
REMARK    1  A    between atoms: C_1  and  O_2
REMARK    2  A    between atoms: O_2  and  C_3
REMARK    3  A    between atoms: C_6  and  N_7
REMARK    4  A    between atoms: C_10  and  C_11
REMARK    5  A    between atoms: C_16  and  C_17
REMARK    6  A    between atoms: C_19  and  C_20
REMARK                            x       y       z     vdW  Elec       q    Type
REMARK                         _______ _______ _______ _____ _____    ______ ____
ROOT
ATOM      1  N   UNL     1       2.236   6.176  20.729  0.00  0.00    +0.000 N 
ATOM      2  C   UNL     1       2.846   5.164  19.943  0.00  0.00    +0.000 A 
ATOM      3  C   UNL     1       2.857   3.866  20.411  0.00  0.00    +0.000 A 
ATOM      4  C   UNL     1       3.478   2.920  19.620  0.00  0.00    +0.000 A 
ATOM      5  C   UNL     1       3.530   1.481  20.035  0.00  0.00    +0.000 C 
ATOM      6  N   UNL     1       4.077   3.236  18.457  0.00  0.00    +0.000 NA
ATOM      7  C   UNL     1       4.075   4.536  18.090  0.00  0.00    +0.000 A 
ATOM      8  N   UNL     1       4.731   4.914  16.859  0.00  0.00    +0.000 N 
ATOM      9  N   UNL     1       5.238   3.968  16.007  0.00  0.00    +0.000 NA
ATOM     10  C   UNL     1       5.676   4.645  14.946  0.00  0.00    +0.000 A 
ATOM     11  C   UNL     1       6.254   3.936  13.779  0.00  0.00    +0.000 C 
ATOM     12  C   UNL     1       5.521   6.034  15.109  0.00  0.00    +0.000 A 
ATOM     13  C   UNL     1       4.933   6.196  16.345  0.00  0.00    +0.000 A 
ATOM     14  C   UNL     1       4.568   7.455  17.042  0.00  0.00    +0.000 C 
ATOM     15  N   UNL     1       3.477   5.504  18.810  0.00  0.00    +0.000 NA
ATOM     16  H   UNL     1       1.450   5.782  21.238  0.00  0.00    +0.000 HD
ENDROOT
BRANCH   1  20
ATOM     17  C   UNL     1       1.149   9.944  19.122  0.00  0.00    +0.000 A 
ATOM     18  C   UNL     1       1.755   8.968  18.326  0.00  0.00    +0.000 A 
ATOM     19  C   UNL     1       2.100   7.726  18.868  0.00  0.00    +0.000 A 
ATOM     20  C   UNL     1       1.828   7.432  20.207  0.00  0.00    +0.000 A 
ATOM     21  C   UNL     1       1.296   8.439  21.020  0.00  0.00    +0.000 A 
ATOM     22  C   UNL     1       0.947   9.679  20.481  0.00  0.00    +0.000 A 
ATOM     23 CL   UNL     1       0.235  10.851  21.536  0.00  0.00    +0.000 Cl
BRANCH  17  25
ATOM     24  C   UNL     1       1.838  12.121  18.517  0.00  0.00    +0.000 C 
ATOM     25  O   UNL     1       0.780  11.178  18.652  0.00  0.00    +0.000 OA
ENDBRANCH  17  25
ENDBRANCH   1  20
TORSDOF 2
ENDMDL
MODEL 9
REMARK VINA RESULT:      -6.4      6.207     10.832
REMARK  Name = 
REMARK  6 active torsions:
REMARK  status: ('A' for Active; 'I' for Inactive)
REMARK    1  A    between atoms: C_1  and  O_2
REMARK    2  A    between atoms: O_2  and  C_3
REMARK    3  A    between atoms: C_6  and  N_7
REMARK    4  A    between atoms: C_10  and  C_11
REMARK    5  A    between atoms: C_16  and  C_17
REMARK    6  A    between atoms: C_19  and  C_20
REMARK                            x       y       z     vdW  Elec       q    Type
REMARK                         _______ _______ _______ _____ _____    ______ ____
ROOT
ATOM      1  N   UNL     1      -3.446  12.627  19.873  0.00  0.00    +0.000 N 
ATOM      2  C   UNL     1      -2.789  11.835  18.896  0.00  0.00    +0.000 A 
ATOM      3  C   UNL     1      -3.356  11.705  17.645  0.00  0.00    +0.000 A 
ATOM      4  C   UNL     1      -2.689  10.910  16.735  0.00  0.00    +0.000 A 
ATOM      5  C   UNL     1      -3.218  10.718  15.346  0.00  0.00    +0.000 C 
ATOM      6  N   UNL     1      -1.554  10.257  17.045  0.00  0.00    +0.000 NA
ATOM      7  C   UNL     1      -1.088  10.387  18.306  0.00  0.00    +0.000 A 
ATOM      8  N   UNL     1       0.117   9.680  18.680  0.00  0.00    +0.000 N 
ATOM      9  N   UNL     1       0.851   8.992  17.752  0.00  0.00    +0.000 NA
ATOM     10  C   UNL     1       1.926   8.551  18.407  0.00  0.00    +0.000 A 
ATOM     11  C   UNL     1       2.987   7.795  17.699  0.00  0.00    +0.000 C 
ATOM     12  C   UNL     1       1.883   8.888  19.772  0.00  0.00    +0.000 A 
ATOM     13  C   UNL     1       0.712   9.592  19.941  0.00  0.00    +0.000 A 
ATOM     14  C   UNL     1       0.144  10.166  21.187  0.00  0.00    +0.000 C 
ATOM     15  N   UNL     1      -1.683  11.156  19.237  0.00  0.00    +0.000 NA
ATOM     16  H   UNL     1      -3.923  13.400  19.417  0.00  0.00    +0.000 HD
ENDROOT
BRANCH   1  20
ATOM     17  C   UNL     1      -1.638  14.170  23.383  0.00  0.00    +0.000 A 
ATOM     18  C   UNL     1      -2.501  13.072  23.439  0.00  0.00    +0.000 A 
ATOM     19  C   UNL     1      -3.083  12.568  22.271  0.00  0.00    +0.000 A 
ATOM     20  C   UNL     1      -2.798  13.139  21.028  0.00  0.00    +0.000 A 
ATOM     21  C   UNL     1      -1.999  14.288  20.986  0.00  0.00    +0.000 A 
ATOM     22  C   UNL     1      -1.413  14.791  22.150  0.00  0.00    +0.000 A 
ATOM     23 CL   UNL     1      -0.386  16.176  22.007  0.00  0.00    +0.000 Cl
BRANCH  17  25
ATOM     24  C   UNL     1      -1.903  15.338  25.419  0.00  0.00    +0.000 C 
ATOM     25  O   UNL     1      -1.030  14.707  24.487  0.00  0.00    +0.000 OA
ENDBRANCH  17  25
ENDBRANCH   1  20
TORSDOF 2
ENDMDL
