MODEL 1
REMARK VINA RESULT:      -6.7      0.000      0.000
REMARK  Name = 
REMARK  4 active torsions:
REMARK  status: ('A' for Active; 'I' for Inactive)
REMARK    1  A    between atoms: C_4  and  C_5
REMARK    2  A    between atoms: C_7  and  N_8
REMARK    3  A    between atoms: N_8  and  C_9
REMARK    4  A    between atoms: C_9  and  C_10
REMARK                            x       y       z     vdW  Elec       q    Type
REMARK                         _______ _______ _______ _____ _____    ______ ____
ROOT
ATOM      1  C   UNL     1       2.960   5.942  19.701  0.00  0.00    +0.000 C 
ATOM      2  C   UNL     1       2.058   4.822  20.157  0.00  0.00    +0.000 C 
ATOM      3  C   UNL     1       2.739   4.722  18.826  0.00  0.00    +0.000 C 
ENDROOT
BRANCH   1   7
ATOM      4  C   UNL     1       1.215   9.788  18.728  0.00  0.00    +0.000 A 
ATOM      5  C   UNL     1       1.051   9.246  19.998  0.00  0.00    +0.000 A 
ATOM      6  C   UNL     1       1.616   8.006  20.303  0.00  0.00    +0.000 A 
ATOM      7  C   UNL     1       2.349   7.277  19.351  0.00  0.00    +0.000 A 
ATOM      8  C   UNL     1       2.514   7.855  18.082  0.00  0.00    +0.000 A 
ATOM      9  C   UNL     1       1.951   9.095  17.770  0.00  0.00    +0.000 A 
ENDBRANCH   1   7
BRANCH   3  10
ATOM     10  N   UNL     1       3.842   3.770  18.626  0.00  0.00    +0.000 NA
ATOM     11  H   UNL     1       3.684   2.898  19.133  0.00  0.00    +0.000 HD
BRANCH  10  12
ATOM     12  C   UNL     1       4.070   3.458  17.214  0.00  0.00    +0.000 C 
BRANCH  12  13
ATOM     13  C   UNL     1       5.253   4.218  16.669  0.00  0.00    +0.000 A 
ATOM     14  C   UNL     1       5.593   4.144  15.315  0.00  0.00    +0.000 A 
ATOM     15  C   UNL     1       6.684   4.868  14.862  0.00  0.00    +0.000 A 
ATOM     16  N   UNL     1       7.451   5.648  15.655  0.00  0.00    +0.000 NA
ATOM     17  C   UNL     1       7.108   5.703  16.959  0.00  0.00    +0.000 A 
ATOM     18  C   UNL     1       6.034   5.020  17.506  0.00  0.00    +0.000 A 
ENDBRANCH  12  13
ENDBRANCH  10  12
ENDBRANCH   3  10
TORSDOF 4
ENDMDL
MODEL 2
REMARK VINA RESULT:      -6.7      0.109      1.171
REMARK  Name = 
REMARK  4 active torsions:
REMARK  status: ('A' for Active; 'I' for Inactive)
REMARK    1  A    between atoms: C_4  and  C_5
REMARK    2  A    between atoms: C_7  and  N_8
REMARK    3  A    between atoms: N_8  and  C_9
REMARK    4  A    between atoms: C_9  and  C_10
REMARK                            x       y       z     vdW  Elec       q    Type
REMARK                         _______ _______ _______ _____ _____    ______ ____
ROOT
ATOM      1  C   UNL     1       2.943   5.874  19.732  0.00  0.00    +0.000 C 
ATOM      2  C   UNL     1       2.057   4.755  20.222  0.00  0.00    +0.000 C 
ATOM      3  C   UNL     1       2.668   4.665  18.856  0.00  0.00    +0.000 C 
ENDROOT
BRANCH   1   7
ATOM      4  C   UNL     1       1.159   9.719  18.832  0.00  0.00    +0.000 A 
ATOM      5  C   UNL     1       1.846   9.018  17.847  0.00  0.00    +0.000 A 
ATOM      6  C   UNL     1       2.418   7.779  18.145  0.00  0.00    +0.000 A 
ATOM      7  C   UNL     1       2.325   7.217  19.429  0.00  0.00    +0.000 A 
ATOM      8  C   UNL     1       1.612   7.937  20.400  0.00  0.00    +0.000 A 
ATOM      9  C   UNL     1       1.038   9.177  20.109  0.00  0.00    +0.000 A 
ENDBRANCH   1   7
BRANCH   3  10
ATOM     10  N   UNL     1       3.752   3.707  18.589  0.00  0.00    +0.000 NA
ATOM     11  H   UNL     1       3.578   2.807  19.038  0.00  0.00    +0.000 HD
BRANCH  10  12
ATOM     12  C   UNL     1       3.970   3.485  17.159  0.00  0.00    +0.000 C 
BRANCH  12  13
ATOM     13  C   UNL     1       5.190   4.224  16.670  0.00  0.00    +0.000 A 
ATOM     14  C   UNL     1       5.553   4.200  15.320  0.00  0.00    +0.000 A 
ATOM     15  C   UNL     1       6.678   4.902  14.919  0.00  0.00    +0.000 A 
ATOM     16  N   UNL     1       7.457   5.616  15.760  0.00  0.00    +0.000 NA
ATOM     17  C   UNL     1       7.092   5.625  17.060  0.00  0.00    +0.000 A 
ATOM     18  C   UNL     1       5.984   4.958  17.556  0.00  0.00    +0.000 A 
ENDBRANCH  12  13
ENDBRANCH  10  12
ENDBRANCH   3  10
TORSDOF 4
ENDMDL
MODEL 3
REMARK VINA RESULT:      -6.6      0.534      1.627
REMARK  Name = 
REMARK  4 active torsions:
REMARK  status: ('A' for Active; 'I' for Inactive)
REMARK    1  A    between atoms: C_4  and  C_5
REMARK    2  A    between atoms: C_7  and  N_8
REMARK    3  A    between atoms: N_8  and  C_9
REMARK    4  A    between atoms: C_9  and  C_10
REMARK                            x       y       z     vdW  Elec       q    Type
REMARK                         _______ _______ _______ _____ _____    ______ ____
ROOT
ATOM      1  C   UNL     1       2.891   6.094  19.710  0.00  0.00    +0.000 C 
ATOM      2  C   UNL     1       2.146   5.012  20.450  0.00  0.00    +0.000 C 
ATOM      3  C   UNL     1       2.437   4.839  18.990  0.00  0.00    +0.000 C 
ENDROOT
BRANCH   1   7
ATOM      4  C   UNL     1       0.930   9.894  19.005  0.00  0.00    +0.000 A 
ATOM      5  C   UNL     1       1.605   9.252  17.973  0.00  0.00    +0.000 A 
ATOM      6  C   UNL     1       2.235   8.028  18.208  0.00  0.00    +0.000 A 
ATOM      7  C   UNL     1       2.212   7.421  19.475  0.00  0.00    +0.000 A 
ATOM      8  C   UNL     1       1.509   8.081  20.495  0.00  0.00    +0.000 A 
ATOM      9  C   UNL     1       0.877   9.306  20.267  0.00  0.00    +0.000 A 
ENDBRANCH   1   7
BRANCH   3  10
ATOM     10  N   UNL     1       3.440   3.860  18.543  0.00  0.00    +0.000 NA
ATOM     11  H   UNL     1       3.211   2.916  18.857  0.00  0.00    +0.000 HD
BRANCH  10  12
ATOM     12  C   UNL     1       3.608   3.845  17.089  0.00  0.00    +0.000 C 
BRANCH  12  13
ATOM     13  C   UNL     1       4.896   4.513  16.679  0.00  0.00    +0.000 A 
ATOM     14  C   UNL     1       5.248   5.768  17.184  0.00  0.00    +0.000 A 
ATOM     15  C   UNL     1       6.446   6.336  16.782  0.00  0.00    +0.000 A 
ATOM     16  N   UNL     1       7.306   5.747  15.922  0.00  0.00    +0.000 NA
ATOM     17  C   UNL     1       6.946   4.538  15.443  0.00  0.00    +0.000 A 
ATOM     18  C   UNL     1       5.772   3.887  15.787  0.00  0.00    +0.000 A 
ENDBRANCH  12  13
ENDBRANCH  10  12
ENDBRANCH   3  10
TORSDOF 4
ENDMDL
MODEL 4
REMARK VINA RESULT:      -6.6      2.513      6.656
REMARK  Name = 
REMARK  4 active torsions:
REMARK  status: ('A' for Active; 'I' for Inactive)
REMARK    1  A    between atoms: C_4  and  C_5
REMARK    2  A    between atoms: C_7  and  N_8
REMARK    3  A    between atoms: N_8  and  C_9
REMARK    4  A    between atoms: C_9  and  C_10
REMARK                            x       y       z     vdW  Elec       q    Type
REMARK                         _______ _______ _______ _____ _____    ______ ____
ROOT
ATOM      1  C   UNL     1       6.524   4.968  16.250  0.00  0.00    +0.000 C 
ATOM      2  C   UNL     1       7.156   6.215  16.818  0.00  0.00    +0.000 C 
ATOM      3  C   UNL     1       5.662   6.106  16.763  0.00  0.00    +0.000 C 
ENDROOT
BRANCH   1   7
ATOM      4  C   UNL     1       6.935   4.165  12.011  0.00  0.00    +0.000 A 
ATOM      5  C   UNL     1       7.773   5.083  12.635  0.00  0.00    +0.000 A 
ATOM      6  C   UNL     1       7.634   5.336  14.001  0.00  0.00    +0.000 A 
ATOM      7  C   UNL     1       6.655   4.688  14.773  0.00  0.00    +0.000 A 
ATOM      8  C   UNL     1       5.834   3.753  14.123  0.00  0.00    +0.000 A 
ATOM      9  C   UNL     1       5.967   3.496  12.756  0.00  0.00    +0.000 A 
ENDBRANCH   1   7
BRANCH   3  10
ATOM     10  N   UNL     1       4.885   5.922  17.998  0.00  0.00    +0.000 NA
ATOM     11  H   UNL     1       5.138   6.610  18.709  0.00  0.00    +0.000 HD
BRANCH  10  12
ATOM     12  C   UNL     1       3.440   5.990  17.772  0.00  0.00    +0.000 C 
BRANCH  12  13
ATOM     13  C   UNL     1       2.776   4.670  18.072  0.00  0.00    +0.000 A 
ATOM     14  C   UNL     1       1.827   4.558  19.093  0.00  0.00    +0.000 A 
ATOM     15  C   UNL     1       1.240   3.325  19.325  0.00  0.00    +0.000 A 
ATOM     16  N   UNL     1       1.529   2.210  18.619  0.00  0.00    +0.000 NA
ATOM     17  C   UNL     1       2.450   2.338  17.640  0.00  0.00    +0.000 A 
ATOM     18  C   UNL     1       3.089   3.527  17.330  0.00  0.00    +0.000 A 
ENDBRANCH  12  13
ENDBRANCH  10  12
ENDBRANCH   3  10
TORSDOF 4
ENDMDL
MODEL 5
REMARK VINA RESULT:      -6.6      2.587      4.177
REMARK  Name = 
REMARK  4 active torsions:
REMARK  status: ('A' for Active; 'I' for Inactive)
REMARK    1  A    between atoms: C_4  and  C_5
REMARK    2  A    between atoms: C_7  and  N_8
REMARK    3  A    between atoms: N_8  and  C_9
REMARK    4  A    between atoms: C_9  and  C_10
REMARK                            x       y       z     vdW  Elec       q    Type
REMARK                         _______ _______ _______ _____ _____    ______ ____
ROOT
ATOM      1  C   UNL     1       3.856   4.470  17.380  0.00  0.00    +0.000 C 
ATOM      2  C   UNL     1       4.520   5.818  17.518  0.00  0.00    +0.000 C 
ATOM      3  C   UNL     1       5.297   4.578  17.842  0.00  0.00    +0.000 C 
ENDROOT
BRANCH   1   7
ATOM      4  C   UNL     1       0.696   3.365  20.132  0.00  0.00    +0.000 A 
ATOM      5  C   UNL     1       0.968   2.571  19.023  0.00  0.00    +0.000 A 
ATOM      6  C   UNL     1       1.988   2.934  18.141  0.00  0.00    +0.000 A 
ATOM      7  C   UNL     1       2.753   4.097  18.339  0.00  0.00    +0.000 A 
ATOM      8  C   UNL     1       2.469   4.870  19.476  0.00  0.00    +0.000 A 
ATOM      9  C   UNL     1       1.449   4.513  20.362  0.00  0.00    +0.000 A 
ENDBRANCH   1   7
BRANCH   3  10
ATOM     10  N   UNL     1       6.376   4.123  16.950  0.00  0.00    +0.000 NA
ATOM     11  H   UNL     1       6.080   3.336  16.372  0.00  0.00    +0.000 HD
BRANCH  10  12
ATOM     12  C   UNL     1       6.873   5.188  16.077  0.00  0.00    +0.000 C 
BRANCH  12  13
ATOM     13  C   UNL     1       6.834   4.772  14.629  0.00  0.00    +0.000 A 
ATOM     14  C   UNL     1       7.729   5.313  13.701  0.00  0.00    +0.000 A 
ATOM     15  C   UNL     1       7.658   4.892  12.383  0.00  0.00    +0.000 A 
ATOM     16  N   UNL     1       6.768   3.981  11.931  0.00  0.00    +0.000 NA
ATOM     17  C   UNL     1       5.911   3.473  12.842  0.00  0.00    +0.000 A 
ATOM     18  C   UNL     1       5.906   3.827  14.181  0.00  0.00    +0.000 A 
ENDBRANCH  12  13
ENDBRANCH  10  12
ENDBRANCH   3  10
TORSDOF 4
ENDMDL
MODEL 6
REMARK VINA RESULT:      -6.6      2.906      4.310
REMARK  Name = 
REMARK  4 active torsions:
REMARK  status: ('A' for Active; 'I' for Inactive)
REMARK    1  A    between atoms: C_4  and  C_5
REMARK    2  A    between atoms: C_7  and  N_8
REMARK    3  A    between atoms: N_8  and  C_9
REMARK    4  A    between atoms: C_9  and  C_10
REMARK                            x       y       z     vdW  Elec       q    Type
REMARK                         _______ _______ _______ _____ _____    ______ ____
ROOT
ATOM      1  C   UNL     1       3.732   3.924  17.716  0.00  0.00    +0.000 C 
ATOM      2  C   UNL     1       4.046   5.355  17.357  0.00  0.00    +0.000 C 
ATOM      3  C   UNL     1       5.145   4.460  17.844  0.00  0.00    +0.000 C 
ENDROOT
BRANCH   1   7
ATOM      4  C   UNL     1       1.280   3.113  21.197  0.00  0.00    +0.000 A 
ATOM      5  C   UNL     1       0.744   3.785  20.104  0.00  0.00    +0.000 A 
ATOM      6  C   UNL     1       1.541   4.042  18.986  0.00  0.00    +0.000 A 
ATOM      7  C   UNL     1       2.887   3.644  18.935  0.00  0.00    +0.000 A 
ATOM      8  C   UNL     1       3.399   2.952  20.045  0.00  0.00    +0.000 A 
ATOM      9  C   UNL     1       2.607   2.692  21.166  0.00  0.00    +0.000 A 
ENDBRANCH   1   7
BRANCH   3  10
ATOM     10  N   UNL     1       6.183   3.985  16.916  0.00  0.00    +0.000 NA
ATOM     11  H   UNL     1       5.826   3.264  16.287  0.00  0.00    +0.000 HD
BRANCH  10  12
ATOM     12  C   UNL     1       6.760   5.065  16.113  0.00  0.00    +0.000 C 
BRANCH  12  13
ATOM     13  C   UNL     1       6.783   4.707  14.649  0.00  0.00    +0.000 A 
ATOM     14  C   UNL     1       7.680   5.325  13.772  0.00  0.00    +0.000 A 
ATOM     15  C   UNL     1       7.668   4.955  12.437  0.00  0.00    +0.000 A 
ATOM     16  N   UNL     1       6.833   4.026  11.921  0.00  0.00    +0.000 NA
ATOM     17  C   UNL     1       5.972   3.444  12.783  0.00  0.00    +0.000 A 
ATOM     18  C   UNL     1       5.911   3.743  14.135  0.00  0.00    +0.000 A 
ENDBRANCH  12  13
ENDBRANCH  10  12
ENDBRANCH   3  10
TORSDOF 4
ENDMDL
MODEL 7
REMARK VINA RESULT:      -6.6      2.413      5.229
REMARK  Name = 
REMARK  4 active torsions:
REMARK  status: ('A' for Active; 'I' for Inactive)
REMARK    1  A    between atoms: C_4  and  C_5
REMARK    2  A    between atoms: C_7  and  N_8
REMARK    3  A    between atoms: N_8  and  C_9
REMARK    4  A    between atoms: C_9  and  C_10
REMARK                            x       y       z     vdW  Elec       q    Type
REMARK                         _______ _______ _______ _____ _____    ______ ____
ROOT
ATOM      1  C   UNL     1       4.302   6.435  18.096  0.00  0.00    +0.000 C 
ATOM      2  C   UNL     1       3.297   7.523  17.811  0.00  0.00    +0.000 C 
ATOM      3  C   UNL     1       2.850   6.271  18.504  0.00  0.00    +0.000 C 
ENDROOT
BRANCH   1   7
ATOM      4  C   UNL     1       5.951   4.173  14.788  0.00  0.00    +0.000 A 
ATOM      5  C   UNL     1       5.662   3.542  15.993  0.00  0.00    +0.000 A 
ATOM      6  C   UNL     1       5.131   4.278  17.054  0.00  0.00    +0.000 A 
ATOM      7  C   UNL     1       4.883   5.656  16.941  0.00  0.00    +0.000 A 
ATOM      8  C   UNL     1       5.168   6.265  15.709  0.00  0.00    +0.000 A 
ATOM      9  C   UNL     1       5.700   5.535  14.643  0.00  0.00    +0.000 A 
ENDBRANCH   1   7
BRANCH   3  10
ATOM     10  N   UNL     1       2.494   6.299  19.931  0.00  0.00    +0.000 NA
ATOM     11  H   UNL     1       1.959   7.134  20.170  0.00  0.00    +0.000 HD
BRANCH  10  12
ATOM     12  C   UNL     1       1.735   5.118  20.347  0.00  0.00    +0.000 C 
BRANCH  12  13
ATOM     13  C   UNL     1       2.281   3.864  19.713  0.00  0.00    +0.000 A 
ATOM     14  C   UNL     1       1.667   3.298  18.592  0.00  0.00    +0.000 A 
ATOM     15  C   UNL     1       2.213   2.149  18.042  0.00  0.00    +0.000 A 
ATOM     16  N   UNL     1       3.313   1.533  18.527  0.00  0.00    +0.000 NA
ATOM     17  C   UNL     1       3.889   2.093  19.612  0.00  0.00    +0.000 A 
ATOM     18  C   UNL     1       3.421   3.241  20.230  0.00  0.00    +0.000 A 
ENDBRANCH  12  13
ENDBRANCH  10  12
ENDBRANCH   3  10
TORSDOF 4
ENDMDL
MODEL 8
REMARK VINA RESULT:      -6.6      2.416      5.332
REMARK  Name = 
REMARK  4 active torsions:
REMARK  status: ('A' for Active; 'I' for Inactive)
REMARK    1  A    between atoms: C_4  and  C_5
REMARK    2  A    between atoms: C_7  and  N_8
REMARK    3  A    between atoms: N_8  and  C_9
REMARK    4  A    between atoms: C_9  and  C_10
REMARK                            x       y       z     vdW  Elec       q    Type
REMARK                         _______ _______ _______ _____ _____    ______ ____
ROOT
ATOM      1  C   UNL     1       4.305   6.469  18.079  0.00  0.00    +0.000 C 
ATOM      2  C   UNL     1       3.301   7.556  17.789  0.00  0.00    +0.000 C 
ATOM      3  C   UNL     1       2.855   6.314  18.500  0.00  0.00    +0.000 C 
ENDROOT
BRANCH   1   7
ATOM      4  C   UNL     1       5.924   4.163  14.786  0.00  0.00    +0.000 A 
ATOM      5  C   UNL     1       5.606   3.540  15.988  0.00  0.00    +0.000 A 
ATOM      6  C   UNL     1       5.085   4.290  17.045  0.00  0.00    +0.000 A 
ATOM      7  C   UNL     1       4.876   5.675  16.930  0.00  0.00    +0.000 A 
ATOM      8  C   UNL     1       5.189   6.276  15.701  0.00  0.00    +0.000 A 
ATOM      9  C   UNL     1       5.711   5.532  14.640  0.00  0.00    +0.000 A 
ENDBRANCH   1   7
BRANCH   3  10
ATOM     10  N   UNL     1       2.510   6.359  19.929  0.00  0.00    +0.000 NA
ATOM     11  H   UNL     1       1.982   7.201  20.163  0.00  0.00    +0.000 HD
BRANCH  10  12
ATOM     12  C   UNL     1       1.746   5.188  20.363  0.00  0.00    +0.000 C 
BRANCH  12  13
ATOM     13  C   UNL     1       2.277   3.924  19.736  0.00  0.00    +0.000 A 
ATOM     14  C   UNL     1       3.422   3.298  20.239  0.00  0.00    +0.000 A 
ATOM     15  C   UNL     1       3.865   2.134  19.633  0.00  0.00    +0.000 A 
ATOM     16  N   UNL     1       3.254   1.558  18.573  0.00  0.00    +0.000 NA
ATOM     17  C   UNL     1       2.153   2.179  18.101  0.00  0.00    +0.000 A 
ATOM     18  C   UNL     1       1.631   3.344  18.640  0.00  0.00    +0.000 A 
ENDBRANCH  12  13
ENDBRANCH  10  12
ENDBRANCH   3  10
TORSDOF 4
ENDMDL
MODEL 9
REMARK VINA RESULT:      -6.6      1.959      4.150
REMARK  Name = 
REMARK  4 active torsions:
REMARK  status: ('A' for Active; 'I' for Inactive)
REMARK    1  A    between atoms: C_4  and  C_5
REMARK    2  A    between atoms: C_7  and  N_8
REMARK    3  A    between atoms: N_8  and  C_9
REMARK    4  A    between atoms: C_9  and  C_10
REMARK                            x       y       z     vdW  Elec       q    Type
REMARK                         _______ _______ _______ _____ _____    ______ ____
ROOT
ATOM      1  C   UNL     1       3.410   6.314  17.701  0.00  0.00    +0.000 C 
ATOM      2  C   UNL     1       4.731   6.709  17.090  0.00  0.00    +0.000 C 
ATOM      3  C   UNL     1       4.712   5.776  18.263  0.00  0.00    +0.000 C 
ENDROOT
BRANCH   1   7
ATOM      4  C   UNL     1       1.084   9.304  19.807  0.00  0.00    +0.000 A 
ATOM      5  C   UNL     1       1.437   9.500  18.476  0.00  0.00    +0.000 A 
ATOM      6  C   UNL     1       2.186   8.532  17.804  0.00  0.00    +0.000 A 
ATOM      7  C   UNL     1       2.607   7.353  18.444  0.00  0.00    +0.000 A 
ATOM      8  C   UNL     1       2.223   7.172  19.782  0.00  0.00    +0.000 A 
ATOM      9  C   UNL     1       1.473   8.137  20.460  0.00  0.00    +0.000 A 
ENDBRANCH   1   7
BRANCH   3  10
ATOM     10  N   UNL     1       5.041   4.353  18.085  0.00  0.00    +0.000 NA
ATOM     11  H   UNL     1       6.019   4.222  17.822  0.00  0.00    +0.000 HD
BRANCH  10  12
ATOM     12  C   UNL     1       4.765   3.555  19.280  0.00  0.00    +0.000 C 
BRANCH  12  13
ATOM     13  C   UNL     1       3.287   3.302  19.440  0.00  0.00    +0.000 A 
ATOM     14  C   UNL     1       2.541   2.723  18.410  0.00  0.00    +0.000 A 
ATOM     15  C   UNL     1       1.187   2.503  18.610  0.00  0.00    +0.000 A 
ATOM     16  N   UNL     1       0.535   2.819  19.750  0.00  0.00    +0.000 NA
ATOM     17  C   UNL     1       1.272   3.381  20.731  0.00  0.00    +0.000 A 
ATOM     18  C   UNL     1       2.630   3.636  20.628  0.00  0.00    +0.000 A 
ENDBRANCH  12  13
ENDBRANCH  10  12
ENDBRANCH   3  10
TORSDOF 4
ENDMDL
