MODEL 1
REMARK VINA RESULT:      -7.7      0.000      0.000
REMARK  Name = 
REMARK  5 active torsions:
REMARK  status: ('A' for Active; 'I' for Inactive)
REMARK    1  A    between atoms: C_2  and  C_13
REMARK    2  A    between atoms: N_3  and  C_4
REMARK    3  A    between atoms: C_4  and  C_5
REMARK    4  A    between atoms: C_5  and  O_6
REMARK    5  A    between atoms: O_6  and  C_7
REMARK                            x       y       z     vdW  Elec       q    Type
REMARK                         _______ _______ _______ _____ _____    ______ ____
ROOT
ATOM      1  O   UNL     1       4.365   6.431  16.831  0.00  0.00    +0.000 OA
ATOM      2  C   UNL     1       4.500   5.666  17.780  0.00  0.00    +0.000 C 
ATOM      3  N   UNL     1       5.716   5.310  18.323  0.00  0.00    +0.000 N 
ATOM      4  H   UNL     1       5.753   4.504  18.931  0.00  0.00    +0.000 HD
ENDROOT
BRANCH   2   5
ATOM      5  C   UNL     1       3.267   5.151  18.407  0.00  0.00    +0.000 A 
ATOM      6  C   UNL     1       2.232   4.544  17.662  0.00  0.00    +0.000 A 
ATOM      7  C   UNL     1       1.246   3.799  18.319  0.00  0.00    +0.000 A 
ATOM      8  C   UNL     1       1.364   3.651  19.686  0.00  0.00    +0.000 A 
ATOM      9  C   UNL     1       2.344   4.291  20.408  0.00  0.00    +0.000 A 
ATOM     10  C   UNL     1       3.287   5.079  19.807  0.00  0.00    +0.000 A 
ATOM     11  O   UNL     1       2.339   3.938  21.722  0.00  0.00    +0.000 OA
ATOM     12  C   UNL     1       1.485   2.783  21.643  0.00  0.00    +0.000 C 
ATOM     13  O   UNL     1       0.641   2.802  20.469  0.00  0.00    +0.000 OA
ENDBRANCH   2   5
BRANCH   3  14
ATOM     14  C   UNL     1       6.979   5.787  17.762  0.00  0.00    +0.000 C 
BRANCH  14  15
ATOM     15  C   UNL     1       7.537   4.925  16.625  0.00  0.00    +0.000 C 
BRANCH  15  16
ATOM     16  O   UNL     1       7.544   5.633  15.388  0.00  0.00    +0.000 OA
BRANCH  16  17
ATOM     17  C   UNL     1       7.015   4.914  14.341  0.00  0.00    +0.000 A 
ATOM     18  C   UNL     1       7.726   5.017  13.141  0.00  0.00    +0.000 A 
ATOM     19  C   UNL     1       7.278   4.366  11.996  0.00  0.00    +0.000 A 
ATOM     20  C   UNL     1       6.113   3.601  12.036  0.00  0.00    +0.000 A 
ATOM     21  C   UNL     1       5.403   3.474  13.226  0.00  0.00    +0.000 A 
ATOM     22  C   UNL     1       5.851   4.126  14.376  0.00  0.00    +0.000 A 
ENDBRANCH  16  17
ENDBRANCH  15  16
ENDBRANCH  14  15
ENDBRANCH   3  14
TORSDOF 5
ENDMDL
MODEL 2
REMARK VINA RESULT:      -7.6      1.811      6.406
REMARK  Name = 
REMARK  5 active torsions:
REMARK  status: ('A' for Active; 'I' for Inactive)
REMARK    1  A    between atoms: C_2  and  C_13
REMARK    2  A    between atoms: N_3  and  C_4
REMARK    3  A    between atoms: C_4  and  C_5
REMARK    4  A    between atoms: C_5  and  O_6
REMARK    5  A    between atoms: O_6  and  C_7
REMARK                            x       y       z     vdW  Elec       q    Type
REMARK                         _______ _______ _______ _____ _____    ______ ____
ROOT
ATOM      1  O   UNL     1       2.471   6.629  17.983  0.00  0.00    +0.000 OA
ATOM      2  C   UNL     1       3.342   6.235  18.752  0.00  0.00    +0.000 C 
ATOM      3  N   UNL     1       3.128   5.940  20.081  0.00  0.00    +0.000 N 
ATOM      4  H   UNL     1       3.930   5.858  20.690  0.00  0.00    +0.000 HD
ENDROOT
BRANCH   2   5
ATOM      5  C   UNL     1       4.686   6.011  18.184  0.00  0.00    +0.000 A 
ATOM      6  C   UNL     1       5.699   5.316  18.881  0.00  0.00    +0.000 A 
ATOM      7  C   UNL     1       6.829   4.858  18.193  0.00  0.00    +0.000 A 
ATOM      8  C   UNL     1       6.874   5.071  16.830  0.00  0.00    +0.000 A 
ATOM      9  C   UNL     1       5.909   5.796  16.171  0.00  0.00    +0.000 A 
ATOM     10  C   UNL     1       4.824   6.314  16.823  0.00  0.00    +0.000 A 
ATOM     11  O   UNL     1       6.095   5.808  14.823  0.00  0.00    +0.000 OA
ATOM     12  C   UNL     1       7.063   4.750  14.718  0.00  0.00    +0.000 C 
ATOM     13  O   UNL     1       7.770   4.525  15.959  0.00  0.00    +0.000 OA
ENDBRANCH   2   5
BRANCH   3  14
ATOM     14  C   UNL     1       1.822   6.128  20.710  0.00  0.00    +0.000 C 
BRANCH  14  15
ATOM     15  C   UNL     1       0.843   4.968  20.505  0.00  0.00    +0.000 C 
BRANCH  15  16
ATOM     16  O   UNL     1       1.405   3.729  20.927  0.00  0.00    +0.000 OA
BRANCH  16  17
ATOM     17  C   UNL     1       2.083   3.065  19.930  0.00  0.00    +0.000 A 
ATOM     18  C   UNL     1       3.337   2.572  20.301  0.00  0.00    +0.000 A 
ATOM     19  C   UNL     1       4.139   1.911  19.375  0.00  0.00    +0.000 A 
ATOM     20  C   UNL     1       3.695   1.732  18.067  0.00  0.00    +0.000 A 
ATOM     21  C   UNL     1       2.442   2.202  17.685  0.00  0.00    +0.000 A 
ATOM     22  C   UNL     1       1.637   2.865  18.611  0.00  0.00    +0.000 A 
ENDBRANCH  16  17
ENDBRANCH  15  16
ENDBRANCH  14  15
ENDBRANCH   3  14
TORSDOF 5
ENDMDL
MODEL 3
REMARK VINA RESULT:      -7.6      1.818      6.446
REMARK  Name = 
REMARK  5 active torsions:
REMARK  status: ('A' for Active; 'I' for Inactive)
REMARK    1  A    between atoms: C_2  and  C_13
REMARK    2  A    between atoms: N_3  and  C_4
REMARK    3  A    between atoms: C_4  and  C_5
REMARK    4  A    between atoms: C_5  and  O_6
REMARK    5  A    between atoms: O_6  and  C_7
REMARK                            x       y       z     vdW  Elec       q    Type
REMARK                         _______ _______ _______ _____ _____    ______ ____
ROOT
ATOM      1  O   UNL     1       2.385   6.358  17.882  0.00  0.00    +0.000 OA
ATOM      2  C   UNL     1       3.293   6.143  18.678  0.00  0.00    +0.000 C 
ATOM      3  N   UNL     1       3.113   5.989  20.035  0.00  0.00    +0.000 N 
ATOM      4  H   UNL     1       3.921   6.056  20.638  0.00  0.00    +0.000 HD
ENDROOT
BRANCH   2   5
ATOM      5  C   UNL     1       4.650   5.982  18.121  0.00  0.00    +0.000 A 
ATOM      6  C   UNL     1       5.702   5.380  18.845  0.00  0.00    +0.000 A 
ATOM      7  C   UNL     1       6.861   4.967  18.176  0.00  0.00    +0.000 A 
ATOM      8  C   UNL     1       6.897   5.129  16.807  0.00  0.00    +0.000 A 
ATOM      9  C   UNL     1       5.891   5.766  16.119  0.00  0.00    +0.000 A 
ATOM     10  C   UNL     1       4.773   6.240  16.749  0.00  0.00    +0.000 A 
ATOM     11  O   UNL     1       6.080   5.738  14.772  0.00  0.00    +0.000 OA
ATOM     12  C   UNL     1       7.113   4.739  14.709  0.00  0.00    +0.000 C 
ATOM     13  O   UNL     1       7.828   4.607  15.959  0.00  0.00    +0.000 OA
ENDBRANCH   2   5
BRANCH   3  14
ATOM     14  C   UNL     1       1.797   6.125  20.658  0.00  0.00    +0.000 C 
BRANCH  14  15
ATOM     15  C   UNL     1       0.917   4.875  20.568  0.00  0.00    +0.000 C 
BRANCH  15  16
ATOM     16  O   UNL     1       1.588   3.726  21.076  0.00  0.00    +0.000 OA
BRANCH  16  17
ATOM     17  C   UNL     1       2.311   3.046  20.124  0.00  0.00    +0.000 A 
ATOM     18  C   UNL     1       1.655   2.873  18.901  0.00  0.00    +0.000 A 
ATOM     19  C   UNL     1       2.264   2.172  17.865  0.00  0.00    +0.000 A 
ATOM     20  C   UNL     1       3.538   1.636  18.037  0.00  0.00    +0.000 A 
ATOM     21  C   UNL     1       4.213   1.813  19.241  0.00  0.00    +0.000 A 
ATOM     22  C   UNL     1       3.604   2.516  20.282  0.00  0.00    +0.000 A 
ENDBRANCH  16  17
ENDBRANCH  15  16
ENDBRANCH  14  15
ENDBRANCH   3  14
TORSDOF 5
ENDMDL
MODEL 4
REMARK VINA RESULT:      -7.5      2.671      6.689
REMARK  Name = 
REMARK  5 active torsions:
REMARK  status: ('A' for Active; 'I' for Inactive)
REMARK    1  A    between atoms: C_2  and  C_13
REMARK    2  A    between atoms: N_3  and  C_4
REMARK    3  A    between atoms: C_4  and  C_5
REMARK    4  A    between atoms: C_5  and  O_6
REMARK    5  A    between atoms: O_6  and  C_7
REMARK                            x       y       z     vdW  Elec       q    Type
REMARK                         _______ _______ _______ _____ _____    ______ ____
ROOT
ATOM      1  O   UNL     1       5.060   3.217  19.740  0.00  0.00    +0.000 OA
ATOM      2  C   UNL     1       4.939   3.295  18.522  0.00  0.00    +0.000 C 
ATOM      3  N   UNL     1       4.059   2.537  17.781  0.00  0.00    +0.000 N 
ATOM      4  H   UNL     1       4.191   2.488  16.780  0.00  0.00    +0.000 HD
ENDROOT
BRANCH   2   5
ATOM      5  C   UNL     1       5.752   4.314  17.830  0.00  0.00    +0.000 A 
ATOM      6  C   UNL     1       5.356   4.902  16.609  0.00  0.00    +0.000 A 
ATOM      7  C   UNL     1       5.986   6.069  16.161  0.00  0.00    +0.000 A 
ATOM      8  C   UNL     1       6.950   6.625  16.977  0.00  0.00    +0.000 A 
ATOM      9  C   UNL     1       7.366   6.015  18.137  0.00  0.00    +0.000 A 
ATOM     10  C   UNL     1       6.818   4.840  18.572  0.00  0.00    +0.000 A 
ATOM     11  O   UNL     1       8.255   6.773  18.835  0.00  0.00    +0.000 OA
ATOM     12  C   UNL     1       8.070   8.026  18.152  0.00  0.00    +0.000 C 
ATOM     13  O   UNL     1       7.520   7.854  16.826  0.00  0.00    +0.000 OA
ENDBRANCH   2   5
BRANCH   3  14
ATOM     14  C   UNL     1       3.215   1.514  18.397  0.00  0.00    +0.000 C 
BRANCH  14  15
ATOM     15  C   UNL     1       2.032   2.064  19.201  0.00  0.00    +0.000 C 
BRANCH  15  16
ATOM     16  O   UNL     1       1.323   3.061  18.471  0.00  0.00    +0.000 OA
BRANCH  16  17
ATOM     17  C   UNL     1       1.665   4.347  18.822  0.00  0.00    +0.000 A 
ATOM     18  C   UNL     1       1.583   4.623  20.190  0.00  0.00    +0.000 A 
ATOM     19  C   UNL     1       1.869   5.897  20.673  0.00  0.00    +0.000 A 
ATOM     20  C   UNL     1       2.244   6.910  19.793  0.00  0.00    +0.000 A 
ATOM     21  C   UNL     1       2.348   6.649  18.431  0.00  0.00    +0.000 A 
ATOM     22  C   UNL     1       2.061   5.372  17.944  0.00  0.00    +0.000 A 
ENDBRANCH  16  17
ENDBRANCH  15  16
ENDBRANCH  14  15
ENDBRANCH   3  14
TORSDOF 5
ENDMDL
MODEL 5
REMARK VINA RESULT:      -7.3      0.235      1.075
REMARK  Name = 
REMARK  5 active torsions:
REMARK  status: ('A' for Active; 'I' for Inactive)
REMARK    1  A    between atoms: C_2  and  C_13
REMARK    2  A    between atoms: N_3  and  C_4
REMARK    3  A    between atoms: C_4  and  C_5
REMARK    4  A    between atoms: C_5  and  O_6
REMARK    5  A    between atoms: O_6  and  C_7
REMARK                            x       y       z     vdW  Elec       q    Type
REMARK                         _______ _______ _______ _____ _____    ______ ____
ROOT
ATOM      1  O   UNL     1       4.436   5.819  16.463  0.00  0.00    +0.000 OA
ATOM      2  C   UNL     1       4.556   5.445  17.624  0.00  0.00    +0.000 C 
ATOM      3  N   UNL     1       5.745   5.442  18.320  0.00  0.00    +0.000 N 
ATOM      4  H   UNL     1       5.802   4.902  19.172  0.00  0.00    +0.000 HD
ENDROOT
BRANCH   2   5
ATOM      5  C   UNL     1       3.323   5.032  18.326  0.00  0.00    +0.000 A 
ATOM      6  C   UNL     1       2.193   4.530  17.644  0.00  0.00    +0.000 A 
ATOM      7  C   UNL     1       1.189   3.866  18.357  0.00  0.00    +0.000 A 
ATOM      8  C   UNL     1       1.381   3.687  19.712  0.00  0.00    +0.000 A 
ATOM      9  C   UNL     1       2.458   4.227  20.374  0.00  0.00    +0.000 A 
ATOM     10  C   UNL     1       3.427   4.938  19.720  0.00  0.00    +0.000 A 
ATOM     11  O   UNL     1       2.506   3.857  21.683  0.00  0.00    +0.000 OA
ATOM     12  C   UNL     1       1.549   2.783  21.649  0.00  0.00    +0.000 C 
ATOM     13  O   UNL     1       0.636   2.894  20.533  0.00  0.00    +0.000 OA
ENDBRANCH   2   5
BRANCH   3  14
ATOM     14  C   UNL     1       7.003   5.846  17.695  0.00  0.00    +0.000 C 
BRANCH  14  15
ATOM     15  C   UNL     1       7.468   4.937  16.553  0.00  0.00    +0.000 C 
BRANCH  15  16
ATOM     16  O   UNL     1       7.678   5.673  15.352  0.00  0.00    +0.000 OA
BRANCH  16  17
ATOM     17  C   UNL     1       7.251   5.014  14.221  0.00  0.00    +0.000 A 
ATOM     18  C   UNL     1       6.157   4.166  14.415  0.00  0.00    +0.000 A 
ATOM     19  C   UNL     1       5.649   3.415  13.359  0.00  0.00    +0.000 A 
ATOM     20  C   UNL     1       6.229   3.504  12.095  0.00  0.00    +0.000 A 
ATOM     21  C   UNL     1       7.308   4.356  11.881  0.00  0.00    +0.000 A 
ATOM     22  C   UNL     1       7.818   5.110  12.938  0.00  0.00    +0.000 A 
ENDBRANCH  16  17
ENDBRANCH  15  16
ENDBRANCH  14  15
ENDBRANCH   3  14
TORSDOF 5
ENDMDL
MODEL 6
REMARK VINA RESULT:      -7.1      3.218      6.301
REMARK  Name = 
REMARK  5 active torsions:
REMARK  status: ('A' for Active; 'I' for Inactive)
REMARK    1  A    between atoms: C_2  and  C_13
REMARK    2  A    between atoms: N_3  and  C_4
REMARK    3  A    between atoms: C_4  and  C_5
REMARK    4  A    between atoms: C_5  and  O_6
REMARK    5  A    between atoms: O_6  and  C_7
REMARK                            x       y       z     vdW  Elec       q    Type
REMARK                         _______ _______ _______ _____ _____    ______ ____
ROOT
ATOM      1  O   UNL     1       4.612   5.586  19.390  0.00  0.00    +0.000 OA
ATOM      2  C   UNL     1       3.751   5.798  18.542  0.00  0.00    +0.000 C 
ATOM      3  N   UNL     1       3.645   5.108  17.355  0.00  0.00    +0.000 N 
ATOM      4  H   UNL     1       3.071   5.500  16.621  0.00  0.00    +0.000 HD
ENDROOT
BRANCH   2   5
ATOM      5  C   UNL     1       2.735   6.822  18.861  0.00  0.00    +0.000 A 
ATOM      6  C   UNL     1       2.142   6.932  20.137  0.00  0.00    +0.000 A 
ATOM      7  C   UNL     1       1.436   8.091  20.479  0.00  0.00    +0.000 A 
ATOM      8  C   UNL     1       1.396   9.110  19.548  0.00  0.00    +0.000 A 
ATOM      9  C   UNL     1       1.929   8.970  18.288  0.00  0.00    +0.000 A 
ATOM     10  C   UNL     1       2.570   7.826  17.898  0.00  0.00    +0.000 A 
ATOM     11  O   UNL     1       1.864  10.120  17.563  0.00  0.00    +0.000 OA
ATOM     12  C   UNL     1       1.547  11.038  18.624  0.00  0.00    +0.000 C 
ATOM     13  O   UNL     1       0.950  10.380  19.764  0.00  0.00    +0.000 OA
ENDBRANCH   2   5
BRANCH   3  14
ATOM     14  C   UNL     1       4.608   4.076  16.975  0.00  0.00    +0.000 C 
BRANCH  14  15
ATOM     15  C   UNL     1       4.295   2.680  17.524  0.00  0.00    +0.000 C 
BRANCH  15  16
ATOM     16  O   UNL     1       2.891   2.455  17.605  0.00  0.00    +0.000 OA
BRANCH  16  17
ATOM     17  C   UNL     1       2.366   2.704  18.853  0.00  0.00    +0.000 A 
ATOM     18  C   UNL     1       3.217   2.399  19.919  0.00  0.00    +0.000 A 
ATOM     19  C   UNL     1       2.794   2.573  21.233  0.00  0.00    +0.000 A 
ATOM     20  C   UNL     1       1.514   3.056  21.498  0.00  0.00    +0.000 A 
ATOM     21  C   UNL     1       0.660   3.381  20.449  0.00  0.00    +0.000 A 
ATOM     22  C   UNL     1       1.082   3.208  19.130  0.00  0.00    +0.000 A 
ENDBRANCH  16  17
ENDBRANCH  15  16
ENDBRANCH  14  15
ENDBRANCH   3  14
TORSDOF 5
ENDMDL
MODEL 7
REMARK VINA RESULT:      -7.1      4.294      6.303
REMARK  Name = 
REMARK  5 active torsions:
REMARK  status: ('A' for Active; 'I' for Inactive)
REMARK    1  A    between atoms: C_2  and  C_13
REMARK    2  A    between atoms: N_3  and  C_4
REMARK    3  A    between atoms: C_4  and  C_5
REMARK    4  A    between atoms: C_5  and  O_6
REMARK    5  A    between atoms: O_6  and  C_7
REMARK                            x       y       z     vdW  Elec       q    Type
REMARK                         _______ _______ _______ _____ _____    ______ ____
ROOT
ATOM      1  O   UNL     1       6.152   6.113  15.711  0.00  0.00    +0.000 OA
ATOM      2  C   UNL     1       6.250   5.946  16.922  0.00  0.00    +0.000 C 
ATOM      3  N   UNL     1       6.959   6.775  17.764  0.00  0.00    +0.000 N 
ATOM      4  H   UNL     1       7.188   6.438  18.689  0.00  0.00    +0.000 HD
ENDROOT
BRANCH   2   5
ATOM      5  C   UNL     1       5.505   4.813  17.506  0.00  0.00    +0.000 A 
ATOM      6  C   UNL     1       5.699   4.380  18.836  0.00  0.00    +0.000 A 
ATOM      7  C   UNL     1       4.763   3.529  19.434  0.00  0.00    +0.000 A 
ATOM      8  C   UNL     1       3.649   3.187  18.695  0.00  0.00    +0.000 A 
ATOM      9  C   UNL     1       3.498   3.569  17.383  0.00  0.00    +0.000 A 
ATOM     10  C   UNL     1       4.423   4.348  16.745  0.00  0.00    +0.000 A 
ATOM     11  O   UNL     1       2.291   3.205  16.870  0.00  0.00    +0.000 OA
ATOM     12  C   UNL     1       1.616   2.870  18.095  0.00  0.00    +0.000 C 
ATOM     13  O   UNL     1       2.537   2.552  19.163  0.00  0.00    +0.000 OA
ENDBRANCH   2   5
BRANCH   3  14
ATOM     14  C   UNL     1       7.715   7.920  17.260  0.00  0.00    +0.000 C 
BRANCH  14  15
ATOM     15  C   UNL     1       8.266   8.848  18.347  0.00  0.00    +0.000 C 
BRANCH  15  16
ATOM     16  O   UNL     1       8.462  10.171  17.855  0.00  0.00    +0.000 OA
BRANCH  16  17
ATOM     17  C   UNL     1       9.526  10.822  18.436  0.00  0.00    +0.000 A 
ATOM     18  C   UNL     1       9.478  10.893  19.832  0.00  0.00    +0.000 A 
ATOM     19  C   UNL     1      10.477  11.555  20.540  0.00  0.00    +0.000 A 
ATOM     20  C   UNL     1      11.538  12.152  19.861  0.00  0.00    +0.000 A 
ATOM     21  C   UNL     1      11.609  12.076  18.473  0.00  0.00    +0.000 A 
ATOM     22  C   UNL     1      10.609  11.412  17.761  0.00  0.00    +0.000 A 
ENDBRANCH  16  17
ENDBRANCH  15  16
ENDBRANCH  14  15
ENDBRANCH   3  14
TORSDOF 5
ENDMDL
MODEL 8
REMARK VINA RESULT:      -7.0      1.464      1.729
REMARK  Name = 
REMARK  5 active torsions:
REMARK  status: ('A' for Active; 'I' for Inactive)
REMARK    1  A    between atoms: C_2  and  C_13
REMARK    2  A    between atoms: N_3  and  C_4
REMARK    3  A    between atoms: C_4  and  C_5
REMARK    4  A    between atoms: C_5  and  O_6
REMARK    5  A    between atoms: O_6  and  C_7
REMARK                            x       y       z     vdW  Elec       q    Type
REMARK                         _______ _______ _______ _____ _____    ______ ____
ROOT
ATOM      1  O   UNL     1       6.597   4.563  19.262  0.00  0.00    +0.000 OA
ATOM      2  C   UNL     1       5.590   5.076  18.786  0.00  0.00    +0.000 C 
ATOM      3  N   UNL     1       5.593   5.938  17.711  0.00  0.00    +0.000 N 
ATOM      4  H   UNL     1       4.767   6.495  17.540  0.00  0.00    +0.000 HD
ENDROOT
BRANCH   2   5
ATOM      5  C   UNL     1       4.294   4.686  19.378  0.00  0.00    +0.000 A 
ATOM      6  C   UNL     1       3.366   5.631  19.865  0.00  0.00    +0.000 A 
ATOM      7  C   UNL     1       2.045   5.243  20.119  0.00  0.00    +0.000 A 
ATOM      8  C   UNL     1       1.697   3.940  19.826  0.00  0.00    +0.000 A 
ATOM      9  C   UNL     1       2.622   3.014  19.404  0.00  0.00    +0.000 A 
ATOM     10  C   UNL     1       3.935   3.342  19.208  0.00  0.00    +0.000 A 
ATOM     11  O   UNL     1       2.055   1.818  19.085  0.00  0.00    +0.000 OA
ATOM     12  C   UNL     1       0.677   2.227  19.039  0.00  0.00    +0.000 C 
ATOM     13  O   UNL     1       0.433   3.431  19.801  0.00  0.00    +0.000 OA
ENDBRANCH   2   5
BRANCH   3  14
ATOM     14  C   UNL     1       6.835   6.363  17.068  0.00  0.00    +0.000 C 
BRANCH  14  15
ATOM     15  C   UNL     1       7.513   5.284  16.218  0.00  0.00    +0.000 C 
BRANCH  15  16
ATOM     16  O   UNL     1       7.620   5.685  14.855  0.00  0.00    +0.000 OA
BRANCH  16  17
ATOM     17  C   UNL     1       6.940   4.862  13.986  0.00  0.00    +0.000 A 
ATOM     18  C   UNL     1       7.589   4.630  12.769  0.00  0.00    +0.000 A 
ATOM     19  C   UNL     1       6.991   3.843  11.789  0.00  0.00    +0.000 A 
ATOM     20  C   UNL     1       5.738   3.277  12.013  0.00  0.00    +0.000 A 
ATOM     21  C   UNL     1       5.087   3.483  13.225  0.00  0.00    +0.000 A 
ATOM     22  C   UNL     1       5.683   4.272  14.210  0.00  0.00    +0.000 A 
ENDBRANCH  16  17
ENDBRANCH  15  16
ENDBRANCH  14  15
ENDBRANCH   3  14
TORSDOF 5
ENDMDL
MODEL 9
REMARK VINA RESULT:      -7.0      3.324      4.881
REMARK  Name = 
REMARK  5 active torsions:
REMARK  status: ('A' for Active; 'I' for Inactive)
REMARK    1  A    between atoms: C_2  and  C_13
REMARK    2  A    between atoms: N_3  and  C_4
REMARK    3  A    between atoms: C_4  and  C_5
REMARK    4  A    between atoms: C_5  and  O_6
REMARK    5  A    between atoms: O_6  and  C_7
REMARK                            x       y       z     vdW  Elec       q    Type
REMARK                         _______ _______ _______ _____ _____    ______ ____
ROOT
ATOM      1  O   UNL     1       3.377   5.177  19.876  0.00  0.00    +0.000 OA
ATOM      2  C   UNL     1       2.882   5.703  18.884  0.00  0.00    +0.000 C 
ATOM      3  N   UNL     1       2.600   5.036  17.712  0.00  0.00    +0.000 N 
ATOM      4  H   UNL     1       2.425   5.582  16.879  0.00  0.00    +0.000 HD
ENDROOT
BRANCH   2   5
ATOM      5  C   UNL     1       2.516   7.129  18.994  0.00  0.00    +0.000 A 
ATOM      6  C   UNL     1       2.490   7.995  17.879  0.00  0.00    +0.000 A 
ATOM      7  C   UNL     1       1.842   9.232  17.973  0.00  0.00    +0.000 A 
ATOM      8  C   UNL     1       1.206   9.529  19.161  0.00  0.00    +0.000 A 
ATOM      9  C   UNL     1       1.285   8.703  20.259  0.00  0.00    +0.000 A 
ATOM     10  C   UNL     1       1.964   7.516  20.223  0.00  0.00    +0.000 A 
ATOM     11  O   UNL     1       0.514   9.136  21.294  0.00  0.00    +0.000 OA
ATOM     12  C   UNL     1      -0.283  10.106  20.592  0.00  0.00    +0.000 C 
ATOM     13  O   UNL     1       0.354  10.570  19.380  0.00  0.00    +0.000 OA
ENDBRANCH   2   5
BRANCH   3  14
ATOM     14  C   UNL     1       2.926   3.623  17.533  0.00  0.00    +0.000 C 
BRANCH  14  15
ATOM     15  C   UNL     1       4.421   3.329  17.370  0.00  0.00    +0.000 C 
BRANCH  15  16
ATOM     16  O   UNL     1       5.045   4.267  16.498  0.00  0.00    +0.000 OA
BRANCH  16  17
ATOM     17  C   UNL     1       5.950   5.088  17.132  0.00  0.00    +0.000 A 
ATOM     18  C   UNL     1       5.919   6.424  16.721  0.00  0.00    +0.000 A 
ATOM     19  C   UNL     1       6.807   7.350  17.260  0.00  0.00    +0.000 A 
ATOM     20  C   UNL     1       7.737   6.952  18.218  0.00  0.00    +0.000 A 
ATOM     21  C   UNL     1       7.770   5.630  18.651  0.00  0.00    +0.000 A 
ATOM     22  C   UNL     1       6.881   4.700  18.113  0.00  0.00    +0.000 A 
ENDBRANCH  16  17
ENDBRANCH  15  16
ENDBRANCH  14  15
ENDBRANCH   3  14
TORSDOF 5
ENDMDL
