MODEL 1
REMARK VINA RESULT:      -8.5      0.000      0.000
REMARK  Name = 
REMARK  7 active torsions:
REMARK  status: ('A' for Active; 'I' for Inactive)
REMARK    1  A    between atoms: C_2  and  C_3
REMARK    2  A    between atoms: C_3  and  N_4
REMARK    3  A    between atoms: C_9  and  O_11
REMARK    4  A    between atoms: O_11  and  C_12
REMARK    5  A    between atoms: C_12  and  C_13
REMARK    6  A    between atoms: N_22  and  C_23
REMARK    7  A    between atoms: C_23  and  C_24
REMARK                            x       y       z     vdW  Elec       q    Type
REMARK                         _______ _______ _______ _____ _____    ______ ____
ROOT
ATOM      1  N   UNL     1       5.206   4.081  17.947  0.00  0.00    +0.000 N 
ATOM      2  C   UNL     1       5.757   4.763  19.002  0.00  0.00    +0.000 A 
ATOM      3  C   UNL     1       6.394   5.913  18.810  0.00  0.00    +0.000 A 
ATOM      4  C   UNL     1       6.459   6.359  17.407  0.00  0.00    +0.000 A 
ATOM      5  N   UNL     1       7.183   7.483  17.121  0.00  0.00    +0.000 N 
ATOM      6  C   UNL     1       8.096   8.135  17.919  0.00  0.00    +0.000 C 
ATOM      7  O   UNL     1       8.609   7.673  18.932  0.00  0.00    +0.000 OA
ATOM      8  N   UNL     1       5.859   5.788  16.424  0.00  0.00    +0.000 NA
ATOM      9  C   UNL     1       5.192   4.599  16.649  0.00  0.00    +0.000 A 
ATOM     10  O   UNL     1       4.655   3.992  15.724  0.00  0.00    +0.000 OA
ATOM     11  H   UNL     1       7.037   7.878  16.206  0.00  0.00    +0.000 HD
ENDROOT
BRANCH   1  12
ATOM     12  C   UNL     1       4.614   2.765  18.190  0.00  0.00    +0.000 C 
BRANCH  12  14
ATOM     13  O   UNL     1       5.050   1.952  20.448  0.00  0.00    +0.000 OA
ATOM     14  C   UNL     1       4.272   2.488  19.654  0.00  0.00    +0.000 C 
ATOM     15  N   UNL     1       3.017   2.826  20.086  0.00  0.00    +0.000 N 
ATOM     16  H   UNL     1       2.838   2.570  21.047  0.00  0.00    +0.000 HD
BRANCH  15  17
ATOM     17  C   UNL     1       1.931   3.408  19.318  0.00  0.00    +0.000 C 
BRANCH  17  18
ATOM     18  C   UNL     1       1.894   4.911  19.438  0.00  0.00    +0.000 A 
ATOM     19  C   UNL     1       1.477   5.523  20.630  0.00  0.00    +0.000 A 
ATOM     20  C   UNL     1       1.507   6.912  20.793  0.00  0.00    +0.000 A 
ATOM     21  C   UNL     1       1.858   7.675  19.678  0.00  0.00    +0.000 A 
ATOM     22  N   UNL     1       2.014   9.034  19.532  0.00  0.00    +0.000 N 
ATOM     23  C   UNL     1       1.962   9.352  18.201  0.00  0.00    +0.000 A 
ATOM     24  C   UNL     1       2.174   8.186  17.500  0.00  0.00    +0.000 A 
ATOM     25  C   UNL     1       2.135   7.112  18.434  0.00  0.00    +0.000 A 
ATOM     26  C   UNL     1       2.242   5.712  18.334  0.00  0.00    +0.000 A 
ATOM     27  H   UNL     1       2.085   9.694  20.294  0.00  0.00    +0.000 HD
ENDBRANCH  17  18
ENDBRANCH  15  17
ENDBRANCH  12  14
ENDBRANCH   1  12
BRANCH   6  28
ATOM     28  O   UNL     1       8.383   9.357  17.413  0.00  0.00    +0.000 OA
BRANCH  28  29
ATOM     29  C   UNL     1       8.214  10.423  18.365  0.00  0.00    +0.000 C 
BRANCH  29  30
ATOM     30  C   UNL     1       9.432  11.313  18.306  0.00  0.00    +0.000 A 
ATOM     31  C   UNL     1       9.450  12.464  17.514  0.00  0.00    +0.000 A 
ATOM     32  C   UNL     1      10.617  13.242  17.414  0.00  0.00    +0.000 A 
ATOM     33  C   UNL     1      11.760  12.858  18.102  0.00  0.00    +0.000 A 
ATOM     34  C   UNL     1      11.754  11.713  18.897  0.00  0.00    +0.000 A 
ATOM     35  C   UNL     1      10.595  10.947  19.002  0.00  0.00    +0.000 A 
ENDBRANCH  29  30
ENDBRANCH  28  29
ENDBRANCH   6  28
TORSDOF 7
ENDMDL
MODEL 2
REMARK VINA RESULT:      -8.5      5.030      9.135
REMARK  Name = 
REMARK  7 active torsions:
REMARK  status: ('A' for Active; 'I' for Inactive)
REMARK    1  A    between atoms: C_2  and  C_3
REMARK    2  A    between atoms: C_3  and  N_4
REMARK    3  A    between atoms: C_9  and  O_11
REMARK    4  A    between atoms: O_11  and  C_12
REMARK    5  A    between atoms: C_12  and  C_13
REMARK    6  A    between atoms: N_22  and  C_23
REMARK    7  A    between atoms: C_23  and  C_24
REMARK                            x       y       z     vdW  Elec       q    Type
REMARK                         _______ _______ _______ _____ _____    ______ ____
ROOT
ATOM      1  N   UNL     1       2.150   7.545  19.209  0.00  0.00    +0.000 N 
ATOM      2  C   UNL     1       1.752   7.223  20.482  0.00  0.00    +0.000 A 
ATOM      3  C   UNL     1       1.081   8.095  21.226  0.00  0.00    +0.000 A 
ATOM      4  C   UNL     1       0.827   9.395  20.580  0.00  0.00    +0.000 A 
ATOM      5  N   UNL     1       0.228  10.376  21.320  0.00  0.00    +0.000 N 
ATOM      6  C   UNL     1       0.053  10.429  22.684  0.00  0.00    +0.000 C 
ATOM      7  O   UNL     1       0.632   9.720  23.501  0.00  0.00    +0.000 OA
ATOM      8  N   UNL     1       1.099   9.674  19.355  0.00  0.00    +0.000 NA
ATOM      9  C   UNL     1       1.787   8.747  18.596  0.00  0.00    +0.000 A 
ATOM     10  O   UNL     1       2.118   9.000  17.438  0.00  0.00    +0.000 OA
ATOM     11  H   UNL     1      -0.121  11.166  20.801  0.00  0.00    +0.000 HD
ENDROOT
BRANCH   1  12
ATOM     12  C   UNL     1       2.984   6.597  18.470  0.00  0.00    +0.000 C 
BRANCH  12  14
ATOM     13  O   UNL     1       1.166   5.027  18.043  0.00  0.00    +0.000 OA
ATOM     14  C   UNL     1       2.361   5.212  18.294  0.00  0.00    +0.000 C 
ATOM     15  N   UNL     1       3.177   4.124  18.460  0.00  0.00    +0.000 N 
ATOM     16  H   UNL     1       2.692   3.241  18.382  0.00  0.00    +0.000 HD
BRANCH  15  17
ATOM     17  C   UNL     1       4.585   4.105  18.810  0.00  0.00    +0.000 C 
BRANCH  17  18
ATOM     18  C   UNL     1       5.463   4.507  17.653  0.00  0.00    +0.000 A 
ATOM     19  C   UNL     1       6.377   5.564  17.783  0.00  0.00    +0.000 A 
ATOM     20  C   UNL     1       7.258   5.905  16.750  0.00  0.00    +0.000 A 
ATOM     21  C   UNL     1       7.110   5.228  15.539  0.00  0.00    +0.000 A 
ATOM     22  N   UNL     1       7.833   5.306  14.371  0.00  0.00    +0.000 N 
ATOM     23  C   UNL     1       7.094   4.775  13.348  0.00  0.00    +0.000 A 
ATOM     24  C   UNL     1       6.100   4.014  13.923  0.00  0.00    +0.000 A 
ATOM     25  C   UNL     1       6.118   4.275  15.323  0.00  0.00    +0.000 A 
ATOM     26  C   UNL     1       5.343   3.844  16.416  0.00  0.00    +0.000 A 
ATOM     27  H   UNL     1       8.736   5.751  14.277  0.00  0.00    +0.000 HD
ENDBRANCH  17  18
ENDBRANCH  15  17
ENDBRANCH  12  14
ENDBRANCH   1  12
BRANCH   6  28
ATOM     28  O   UNL     1      -0.831  11.399  23.014  0.00  0.00    +0.000 OA
BRANCH  28  29
ATOM     29  C   UNL     1      -1.631  11.844  21.905  0.00  0.00    +0.000 C 
BRANCH  29  30
ATOM     30  C   UNL     1      -2.969  12.301  22.435  0.00  0.00    +0.000 A 
ATOM     31  C   UNL     1      -3.917  12.891  21.594  0.00  0.00    +0.000 A 
ATOM     32  C   UNL     1      -5.129  13.377  22.118  0.00  0.00    +0.000 A 
ATOM     33  C   UNL     1      -5.379  13.275  23.479  0.00  0.00    +0.000 A 
ATOM     34  C   UNL     1      -4.442  12.687  24.327  0.00  0.00    +0.000 A 
ATOM     35  C   UNL     1      -3.246  12.198  23.807  0.00  0.00    +0.000 A 
ENDBRANCH  29  30
ENDBRANCH  28  29
ENDBRANCH   6  28
TORSDOF 7
ENDMDL
MODEL 3
REMARK VINA RESULT:      -8.4      1.265      1.545
REMARK  Name = 
REMARK  7 active torsions:
REMARK  status: ('A' for Active; 'I' for Inactive)
REMARK    1  A    between atoms: C_2  and  C_3
REMARK    2  A    between atoms: C_3  and  N_4
REMARK    3  A    between atoms: C_9  and  O_11
REMARK    4  A    between atoms: O_11  and  C_12
REMARK    5  A    between atoms: C_12  and  C_13
REMARK    6  A    between atoms: N_22  and  C_23
REMARK    7  A    between atoms: C_23  and  C_24
REMARK                            x       y       z     vdW  Elec       q    Type
REMARK                         _______ _______ _______ _____ _____    ______ ____
ROOT
ATOM      1  N   UNL     1       5.065   4.475  17.671  0.00  0.00    +0.000 N 
ATOM      2  C   UNL     1       5.568   5.131  18.766  0.00  0.00    +0.000 A 
ATOM      3  C   UNL     1       6.300   6.229  18.624  0.00  0.00    +0.000 A 
ATOM      4  C   UNL     1       6.521   6.651  17.229  0.00  0.00    +0.000 A 
ATOM      5  N   UNL     1       7.347   7.717  17.001  0.00  0.00    +0.000 N 
ATOM      6  C   UNL     1       8.230   8.313  17.872  0.00  0.00    +0.000 C 
ATOM      7  O   UNL     1       8.616   7.830  18.931  0.00  0.00    +0.000 OA
ATOM      8  N   UNL     1       5.971   6.111  16.200  0.00  0.00    +0.000 NA
ATOM      9  C   UNL     1       5.204   4.975  16.373  0.00  0.00    +0.000 A 
ATOM     10  O   UNL     1       4.709   4.394  15.408  0.00  0.00    +0.000 OA
ATOM     11  H   UNL     1       7.311   8.109  16.073  0.00  0.00    +0.000 HD
ENDROOT
BRANCH   1  12
ATOM     12  C   UNL     1       4.361   3.207  17.869  0.00  0.00    +0.000 C 
BRANCH  12  14
ATOM     13  O   UNL     1       2.250   2.813  16.713  0.00  0.00    +0.000 OA
ATOM     14  C   UNL     1       2.846   3.291  17.682  0.00  0.00    +0.000 C 
ATOM     15  N   UNL     1       2.127   3.967  18.632  0.00  0.00    +0.000 N 
ATOM     16  H   UNL     1       1.141   4.031  18.422  0.00  0.00    +0.000 HD
BRANCH  15  17
ATOM     17  C   UNL     1       2.622   4.651  19.812  0.00  0.00    +0.000 C 
BRANCH  17  18
ATOM     18  C   UNL     1       2.188   6.095  19.855  0.00  0.00    +0.000 A 
ATOM     19  C   UNL     1       1.458   6.589  20.947  0.00  0.00    +0.000 A 
ATOM     20  C   UNL     1       1.110   7.941  21.048  0.00  0.00    +0.000 A 
ATOM     21  C   UNL     1       1.418   8.758  19.959  0.00  0.00    +0.000 A 
ATOM     22  N   UNL     1       1.245  10.110  19.774  0.00  0.00    +0.000 N 
ATOM     23  C   UNL     1       1.312  10.393  18.435  0.00  0.00    +0.000 A 
ATOM     24  C   UNL     1       1.914   9.315  17.826  0.00  0.00    +0.000 A 
ATOM     25  C   UNL     1       2.010   8.276  18.795  0.00  0.00    +0.000 A 
ATOM     26  C   UNL     1       2.482   6.949  18.775  0.00  0.00    +0.000 A 
ATOM     27  H   UNL     1       1.033  10.774  20.506  0.00  0.00    +0.000 HD
ENDBRANCH  17  18
ENDBRANCH  15  17
ENDBRANCH  12  14
ENDBRANCH   1  12
BRANCH   6  28
ATOM     28  O   UNL     1       8.647   9.505  17.385  0.00  0.00    +0.000 OA
BRANCH  28  29
ATOM     29  C   UNL     1       8.419  10.602  18.288  0.00  0.00    +0.000 C 
BRANCH  29  30
ATOM     30  C   UNL     1       9.758  11.156  18.713  0.00  0.00    +0.000 A 
ATOM     31  C   UNL     1      10.075  11.326  20.064  0.00  0.00    +0.000 A 
ATOM     32  C   UNL     1      11.297  11.910  20.440  0.00  0.00    +0.000 A 
ATOM     33  C   UNL     1      12.190  12.327  19.462  0.00  0.00    +0.000 A 
ATOM     34  C   UNL     1      11.885  12.161  18.112  0.00  0.00    +0.000 A 
ATOM     35  C   UNL     1      10.679  11.574  17.739  0.00  0.00    +0.000 A 
ENDBRANCH  29  30
ENDBRANCH  28  29
ENDBRANCH   6  28
TORSDOF 7
ENDMDL
MODEL 4
REMARK VINA RESULT:      -8.4      1.770      2.871
REMARK  Name = 
REMARK  7 active torsions:
REMARK  status: ('A' for Active; 'I' for Inactive)
REMARK    1  A    between atoms: C_2  and  C_3
REMARK    2  A    between atoms: C_3  and  N_4
REMARK    3  A    between atoms: C_9  and  O_11
REMARK    4  A    between atoms: O_11  and  C_12
REMARK    5  A    between atoms: C_12  and  C_13
REMARK    6  A    between atoms: N_22  and  C_23
REMARK    7  A    between atoms: C_23  and  C_24
REMARK                            x       y       z     vdW  Elec       q    Type
REMARK                         _______ _______ _______ _____ _____    ______ ____
ROOT
ATOM      1  N   UNL     1       3.716   2.962  18.601  0.00  0.00    +0.000 N 
ATOM      2  C   UNL     1       3.624   3.660  17.423  0.00  0.00    +0.000 A 
ATOM      3  C   UNL     1       4.503   4.610  17.126  0.00  0.00    +0.000 A 
ATOM      4  C   UNL     1       5.537   4.841  18.151  0.00  0.00    +0.000 A 
ATOM      5  N   UNL     1       6.417   5.870  17.958  0.00  0.00    +0.000 N 
ATOM      6  C   UNL     1       6.327   6.912  17.063  0.00  0.00    +0.000 C 
ATOM      7  O   UNL     1       5.314   7.239  16.456  0.00  0.00    +0.000 OA
ATOM      8  N   UNL     1       5.700   4.127  19.207  0.00  0.00    +0.000 NA
ATOM      9  C   UNL     1       4.780   3.135  19.490  0.00  0.00    +0.000 A 
ATOM     10  O   UNL     1       4.867   2.469  20.521  0.00  0.00    +0.000 OA
ATOM     11  H   UNL     1       7.228   5.871  18.555  0.00  0.00    +0.000 HD
ENDROOT
BRANCH   1  12
ATOM     12  C   UNL     1       2.662   2.004  18.937  0.00  0.00    +0.000 C 
BRANCH  12  14
ATOM     13  O   UNL     1       0.335   2.112  18.213  0.00  0.00    +0.000 OA
ATOM     14  C   UNL     1       1.247   2.583  18.898  0.00  0.00    +0.000 C 
ATOM     15  N   UNL     1       1.002   3.706  19.642  0.00  0.00    +0.000 N 
ATOM     16  H   UNL     1       0.065   4.067  19.531  0.00  0.00    +0.000 HD
BRANCH  15  17
ATOM     17  C   UNL     1       1.932   4.456  20.467  0.00  0.00    +0.000 C 
BRANCH  17  18
ATOM     18  C   UNL     1       1.776   5.945  20.288  0.00  0.00    +0.000 A 
ATOM     19  C   UNL     1       2.368   6.599  19.197  0.00  0.00    +0.000 A 
ATOM     20  C   UNL     1       2.174   7.965  18.965  0.00  0.00    +0.000 A 
ATOM     21  C   UNL     1       1.464   8.679  19.932  0.00  0.00    +0.000 A 
ATOM     22  N   UNL     1       1.080   9.999  19.972  0.00  0.00    +0.000 N 
ATOM     23  C   UNL     1       0.770  10.338  21.263  0.00  0.00    +0.000 A 
ATOM     24  C   UNL     1       0.572   9.161  21.951  0.00  0.00    +0.000 A 
ATOM     25  C   UNL     1       0.986   8.095  21.103  0.00  0.00    +0.000 A 
ATOM     26  C   UNL     1       1.064   6.697  21.243  0.00  0.00    +0.000 A 
ATOM     27  H   UNL     1       1.095  10.632  19.184  0.00  0.00    +0.000 HD
ENDBRANCH  17  18
ENDBRANCH  15  17
ENDBRANCH  12  14
ENDBRANCH   1  12
BRANCH   6  28
ATOM     28  O   UNL     1       7.513   7.558  16.964  0.00  0.00    +0.000 OA
BRANCH  28  29
ATOM     29  C   UNL     1       8.173   7.737  18.229  0.00  0.00    +0.000 C 
BRANCH  29  30
ATOM     30  C   UNL     1       8.497   9.202  18.395  0.00  0.00    +0.000 A 
ATOM     31  C   UNL     1       8.089  10.146  17.448  0.00  0.00    +0.000 A 
ATOM     32  C   UNL     1       8.461  11.495  17.581  0.00  0.00    +0.000 A 
ATOM     33  C   UNL     1       9.244  11.890  18.656  0.00  0.00    +0.000 A 
ATOM     34  C   UNL     1       9.656  10.958  19.608  0.00  0.00    +0.000 A 
ATOM     35  C   UNL     1       9.280   9.623  19.482  0.00  0.00    +0.000 A 
ENDBRANCH  29  30
ENDBRANCH  28  29
ENDBRANCH   6  28
TORSDOF 7
ENDMDL
MODEL 5
REMARK VINA RESULT:      -8.3      4.436      6.509
REMARK  Name = 
REMARK  7 active torsions:
REMARK  status: ('A' for Active; 'I' for Inactive)
REMARK    1  A    between atoms: C_2  and  C_3
REMARK    2  A    between atoms: C_3  and  N_4
REMARK    3  A    between atoms: C_9  and  O_11
REMARK    4  A    between atoms: O_11  and  C_12
REMARK    5  A    between atoms: C_12  and  C_13
REMARK    6  A    between atoms: N_22  and  C_23
REMARK    7  A    between atoms: C_23  and  C_24
REMARK                            x       y       z     vdW  Elec       q    Type
REMARK                         _______ _______ _______ _____ _____    ______ ____
ROOT
ATOM      1  N   UNL     1       2.657   4.372  18.425  0.00  0.00    +0.000 N 
ATOM      2  C   UNL     1       3.096   5.480  17.745  0.00  0.00    +0.000 A 
ATOM      3  C   UNL     1       4.150   5.410  16.940  0.00  0.00    +0.000 A 
ATOM      4  C   UNL     1       4.784   4.082  16.861  0.00  0.00    +0.000 A 
ATOM      5  N   UNL     1       5.931   3.958  16.129  0.00  0.00    +0.000 N 
ATOM      6  C   UNL     1       6.751   4.956  15.652  0.00  0.00    +0.000 C 
ATOM      7  O   UNL     1       6.731   6.126  16.020  0.00  0.00    +0.000 OA
ATOM      8  N   UNL     1       4.324   3.013  17.407  0.00  0.00    +0.000 NA
ATOM      9  C   UNL     1       3.219   3.107  18.232  0.00  0.00    +0.000 A 
ATOM     10  O   UNL     1       2.784   2.118  18.819  0.00  0.00    +0.000 OA
ATOM     11  H   UNL     1       6.219   3.015  15.921  0.00  0.00    +0.000 HD
ENDROOT
BRANCH   1  12
ATOM     12  C   UNL     1       1.564   4.522  19.387  0.00  0.00    +0.000 C 
BRANCH  12  14
ATOM     13  O   UNL     1       2.266   4.196  21.700  0.00  0.00    +0.000 OA
ATOM     14  C   UNL     1       2.006   4.974  20.778  0.00  0.00    +0.000 C 
ATOM     15  N   UNL     1       2.079   6.322  21.012  0.00  0.00    +0.000 N 
ATOM     16  H   UNL     1       2.326   6.554  21.965  0.00  0.00    +0.000 HD
BRANCH  15  17
ATOM     17  C   UNL     1       1.766   7.409  20.102  0.00  0.00    +0.000 C 
BRANCH  17  18
ATOM     18  C   UNL     1       1.031   8.531  20.791  0.00  0.00    +0.000 A 
ATOM     19  C   UNL     1       0.865   8.528  22.184  0.00  0.00    +0.000 A 
ATOM     20  C   UNL     1       0.257   9.595  22.854  0.00  0.00    +0.000 A 
ATOM     21  C   UNL     1      -0.286  10.612  22.068  0.00  0.00    +0.000 A 
ATOM     22  N   UNL     1      -0.900  11.791  22.422  0.00  0.00    +0.000 N 
ATOM     23  C   UNL     1      -1.616  12.264  21.355  0.00  0.00    +0.000 A 
ATOM     24  C   UNL     1      -1.140  11.619  20.235  0.00  0.00    +0.000 A 
ATOM     25  C   UNL     1      -0.271  10.581  20.676  0.00  0.00    +0.000 A 
ATOM     26  C   UNL     1       0.473   9.576  20.029  0.00  0.00    +0.000 A 
ATOM     27  H   UNL     1      -0.881  12.200  23.347  0.00  0.00    +0.000 HD
ENDBRANCH  17  18
ENDBRANCH  15  17
ENDBRANCH  12  14
ENDBRANCH   1  12
BRANCH   6  28
ATOM     28  O   UNL     1       7.616   4.464  14.735  0.00  0.00    +0.000 OA
BRANCH  28  29
ATOM     29  C   UNL     1       7.415   5.000  13.415  0.00  0.00    +0.000 C 
BRANCH  29  30
ATOM     30  C   UNL     1       6.689   3.967  12.587  0.00  0.00    +0.000 A 
ATOM     31  C   UNL     1       5.294   3.957  12.502  0.00  0.00    +0.000 A 
ATOM     32  C   UNL     1       4.631   2.945  11.785  0.00  0.00    +0.000 A 
ATOM     33  C   UNL     1       5.369   1.947  11.164  0.00  0.00    +0.000 A 
ATOM     34  C   UNL     1       6.761   1.948  11.240  0.00  0.00    +0.000 A 
ATOM     35  C   UNL     1       7.418   2.955  11.943  0.00  0.00    +0.000 A 
ENDBRANCH  29  30
ENDBRANCH  28  29
ENDBRANCH   6  28
TORSDOF 7
ENDMDL
MODEL 6
REMARK VINA RESULT:      -8.3      3.794      7.671
REMARK  Name = 
REMARK  7 active torsions:
REMARK  status: ('A' for Active; 'I' for Inactive)
REMARK    1  A    between atoms: C_2  and  C_3
REMARK    2  A    between atoms: C_3  and  N_4
REMARK    3  A    between atoms: C_9  and  O_11
REMARK    4  A    between atoms: O_11  and  C_12
REMARK    5  A    between atoms: C_12  and  C_13
REMARK    6  A    between atoms: N_22  and  C_23
REMARK    7  A    between atoms: C_23  and  C_24
REMARK                            x       y       z     vdW  Elec       q    Type
REMARK                         _______ _______ _______ _____ _____    ______ ____
ROOT
ATOM      1  N   UNL     1       2.274   5.022  18.742  0.00  0.00    +0.000 N 
ATOM      2  C   UNL     1       2.547   6.287  18.286  0.00  0.00    +0.000 A 
ATOM      3  C   UNL     1       2.320   7.349  19.049  0.00  0.00    +0.000 A 
ATOM      4  C   UNL     1       1.756   7.049  20.377  0.00  0.00    +0.000 A 
ATOM      5  N   UNL     1       1.405   8.098  21.180  0.00  0.00    +0.000 N 
ATOM      6  C   UNL     1       1.251   9.422  20.835  0.00  0.00    +0.000 C 
ATOM      7  O   UNL     1       1.155   9.849  19.690  0.00  0.00    +0.000 OA
ATOM      8  N   UNL     1       1.593   5.869  20.859  0.00  0.00    +0.000 NA
ATOM      9  C   UNL     1       1.848   4.777  20.050  0.00  0.00    +0.000 A 
ATOM     10  O   UNL     1       1.648   3.633  20.454  0.00  0.00    +0.000 OA
ATOM     11  H   UNL     1       1.225   7.872  22.145  0.00  0.00    +0.000 HD
ENDROOT
BRANCH   1  12
ATOM     12  C   UNL     1       2.433   3.892  17.826  0.00  0.00    +0.000 C 
BRANCH  12  14
ATOM     13  O   UNL     1       3.527   1.991  18.893  0.00  0.00    +0.000 OA
ATOM     14  C   UNL     1       3.612   2.975  18.155  0.00  0.00    +0.000 C 
ATOM     15  N   UNL     1       4.831   3.296  17.620  0.00  0.00    +0.000 N 
ATOM     16  H   UNL     1       5.577   2.682  17.917  0.00  0.00    +0.000 HD
BRANCH  15  17
ATOM     17  C   UNL     1       5.172   4.429  16.779  0.00  0.00    +0.000 C 
BRANCH  17  18
ATOM     18  C   UNL     1       6.153   5.358  17.449  0.00  0.00    +0.000 A 
ATOM     19  C   UNL     1       6.788   4.986  18.643  0.00  0.00    +0.000 A 
ATOM     20  C   UNL     1       7.759   5.795  19.243  0.00  0.00    +0.000 A 
ATOM     21  C   UNL     1       7.987   7.046  18.668  0.00  0.00    +0.000 A 
ATOM     22  N   UNL     1       8.886   8.035  18.993  0.00  0.00    +0.000 N 
ATOM     23  C   UNL     1       8.481   9.216  18.430  0.00  0.00    +0.000 A 
ATOM     24  C   UNL     1       7.575   8.899  17.442  0.00  0.00    +0.000 A 
ATOM     25  C   UNL     1       7.272   7.514  17.567  0.00  0.00    +0.000 A 
ATOM     26  C   UNL     1       6.408   6.628  16.896  0.00  0.00    +0.000 A 
ATOM     27  H   UNL     1       9.680   7.917  19.608  0.00  0.00    +0.000 HD
ENDBRANCH  17  18
ENDBRANCH  15  17
ENDBRANCH  12  14
ENDBRANCH   1  12
BRANCH   6  28
ATOM     28  O   UNL     1       1.186  10.199  21.942  0.00  0.00    +0.000 OA
BRANCH  28  29
ATOM     29  C   UNL     1       0.010   9.965  22.736  0.00  0.00    +0.000 C 
BRANCH  29  30
ATOM     30  C   UNL     1      -0.830  11.220  22.724  0.00  0.00    +0.000 A 
ATOM     31  C   UNL     1      -2.077  11.262  23.354  0.00  0.00    +0.000 A 
ATOM     32  C   UNL     1      -2.878  12.415  23.272  0.00  0.00    +0.000 A 
ATOM     33  C   UNL     1      -2.427  13.515  22.555  0.00  0.00    +0.000 A 
ATOM     34  C   UNL     1      -1.185  13.485  21.924  0.00  0.00    +0.000 A 
ATOM     35  C   UNL     1      -0.388  12.346  22.012  0.00  0.00    +0.000 A 
ENDBRANCH  29  30
ENDBRANCH  28  29
ENDBRANCH   6  28
TORSDOF 7
ENDMDL
MODEL 7
REMARK VINA RESULT:      -8.2      5.762      9.529
REMARK  Name = 
REMARK  7 active torsions:
REMARK  status: ('A' for Active; 'I' for Inactive)
REMARK    1  A    between atoms: C_2  and  C_3
REMARK    2  A    between atoms: C_3  and  N_4
REMARK    3  A    between atoms: C_9  and  O_11
REMARK    4  A    between atoms: O_11  and  C_12
REMARK    5  A    between atoms: C_12  and  C_13
REMARK    6  A    between atoms: N_22  and  C_23
REMARK    7  A    between atoms: C_23  and  C_24
REMARK                            x       y       z     vdW  Elec       q    Type
REMARK                         _______ _______ _______ _____ _____    ______ ____
ROOT
ATOM      1  N   UNL     1       0.832   9.986  19.180  0.00  0.00    +0.000 N 
ATOM      2  C   UNL     1       1.334   9.666  17.943  0.00  0.00    +0.000 A 
ATOM      3  C   UNL     1       2.062   8.570  17.768  0.00  0.00    +0.000 A 
ATOM      4  C   UNL     1       2.280   7.768  18.985  0.00  0.00    +0.000 A 
ATOM      5  N   UNL     1       3.101   6.678  18.902  0.00  0.00    +0.000 N 
ATOM      6  C   UNL     1       3.983   6.351  17.898  0.00  0.00    +0.000 C 
ATOM      7  O   UNL     1       4.373   7.113  17.020  0.00  0.00    +0.000 OA
ATOM      8  N   UNL     1       1.730   7.996  20.125  0.00  0.00    +0.000 NA
ATOM      9  C   UNL     1       0.967   9.137  20.281  0.00  0.00    +0.000 A 
ATOM     10  O   UNL     1       0.472   9.421  21.372  0.00  0.00    +0.000 OA
ATOM     11  H   UNL     1       3.062   6.039  19.680  0.00  0.00    +0.000 HD
ENDROOT
BRANCH   1  12
ATOM     12  C   UNL     1       0.133  11.260  19.349  0.00  0.00    +0.000 C 
BRANCH  12  14
ATOM     13  O   UNL     1      -1.807  10.643  18.005  0.00  0.00    +0.000 OA
ATOM     14  C   UNL     1      -1.355  11.214  19.001  0.00  0.00    +0.000 C 
ATOM     15  N   UNL     1      -2.220  11.878  19.830  0.00  0.00    +0.000 N 
ATOM     16  H   UNL     1      -3.180  11.852  19.516  0.00  0.00    +0.000 HD
BRANCH  15  17
ATOM     17  C   UNL     1      -1.908  12.657  21.014  0.00  0.00    +0.000 C 
BRANCH  17  18
ATOM     18  C   UNL     1      -3.060  12.701  21.985  0.00  0.00    +0.000 A 
ATOM     19  C   UNL     1      -2.855  12.446  23.349  0.00  0.00    +0.000 A 
ATOM     20  C   UNL     1      -3.891  12.557  24.282  0.00  0.00    +0.000 A 
ATOM     21  C   UNL     1      -5.169  12.817  23.784  0.00  0.00    +0.000 A 
ATOM     22  N   UNL     1      -6.364  13.019  24.436  0.00  0.00    +0.000 N 
ATOM     23  C   UNL     1      -7.394  12.835  23.552  0.00  0.00    +0.000 A 
ATOM     24  C   UNL     1      -6.858  12.916  22.287  0.00  0.00    +0.000 A 
ATOM     25  C   UNL     1      -5.441  12.931  22.423  0.00  0.00    +0.000 A 
ATOM     26  C   UNL     1      -4.363  12.962  21.518  0.00  0.00    +0.000 A 
ATOM     27  H   UNL     1      -6.461  13.203  25.425  0.00  0.00    +0.000 HD
ENDBRANCH  17  18
ENDBRANCH  15  17
ENDBRANCH  12  14
ENDBRANCH   1  12
BRANCH   6  28
ATOM     28  O   UNL     1       4.396   5.068  18.025  0.00  0.00    +0.000 OA
BRANCH  28  29
ATOM     29  C   UNL     1       3.379   4.106  17.693  0.00  0.00    +0.000 C 
BRANCH  29  30
ATOM     30  C   UNL     1       2.701   3.668  18.970  0.00  0.00    +0.000 A 
ATOM     31  C   UNL     1       3.439   3.166  20.046  0.00  0.00    +0.000 A 
ATOM     32  C   UNL     1       2.785   2.696  21.199  0.00  0.00    +0.000 A 
ATOM     33  C   UNL     1       1.399   2.726  21.264  0.00  0.00    +0.000 A 
ATOM     34  C   UNL     1       0.654   3.227  20.198  0.00  0.00    +0.000 A 
ATOM     35  C   UNL     1       1.301   3.700  19.059  0.00  0.00    +0.000 A 
ENDBRANCH  29  30
ENDBRANCH  28  29
ENDBRANCH   6  28
TORSDOF 7
ENDMDL
MODEL 8
REMARK VINA RESULT:      -8.2      1.248      1.986
REMARK  Name = 
REMARK  7 active torsions:
REMARK  status: ('A' for Active; 'I' for Inactive)
REMARK    1  A    between atoms: C_2  and  C_3
REMARK    2  A    between atoms: C_3  and  N_4
REMARK    3  A    between atoms: C_9  and  O_11
REMARK    4  A    between atoms: O_11  and  C_12
REMARK    5  A    between atoms: C_12  and  C_13
REMARK    6  A    between atoms: N_22  and  C_23
REMARK    7  A    between atoms: C_23  and  C_24
REMARK                            x       y       z     vdW  Elec       q    Type
REMARK                         _______ _______ _______ _____ _____    ______ ____
ROOT
ATOM      1  N   UNL     1       5.060   4.343  17.744  0.00  0.00    +0.000 N 
ATOM      2  C   UNL     1       5.667   4.869  18.856  0.00  0.00    +0.000 A 
ATOM      3  C   UNL     1       6.374   5.991  18.779  0.00  0.00    +0.000 A 
ATOM      4  C   UNL     1       6.448   6.585  17.433  0.00  0.00    +0.000 A 
ATOM      5  N   UNL     1       7.238   7.687  17.257  0.00  0.00    +0.000 N 
ATOM      6  C   UNL     1       8.202   8.189  18.103  0.00  0.00    +0.000 C 
ATOM      7  O   UNL     1       8.697   7.586  19.049  0.00  0.00    +0.000 OA
ATOM      8  N   UNL     1       5.800   6.165  16.405  0.00  0.00    +0.000 NA
ATOM      9  C   UNL     1       5.062   5.002  16.511  0.00  0.00    +0.000 A 
ATOM     10  O   UNL     1       4.476   4.535  15.536  0.00  0.00    +0.000 OA
ATOM     11  H   UNL     1       7.106   8.189  16.394  0.00  0.00    +0.000 HD
ENDROOT
BRANCH   1  12
ATOM     12  C   UNL     1       4.389   3.047  17.853  0.00  0.00    +0.000 C 
BRANCH  12  14
ATOM     13  O   UNL     1       2.204   2.549  16.890  0.00  0.00    +0.000 OA
ATOM     14  C   UNL     1       2.865   3.117  17.764  0.00  0.00    +0.000 C 
ATOM     15  N   UNL     1       2.211   3.884  18.692  0.00  0.00    +0.000 N 
ATOM     16  H   UNL     1       1.212   3.930  18.546  0.00  0.00    +0.000 HD
BRANCH  15  17
ATOM     17  C   UNL     1       2.784   4.678  19.763  0.00  0.00    +0.000 C 
BRANCH  17  18
ATOM     18  C   UNL     1       2.341   6.118  19.701  0.00  0.00    +0.000 A 
ATOM     19  C   UNL     1       2.613   6.901  18.568  0.00  0.00    +0.000 A 
ATOM     20  C   UNL     1       2.147   8.215  18.453  0.00  0.00    +0.000 A 
ATOM     21  C   UNL     1       1.498   8.758  19.563  0.00  0.00    +0.000 A 
ATOM     22  N   UNL     1       0.902   9.984  19.745  0.00  0.00    +0.000 N 
ATOM     23  C   UNL     1       0.763  10.223  21.086  0.00  0.00    +0.000 A 
ATOM     24  C   UNL     1       0.894   9.010  21.726  0.00  0.00    +0.000 A 
ATOM     25  C   UNL     1       1.338   8.063  20.760  0.00  0.00    +0.000 A 
ATOM     26  C   UNL     1       1.683   6.699  20.802  0.00  0.00    +0.000 A 
ATOM     27  H   UNL     1       0.670  10.631  19.004  0.00  0.00    +0.000 HD
ENDBRANCH  17  18
ENDBRANCH  15  17
ENDBRANCH  12  14
ENDBRANCH   1  12
BRANCH   6  28
ATOM     28  O   UNL     1       8.559   9.439  17.729  0.00  0.00    +0.000 OA
BRANCH  28  29
ATOM     29  C   UNL     1       9.097  10.225  18.807  0.00  0.00    +0.000 C 
BRANCH  29  30
ATOM     30  C   UNL     1       9.639  11.513  18.233  0.00  0.00    +0.000 A 
ATOM     31  C   UNL     1      10.939  11.589  17.724  0.00  0.00    +0.000 A 
ATOM     32  C   UNL     1      11.452  12.813  17.260  0.00  0.00    +0.000 A 
ATOM     33  C   UNL     1      10.663  13.954  17.316  0.00  0.00    +0.000 A 
ATOM     34  C   UNL     1       9.365  13.890  17.819  0.00  0.00    +0.000 A 
ATOM     35  C   UNL     1       8.853  12.676  18.271  0.00  0.00    +0.000 A 
ENDBRANCH  29  30
ENDBRANCH  28  29
ENDBRANCH   6  28
TORSDOF 7
ENDMDL
MODEL 9
REMARK VINA RESULT:      -8.2      4.004      8.214
REMARK  Name = 
REMARK  7 active torsions:
REMARK  status: ('A' for Active; 'I' for Inactive)
REMARK    1  A    between atoms: C_2  and  C_3
REMARK    2  A    between atoms: C_3  and  N_4
REMARK    3  A    between atoms: C_9  and  O_11
REMARK    4  A    between atoms: O_11  and  C_12
REMARK    5  A    between atoms: C_12  and  C_13
REMARK    6  A    between atoms: N_22  and  C_23
REMARK    7  A    between atoms: C_23  and  C_24
REMARK                            x       y       z     vdW  Elec       q    Type
REMARK                         _______ _______ _______ _____ _____    ______ ____
ROOT
ATOM      1  N   UNL     1       2.005   6.654  20.279  0.00  0.00    +0.000 N 
ATOM      2  C   UNL     1       1.163   7.220  21.203  0.00  0.00    +0.000 A 
ATOM      3  C   UNL     1       0.717   8.461  21.046  0.00  0.00    +0.000 A 
ATOM      4  C   UNL     1       1.206   9.147  19.838  0.00  0.00    +0.000 A 
ATOM      5  N   UNL     1       0.868  10.460  19.661  0.00  0.00    +0.000 N 
ATOM      6  C   UNL     1       0.344  11.338  20.583  0.00  0.00    +0.000 C 
ATOM      7  O   UNL     1       0.328  11.163  21.797  0.00  0.00    +0.000 OA
ATOM      8  N   UNL     1       1.907   8.598  18.910  0.00  0.00    +0.000 NA
ATOM      9  C   UNL     1       2.350   7.301  19.089  0.00  0.00    +0.000 A 
ATOM     10  O   UNL     1       3.072   6.760  18.253  0.00  0.00    +0.000 OA
ATOM     11  H   UNL     1       1.032  10.836  18.741  0.00  0.00    +0.000 HD
ENDROOT
BRANCH   1  12
ATOM     12  C   UNL     1       2.560   5.327  20.550  0.00  0.00    +0.000 C 
BRANCH  12  14
ATOM     13  O   UNL     1       1.072   4.006  19.139  0.00  0.00    +0.000 OA
ATOM     14  C   UNL     1       2.223   4.275  19.493  0.00  0.00    +0.000 C 
ATOM     15  N   UNL     1       3.264   3.575  18.942  0.00  0.00    +0.000 N 
ATOM     16  H   UNL     1       2.970   2.860  18.291  0.00  0.00    +0.000 HD
BRANCH  15  17
ATOM     17  C   UNL     1       4.678   3.683  19.248  0.00  0.00    +0.000 C 
BRANCH  17  18
ATOM     18  C   UNL     1       5.472   4.210  18.079  0.00  0.00    +0.000 A 
ATOM     19  C   UNL     1       6.346   5.296  18.240  0.00  0.00    +0.000 A 
ATOM     20  C   UNL     1       7.152   5.754  17.191  0.00  0.00    +0.000 A 
ATOM     21  C   UNL     1       6.965   5.161  15.942  0.00  0.00    +0.000 A 
ATOM     22  N   UNL     1       7.617   5.359  14.747  0.00  0.00    +0.000 N 
ATOM     23  C   UNL     1       6.844   4.870  13.726  0.00  0.00    +0.000 A 
ATOM     24  C   UNL     1       5.919   4.023  14.294  0.00  0.00    +0.000 A 
ATOM     25  C   UNL     1       6.004   4.181  15.706  0.00  0.00    +0.000 A 
ATOM     26  C   UNL     1       5.311   3.635  16.803  0.00  0.00    +0.000 A 
ATOM     27  H   UNL     1       8.493   5.851  14.639  0.00  0.00    +0.000 HD
ENDBRANCH  17  18
ENDBRANCH  15  17
ENDBRANCH  12  14
ENDBRANCH   1  12
BRANCH   6  28
ATOM     28  O   UNL     1      -0.127  12.448  19.970  0.00  0.00    +0.000 OA
BRANCH  28  29
ATOM     29  C   UNL     1      -0.339  12.275  18.558  0.00  0.00    +0.000 C 
BRANCH  29  30
ATOM     30  C   UNL     1      -1.708  11.673  18.351  0.00  0.00    +0.000 A 
ATOM     31  C   UNL     1      -1.901  10.593  17.484  0.00  0.00    +0.000 A 
ATOM     32  C   UNL     1      -3.193  10.091  17.248  0.00  0.00    +0.000 A 
ATOM     33  C   UNL     1      -4.283  10.677  17.876  0.00  0.00    +0.000 A 
ATOM     34  C   UNL     1      -4.103  11.753  18.744  0.00  0.00    +0.000 A 
ATOM     35  C   UNL     1      -2.823  12.245  18.985  0.00  0.00    +0.000 A 
ENDBRANCH  29  30
ENDBRANCH  28  29
ENDBRANCH   6  28
TORSDOF 7
ENDMDL
