MODEL 1
REMARK VINA RESULT:      -9.6      0.000      0.000
REMARK  Name = 
REMARK  6 active torsions:
REMARK  status: ('A' for Active; 'I' for Inactive)
REMARK    1  A    between atoms: C_1  and  C_2
REMARK    2  A    between atoms: C_2  and  N_3
REMARK    3  A    between atoms: C_2  and  C_19
REMARK    4  A    between atoms: N_6  and  C_7
REMARK    5  A    between atoms: N_15  and  C_16
REMARK    6  A    between atoms: C_27  and  C_28
REMARK                            x       y       z     vdW  Elec       q    Type
REMARK                         _______ _______ _______ _____ _____    ______ ____
ROOT
ATOM      1  N   UNL     1       8.526   9.715  17.622  0.00  0.00    +0.000 N 
ATOM      2  C   UNL     1       8.031   8.485  17.939  0.00  0.00    +0.000 C 
ATOM      3  O   UNL     1       8.479   7.791  18.842  0.00  0.00    +0.000 OA
ATOM      4  N   UNL     1       6.919   8.158  17.217  0.00  0.00    +0.000 N 
ATOM      5  H   UNL     1       8.161  10.185  16.806  0.00  0.00    +0.000 HD
ATOM      6  H   UNL     1       6.790   8.577  16.303  0.00  0.00    +0.000 HD
ENDROOT
BRANCH   4   7
ATOM      7  C   UNL     1       6.225   6.877  17.417  0.00  0.00    +0.000 C 
ATOM      8  C   UNL     1       4.711   7.029  17.429  0.00  0.00    +0.000 C 
ATOM      9  C   UNL     1       4.043   5.688  17.473  0.00  0.00    +0.000 A 
ATOM     10  C   UNL     1       2.821   5.549  18.148  0.00  0.00    +0.000 A 
ATOM     11  C   UNL     1       2.141   4.337  18.125  0.00  0.00    +0.000 A 
ATOM     12  C   UNL     1       2.679   3.262  17.426  0.00  0.00    +0.000 A 
ATOM     13  C   UNL     1       3.899   3.398  16.751  0.00  0.00    +0.000 A 
ATOM     14  C   UNL     1       4.595   4.614  16.761  0.00  0.00    +0.000 A 
ATOM     15  N   UNL     1       5.821   4.809  16.059  0.00  0.00    +0.000 N 
ATOM     16  C   UNL     1       6.258   3.856  15.050  0.00  0.00    +0.000 C 
ATOM     17  C   UNL     1       6.645   5.916  16.291  0.00  0.00    +0.000 C 
ATOM     18  O   UNL     1       7.715   6.088  15.696  0.00  0.00    +0.000 OA
ENDBRANCH   4   7
BRANCH   1  20
ATOM     19  C   UNL     1       9.161  10.727  19.772  0.00  0.00    +0.000 C 
ATOM     20  C   UNL     1       9.624  10.350  18.357  0.00  0.00    +0.000 C 
BRANCH  20  21
ATOM     21  C   UNL     1      10.290  11.554  17.626  0.00  0.00    +0.000 C 
ATOM     22  O   UNL     1       9.348  12.678  17.654  0.00  0.00    +0.000 OA
ATOM     23  C   UNL     1      10.071  13.771  18.031  0.00  0.00    +0.000 A 
ATOM     24  C   UNL     1       9.542  15.042  18.157  0.00  0.00    +0.000 A 
ATOM     25  C   UNL     1      10.380  16.068  18.601  0.00  0.00    +0.000 A 
ATOM     26  C   UNL     1      11.725  15.807  18.898  0.00  0.00    +0.000 A 
ATOM     27  C   UNL     1      12.243  14.518  18.747  0.00  0.00    +0.000 A 
ATOM     28  C   UNL     1      11.393  13.506  18.324  0.00  0.00    +0.000 A 
ATOM     29  C   UNL     1      11.671  12.050  18.163  0.00  0.00    +0.000 C 
ATOM     30  C   UNL     1      12.180  11.463  19.475  0.00  0.00    +0.000 C 
ENDBRANCH  20  21
ENDBRANCH   1  20
TORSDOF 3
ENDMDL
MODEL 2
REMARK VINA RESULT:      -8.5      6.887     10.179
REMARK  Name = 
REMARK  6 active torsions:
REMARK  status: ('A' for Active; 'I' for Inactive)
REMARK    1  A    between atoms: C_1  and  C_2
REMARK    2  A    between atoms: C_2  and  N_3
REMARK    3  A    between atoms: C_2  and  C_19
REMARK    4  A    between atoms: N_6  and  C_7
REMARK    5  A    between atoms: N_15  and  C_16
REMARK    6  A    between atoms: C_27  and  C_28
REMARK                            x       y       z     vdW  Elec       q    Type
REMARK                         _______ _______ _______ _____ _____    ______ ____
ROOT
ATOM      1  N   UNL     1       0.658  10.672  18.944  0.00  0.00    +0.000 N 
ATOM      2  C   UNL     1       0.902   9.504  18.284  0.00  0.00    +0.000 C 
ATOM      3  O   UNL     1       0.203   9.090  17.368  0.00  0.00    +0.000 OA
ATOM      4  N   UNL     1       2.062   8.902  18.680  0.00  0.00    +0.000 N 
ATOM      5  H   UNL     1       1.227  10.897  19.747  0.00  0.00    +0.000 HD
ATOM      6  H   UNL     1       2.410   9.081  19.614  0.00  0.00    +0.000 HD
ENDROOT
BRANCH   4   7
ATOM      7  C   UNL     1       2.511   7.637  18.080  0.00  0.00    +0.000 C 
ATOM      8  C   UNL     1       3.870   7.761  17.404  0.00  0.00    +0.000 C 
ATOM      9  C   UNL     1       4.360   6.420  16.950  0.00  0.00    +0.000 A 
ATOM     10  C   UNL     1       5.145   6.331  15.790  0.00  0.00    +0.000 A 
ATOM     11  C   UNL     1       5.685   5.111  15.401  0.00  0.00    +0.000 A 
ATOM     12  C   UNL     1       5.446   3.978  16.170  0.00  0.00    +0.000 A 
ATOM     13  C   UNL     1       4.663   4.064  17.329  0.00  0.00    +0.000 A 
ATOM     14  C   UNL     1       4.115   5.287  17.737  0.00  0.00    +0.000 A 
ATOM     15  N   UNL     1       3.342   5.430  18.928  0.00  0.00    +0.000 N 
ATOM     16  C   UNL     1       3.339   4.383  19.939  0.00  0.00    +0.000 C 
ATOM     17  C   UNL     1       2.574   6.570  19.187  0.00  0.00    +0.000 C 
ATOM     18  O   UNL     1       1.893   6.698  20.211  0.00  0.00    +0.000 OA
ENDBRANCH   4   7
BRANCH   1  20
ATOM     19  C   UNL     1      -0.149  12.989  19.115  0.00  0.00    +0.000 C 
ATOM     20  C   UNL     1      -0.444  11.573  18.598  0.00  0.00    +0.000 C 
BRANCH  20  21
ATOM     21  C   UNL     1      -1.855  11.079  19.037  0.00  0.00    +0.000 C 
ATOM     22  O   UNL     1      -2.447  12.109  19.899  0.00  0.00    +0.000 OA
ATOM     23  C   UNL     1      -3.725  12.285  19.457  0.00  0.00    +0.000 A 
ATOM     24  C   UNL     1      -4.625  13.165  20.028  0.00  0.00    +0.000 A 
ATOM     25  C   UNL     1      -5.890  13.289  19.447  0.00  0.00    +0.000 A 
ATOM     26  C   UNL     1      -6.232  12.526  18.322  0.00  0.00    +0.000 A 
ATOM     27  C   UNL     1      -5.313  11.630  17.771  0.00  0.00    +0.000 A 
ATOM     28  C   UNL     1      -4.053  11.533  18.347  0.00  0.00    +0.000 A 
ATOM     29  C   UNL     1      -2.879  10.726  17.910  0.00  0.00    +0.000 C 
ATOM     30  C   UNL     1      -2.507  11.072  16.473  0.00  0.00    +0.000 C 
ENDBRANCH  20  21
ENDBRANCH   1  20
TORSDOF 3
ENDMDL
MODEL 3
REMARK VINA RESULT:      -8.5      6.681      8.799
REMARK  Name = 
REMARK  6 active torsions:
REMARK  status: ('A' for Active; 'I' for Inactive)
REMARK    1  A    between atoms: C_1  and  C_2
REMARK    2  A    between atoms: C_2  and  N_3
REMARK    3  A    between atoms: C_2  and  C_19
REMARK    4  A    between atoms: N_6  and  C_7
REMARK    5  A    between atoms: N_15  and  C_16
REMARK    6  A    between atoms: C_27  and  C_28
REMARK                            x       y       z     vdW  Elec       q    Type
REMARK                         _______ _______ _______ _____ _____    ______ ____
ROOT
ATOM      1  N   UNL     1       1.477   7.790  21.172  0.00  0.00    +0.000 N 
ATOM      2  C   UNL     1       1.923   7.442  19.931  0.00  0.00    +0.000 C 
ATOM      3  O   UNL     1       2.093   8.249  19.026  0.00  0.00    +0.000 OA
ATOM      4  N   UNL     1       2.260   6.122  19.838  0.00  0.00    +0.000 N 
ATOM      5  H   UNL     1       1.276   7.055  21.834  0.00  0.00    +0.000 HD
ATOM      6  H   UNL     1       1.812   5.460  20.460  0.00  0.00    +0.000 HD
ENDROOT
BRANCH   4   7
ATOM      7  C   UNL     1       2.775   5.550  18.586  0.00  0.00    +0.000 C 
ATOM      8  C   UNL     1       4.148   6.093  18.217  0.00  0.00    +0.000 C 
ATOM      9  C   UNL     1       4.704   5.369  17.028  0.00  0.00    +0.000 A 
ATOM     10  C   UNL     1       5.527   6.058  16.125  0.00  0.00    +0.000 A 
ATOM     11  C   UNL     1       6.125   5.385  15.066  0.00  0.00    +0.000 A 
ATOM     12  C   UNL     1       5.904   4.021  14.909  0.00  0.00    +0.000 A 
ATOM     13  C   UNL     1       5.083   3.330  15.809  0.00  0.00    +0.000 A 
ATOM     14  C   UNL     1       4.476   3.994  16.884  0.00  0.00    +0.000 A 
ATOM     15  N   UNL     1       3.662   3.325  17.846  0.00  0.00    +0.000 N 
ATOM     16  C   UNL     1       3.667   1.873  17.940  0.00  0.00    +0.000 C 
ATOM     17  C   UNL     1       2.843   4.020  18.742  0.00  0.00    +0.000 C 
ATOM     18  O   UNL     1       2.126   3.450  19.572  0.00  0.00    +0.000 OA
ENDBRANCH   4   7
BRANCH   1  20
ATOM     19  C   UNL     1       1.626   9.411  23.016  0.00  0.00    +0.000 C 
ATOM     20  C   UNL     1       1.193   9.174  21.562  0.00  0.00    +0.000 C 
BRANCH  20  21
ATOM     21  C   UNL     1      -0.274   9.635  21.313  0.00  0.00    +0.000 C 
ATOM     22  O   UNL     1      -0.795  10.188  22.568  0.00  0.00    +0.000 OA
ATOM     23  C   UNL     1      -1.408  11.361  22.242  0.00  0.00    +0.000 A 
ATOM     24  C   UNL     1      -2.046  12.180  23.156  0.00  0.00    +0.000 A 
ATOM     25  C   UNL     1      -2.591  13.383  22.700  0.00  0.00    +0.000 A 
ATOM     26  C   UNL     1      -2.499  13.736  21.346  0.00  0.00    +0.000 A 
ATOM     27  C   UNL     1      -1.865  12.886  20.437  0.00  0.00    +0.000 A 
ATOM     28  C   UNL     1      -1.310  11.703  20.909  0.00  0.00    +0.000 A 
ATOM     29  C   UNL     1      -0.520  10.676  20.173  0.00  0.00    +0.000 C 
ATOM     30  C   UNL     1       0.697  11.318  19.517  0.00  0.00    +0.000 C 
ENDBRANCH  20  21
ENDBRANCH   1  20
TORSDOF 3
ENDMDL
MODEL 4
REMARK VINA RESULT:      -8.4      6.665      9.681
REMARK  Name = 
REMARK  6 active torsions:
REMARK  status: ('A' for Active; 'I' for Inactive)
REMARK    1  A    between atoms: C_1  and  C_2
REMARK    2  A    between atoms: C_2  and  N_3
REMARK    3  A    between atoms: C_2  and  C_19
REMARK    4  A    between atoms: N_6  and  C_7
REMARK    5  A    between atoms: N_15  and  C_16
REMARK    6  A    between atoms: C_27  and  C_28
REMARK                            x       y       z     vdW  Elec       q    Type
REMARK                         _______ _______ _______ _____ _____    ______ ____
ROOT
ATOM      1  N   UNL     1       0.970  10.042  17.823  0.00  0.00    +0.000 N 
ATOM      2  C   UNL     1       1.471   9.096  18.668  0.00  0.00    +0.000 C 
ATOM      3  O   UNL     1       1.252   9.085  19.873  0.00  0.00    +0.000 OA
ATOM      4  N   UNL     1       2.150   8.107  18.016  0.00  0.00    +0.000 N 
ATOM      5  H   UNL     1       1.272  10.033  16.860  0.00  0.00    +0.000 HD
ATOM      6  H   UNL     1       2.576   8.317  17.121  0.00  0.00    +0.000 HD
ENDROOT
BRANCH   4   7
ATOM      7  C   UNL     1       2.757   6.985  18.747  0.00  0.00    +0.000 C 
ATOM      8  C   UNL     1       1.729   5.953  19.190  0.00  0.00    +0.000 C 
ATOM      9  C   UNL     1       2.404   4.755  19.785  0.00  0.00    +0.000 A 
ATOM     10  C   UNL     1       1.769   4.050  20.819  0.00  0.00    +0.000 A 
ATOM     11  C   UNL     1       2.333   2.884  21.324  0.00  0.00    +0.000 A 
ATOM     12  C   UNL     1       3.532   2.419  20.796  0.00  0.00    +0.000 A 
ATOM     13  C   UNL     1       4.169   3.120  19.763  0.00  0.00    +0.000 A 
ATOM     14  C   UNL     1       3.610   4.295  19.241  0.00  0.00    +0.000 A 
ATOM     15  N   UNL     1       4.203   5.022  18.166  0.00  0.00    +0.000 N 
ATOM     16  C   UNL     1       5.251   4.421  17.354  0.00  0.00    +0.000 C 
ATOM     17  C   UNL     1       3.804   6.321  17.835  0.00  0.00    +0.000 C 
ATOM     18  O   UNL     1       4.319   6.963  16.912  0.00  0.00    +0.000 OA
ENDBRANCH   4   7
BRANCH   1  20
ATOM     19  C   UNL     1       0.840  12.068  19.213  0.00  0.00    +0.000 C 
ATOM     20  C   UNL     1       0.085  11.123  18.266  0.00  0.00    +0.000 C 
BRANCH  20  21
ATOM     21  C   UNL     1      -1.268  10.652  18.877  0.00  0.00    +0.000 C 
ATOM     22  O   UNL     1      -1.757  11.711  19.767  0.00  0.00    +0.000 OA
ATOM     23  C   UNL     1      -3.076  11.881  19.466  0.00  0.00    +0.000 A 
ATOM     24  C   UNL     1      -3.904  12.784  20.107  0.00  0.00    +0.000 A 
ATOM     25  C   UNL     1      -5.226  12.897  19.669  0.00  0.00    +0.000 A 
ATOM     26  C   UNL     1      -5.695  12.101  18.614  0.00  0.00    +0.000 A 
ATOM     27  C   UNL     1      -4.845  11.182  17.993  0.00  0.00    +0.000 A 
ATOM     28  C   UNL     1      -3.529  11.096  18.426  0.00  0.00    +0.000 A 
ATOM     29  C   UNL     1      -2.413  10.269  17.885  0.00  0.00    +0.000 C 
ATOM     30  C   UNL     1      -2.206  10.567  16.404  0.00  0.00    +0.000 C 
ENDBRANCH  20  21
ENDBRANCH   1  20
TORSDOF 3
ENDMDL
MODEL 5
REMARK VINA RESULT:      -8.4      6.298      9.172
REMARK  Name = 
REMARK  6 active torsions:
REMARK  status: ('A' for Active; 'I' for Inactive)
REMARK    1  A    between atoms: C_1  and  C_2
REMARK    2  A    between atoms: C_2  and  N_3
REMARK    3  A    between atoms: C_2  and  C_19
REMARK    4  A    between atoms: N_6  and  C_7
REMARK    5  A    between atoms: N_15  and  C_16
REMARK    6  A    between atoms: C_27  and  C_28
REMARK                            x       y       z     vdW  Elec       q    Type
REMARK                         _______ _______ _______ _____ _____    ______ ____
ROOT
ATOM      1  N   UNL     1       1.365  10.182  17.857  0.00  0.00    +0.000 N 
ATOM      2  C   UNL     1       1.671   9.031  18.521  0.00  0.00    +0.000 C 
ATOM      3  O   UNL     1       1.377   8.832  19.692  0.00  0.00    +0.000 OA
ATOM      4  N   UNL     1       2.239   8.087  17.714  0.00  0.00    +0.000 N 
ATOM      5  H   UNL     1       1.721  10.305  16.920  0.00  0.00    +0.000 HD
ATOM      6  H   UNL     1       2.745   8.391  16.890  0.00  0.00    +0.000 HD
ENDROOT
BRANCH   4   7
ATOM      7  C   UNL     1       2.631   6.770  18.236  0.00  0.00    +0.000 C 
ATOM      8  C   UNL     1       1.628   5.680  17.884  0.00  0.00    +0.000 C 
ATOM      9  C   UNL     1       2.143   4.334  18.292  0.00  0.00    +0.000 A 
ATOM     10  C   UNL     1       1.236   3.347  18.708  0.00  0.00    +0.000 A 
ATOM     11  C   UNL     1       1.682   2.064  19.005  0.00  0.00    +0.000 A 
ATOM     12  C   UNL     1       3.034   1.764  18.885  0.00  0.00    +0.000 A 
ATOM     13  C   UNL     1       3.942   2.746  18.470  0.00  0.00    +0.000 A 
ATOM     14  C   UNL     1       3.508   4.043  18.163  0.00  0.00    +0.000 A 
ATOM     15  N   UNL     1       4.389   5.065  17.702  0.00  0.00    +0.000 N 
ATOM     16  C   UNL     1       5.727   4.735  17.234  0.00  0.00    +0.000 C 
ATOM     17  C   UNL     1       4.014   6.412  17.662  0.00  0.00    +0.000 C 
ATOM     18  O   UNL     1       4.774   7.307  17.275  0.00  0.00    +0.000 OA
ENDBRANCH   4   7
BRANCH   1  20
ATOM     19  C   UNL     1       1.542  12.100  19.387  0.00  0.00    +0.000 C 
ATOM     20  C   UNL     1       0.619  11.286  18.468  0.00  0.00    +0.000 C 
BRANCH  20  21
ATOM     21  C   UNL     1      -0.695  10.865  19.192  0.00  0.00    +0.000 C 
ATOM     22  O   UNL     1      -0.935  11.817  20.283  0.00  0.00    +0.000 OA
ATOM     23  C   UNL     1      -2.251  12.165  20.201  0.00  0.00    +0.000 A 
ATOM     24  C   UNL     1      -2.875  13.037  21.073  0.00  0.00    +0.000 A 
ATOM     25  C   UNL     1      -4.217  13.351  20.848  0.00  0.00    +0.000 A 
ATOM     26  C   UNL     1      -4.909  12.782  19.769  0.00  0.00    +0.000 A 
ATOM     27  C   UNL     1      -4.262  11.890  18.910  0.00  0.00    +0.000 A 
ATOM     28  C   UNL     1      -2.923  11.603  19.135  0.00  0.00    +0.000 A 
ATOM     29  C   UNL     1      -1.993  10.761  18.329  0.00  0.00    +0.000 C 
ATOM     30  C   UNL     1      -1.937  11.265  16.891  0.00  0.00    +0.000 C 
ENDBRANCH  20  21
ENDBRANCH   1  20
TORSDOF 3
ENDMDL
MODEL 6
REMARK VINA RESULT:      -8.3      6.701      9.273
REMARK  Name = 
REMARK  6 active torsions:
REMARK  status: ('A' for Active; 'I' for Inactive)
REMARK    1  A    between atoms: C_1  and  C_2
REMARK    2  A    between atoms: C_2  and  N_3
REMARK    3  A    between atoms: C_2  and  C_19
REMARK    4  A    between atoms: N_6  and  C_7
REMARK    5  A    between atoms: N_15  and  C_16
REMARK    6  A    between atoms: C_27  and  C_28
REMARK                            x       y       z     vdW  Elec       q    Type
REMARK                         _______ _______ _______ _____ _____    ______ ____
ROOT
ATOM      1  N   UNL     1       1.156   9.687  20.105  0.00  0.00    +0.000 N 
ATOM      2  C   UNL     1       1.480   8.876  19.057  0.00  0.00    +0.000 C 
ATOM      3  O   UNL     1       1.245   9.159  17.890  0.00  0.00    +0.000 OA
ATOM      4  N   UNL     1       2.186   7.771  19.439  0.00  0.00    +0.000 N 
ATOM      5  H   UNL     1       1.301   9.341  21.042  0.00  0.00    +0.000 HD
ATOM      6  H   UNL     1       2.070   7.420  20.382  0.00  0.00    +0.000 HD
ENDROOT
BRANCH   4   7
ATOM      7  C   UNL     1       2.641   6.777  18.456  0.00  0.00    +0.000 C 
ATOM      8  C   UNL     1       3.971   7.153  17.818  0.00  0.00    +0.000 C 
ATOM      9  C   UNL     1       4.476   6.042  16.948  0.00  0.00    +0.000 A 
ATOM     10  C   UNL     1       5.219   6.350  15.799  0.00  0.00    +0.000 A 
ATOM     11  C   UNL     1       5.773   5.335  15.028  0.00  0.00    +0.000 A 
ATOM     12  C   UNL     1       5.586   4.009  15.404  0.00  0.00    +0.000 A 
ATOM     13  C   UNL     1       4.845   3.698  16.551  0.00  0.00    +0.000 A 
ATOM     14  C   UNL     1       4.284   4.710  17.341  0.00  0.00    +0.000 A 
ATOM     15  N   UNL     1       3.552   4.443  18.536  0.00  0.00    +0.000 N 
ATOM     16  C   UNL     1       3.609   3.131  19.162  0.00  0.00    +0.000 C 
ATOM     17  C   UNL     1       2.768   5.416  19.164  0.00  0.00    +0.000 C 
ATOM     18  O   UNL     1       2.122   5.191  20.194  0.00  0.00    +0.000 OA
ENDBRANCH   4   7
BRANCH   1  20
ATOM     19  C   UNL     1       1.320  12.066  20.709  0.00  0.00    +0.000 C 
ATOM     20  C   UNL     1       0.528  11.000  19.937  0.00  0.00    +0.000 C 
BRANCH  20  21
ATOM     21  C   UNL     1      -0.991  11.047  20.281  0.00  0.00    +0.000 C 
ATOM     22  O   UNL     1      -1.122  11.190  21.735  0.00  0.00    +0.000 OA
ATOM     23  C   UNL     1      -2.048  12.171  21.938  0.00  0.00    +0.000 A 
ATOM     24  C   UNL     1      -2.467  12.589  23.187  0.00  0.00    +0.000 A 
ATOM     25  C   UNL     1      -3.385  13.641  23.260  0.00  0.00    +0.000 A 
ATOM     26  C   UNL     1      -3.872  14.240  22.090  0.00  0.00    +0.000 A 
ATOM     27  C   UNL     1      -3.447  13.789  20.838  0.00  0.00    +0.000 A 
ATOM     28  C   UNL     1      -2.519  12.757  20.782  0.00  0.00    +0.000 A 
ATOM     29  C   UNL     1      -1.852  12.155  19.593  0.00  0.00    +0.000 C 
ATOM     30  C   UNL     1      -1.126  13.231  18.794  0.00  0.00    +0.000 C 
ENDBRANCH  20  21
ENDBRANCH   1  20
TORSDOF 3
ENDMDL
MODEL 7
REMARK VINA RESULT:      -8.3      6.975     11.576
REMARK  Name = 
REMARK  6 active torsions:
REMARK  status: ('A' for Active; 'I' for Inactive)
REMARK    1  A    between atoms: C_1  and  C_2
REMARK    2  A    between atoms: C_2  and  N_3
REMARK    3  A    between atoms: C_2  and  C_19
REMARK    4  A    between atoms: N_6  and  C_7
REMARK    5  A    between atoms: N_15  and  C_16
REMARK    6  A    between atoms: C_27  and  C_28
REMARK                            x       y       z     vdW  Elec       q    Type
REMARK                         _______ _______ _______ _____ _____    ______ ____
ROOT
ATOM      1  N   UNL     1       1.183  10.456  20.542  0.00  0.00    +0.000 N 
ATOM      2  C   UNL     1       0.804  11.423  19.659  0.00  0.00    +0.000 C 
ATOM      3  O   UNL     1       0.058  11.214  18.711  0.00  0.00    +0.000 OA
ATOM      4  N   UNL     1       1.255  12.665  20.005  0.00  0.00    +0.000 N 
ATOM      5  H   UNL     1       1.872  10.688  21.243  0.00  0.00    +0.000 HD
ATOM      6  H   UNL     1       2.097  12.739  20.565  0.00  0.00    +0.000 HD
ENDROOT
BRANCH   4   7
ATOM      7  C   UNL     1       0.944  13.847  19.189  0.00  0.00    +0.000 C 
ATOM      8  C   UNL     1       0.079  14.857  19.930  0.00  0.00    +0.000 C 
ATOM      9  C   UNL     1      -0.079  16.112  19.126  0.00  0.00    +0.000 A 
ATOM     10  C   UNL     1      -1.273  16.842  19.217  0.00  0.00    +0.000 A 
ATOM     11  C   UNL     1      -1.407  18.055  18.551  0.00  0.00    +0.000 A 
ATOM     12  C   UNL     1      -0.347  18.541  17.793  0.00  0.00    +0.000 A 
ATOM     13  C   UNL     1       0.847  17.814  17.700  0.00  0.00    +0.000 A 
ATOM     14  C   UNL     1       0.999  16.592  18.370  0.00  0.00    +0.000 A 
ATOM     15  N   UNL     1       2.208  15.836  18.333  0.00  0.00    +0.000 N 
ATOM     16  C   UNL     1       3.444  16.436  17.855  0.00  0.00    +0.000 C 
ATOM     17  C   UNL     1       2.268  14.506  18.763  0.00  0.00    +0.000 C 
ATOM     18  O   UNL     1       3.308  13.839  18.726  0.00  0.00    +0.000 OA
ENDBRANCH   4   7
BRANCH   1  20
ATOM     19  C   UNL     1      -0.304   8.804  21.596  0.00  0.00    +0.000 C 
ATOM     20  C   UNL     1       0.705   9.072  20.469  0.00  0.00    +0.000 C 
BRANCH  20  21
ATOM     21  C   UNL     1       1.828   7.993  20.429  0.00  0.00    +0.000 C 
ATOM     22  O   UNL     1       1.298   6.766  21.035  0.00  0.00    +0.000 OA
ATOM     23  C   UNL     1       1.646   5.748  20.197  0.00  0.00    +0.000 A 
ATOM     24  C   UNL     1       1.343   4.419  20.430  0.00  0.00    +0.000 A 
ATOM     25  C   UNL     1       1.712   3.477  19.466  0.00  0.00    +0.000 A 
ATOM     26  C   UNL     1       2.381   3.878  18.301  0.00  0.00    +0.000 A 
ATOM     27  C   UNL     1       2.691   5.225  18.094  0.00  0.00    +0.000 A 
ATOM     28  C   UNL     1       2.301   6.151  19.052  0.00  0.00    +0.000 A 
ATOM     29  C   UNL     1       2.436   7.636  19.035  0.00  0.00    +0.000 C 
ATOM     30  C   UNL     1       1.763   8.211  17.793  0.00  0.00    +0.000 C 
ENDBRANCH  20  21
ENDBRANCH   1  20
TORSDOF 3
ENDMDL
MODEL 8
REMARK VINA RESULT:      -8.3      6.971     10.583
REMARK  Name = 
REMARK  6 active torsions:
REMARK  status: ('A' for Active; 'I' for Inactive)
REMARK    1  A    between atoms: C_1  and  C_2
REMARK    2  A    between atoms: C_2  and  N_3
REMARK    3  A    between atoms: C_2  and  C_19
REMARK    4  A    between atoms: N_6  and  C_7
REMARK    5  A    between atoms: N_15  and  C_16
REMARK    6  A    between atoms: C_27  and  C_28
REMARK                            x       y       z     vdW  Elec       q    Type
REMARK                         _______ _______ _______ _____ _____    ______ ____
ROOT
ATOM      1  N   UNL     1       1.838   7.786  20.888  0.00  0.00    +0.000 N 
ATOM      2  C   UNL     1       0.923   8.775  20.675  0.00  0.00    +0.000 C 
ATOM      3  O   UNL     1       0.230   8.844  19.668  0.00  0.00    +0.000 OA
ATOM      4  N   UNL     1       0.785   9.612  21.745  0.00  0.00    +0.000 N 
ATOM      5  H   UNL     1       2.433   7.851  21.702  0.00  0.00    +0.000 HD
ATOM      6  H   UNL     1       1.566   9.723  22.380  0.00  0.00    +0.000 HD
ENDROOT
BRANCH   4   7
ATOM      7  C   UNL     1      -0.161  10.736  21.719  0.00  0.00    +0.000 C 
ATOM      8  C   UNL     1      -0.997  10.824  22.989  0.00  0.00    +0.000 C 
ATOM      9  C   UNL     1      -1.829  12.070  22.991  0.00  0.00    +0.000 A 
ATOM     10  C   UNL     1      -3.088  12.057  23.611  0.00  0.00    +0.000 A 
ATOM     11  C   UNL     1      -3.837  13.224  23.703  0.00  0.00    +0.000 A 
ATOM     12  C   UNL     1      -3.329  14.408  23.179  0.00  0.00    +0.000 A 
ATOM     13  C   UNL     1      -2.073  14.425  22.559  0.00  0.00    +0.000 A 
ATOM     14  C   UNL     1      -1.304  13.257  22.461  0.00  0.00    +0.000 A 
ATOM     15  N   UNL     1      -0.005  13.233  21.872  0.00  0.00    +0.000 N 
ATOM     16  C   UNL     1       0.716  14.471  21.617  0.00  0.00    +0.000 C 
ATOM     17  C   UNL     1       0.636  12.039  21.528  0.00  0.00    +0.000 C 
ATOM     18  O   UNL     1       1.757  12.008  21.007  0.00  0.00    +0.000 OA
ENDBRANCH   4   7
BRANCH   1  20
ATOM     19  C   UNL     1       1.592   5.359  20.575  0.00  0.00    +0.000 C 
ATOM     20  C   UNL     1       2.059   6.682  19.950  0.00  0.00    +0.000 C 
BRANCH  20  21
ATOM     21  C   UNL     1       3.510   6.578  19.393  0.00  0.00    +0.000 C 
ATOM     22  O   UNL     1       3.781   5.167  19.096  0.00  0.00    +0.000 OA
ATOM     23  C   UNL     1       4.353   5.143  17.858  0.00  0.00    +0.000 A 
ATOM     24  C   UNL     1       4.775   3.989  17.225  0.00  0.00    +0.000 A 
ATOM     25  C   UNL     1       5.298   4.095  15.933  0.00  0.00    +0.000 A 
ATOM     26  C   UNL     1       5.400   5.346  15.309  0.00  0.00    +0.000 A 
ATOM     27  C   UNL     1       4.983   6.502  15.975  0.00  0.00    +0.000 A 
ATOM     28  C   UNL     1       4.446   6.378  17.249  0.00  0.00    +0.000 A 
ATOM     29  C   UNL     1       3.860   7.428  18.129  0.00  0.00    +0.000 C 
ATOM     30  C   UNL     1       2.721   8.143  17.411  0.00  0.00    +0.000 C 
ENDBRANCH  20  21
ENDBRANCH   1  20
TORSDOF 3
ENDMDL
MODEL 9
REMARK VINA RESULT:      -8.2      6.023      8.439
REMARK  Name = 
REMARK  6 active torsions:
REMARK  status: ('A' for Active; 'I' for Inactive)
REMARK    1  A    between atoms: C_1  and  C_2
REMARK    2  A    between atoms: C_2  and  N_3
REMARK    3  A    between atoms: C_2  and  C_19
REMARK    4  A    between atoms: N_6  and  C_7
REMARK    5  A    between atoms: N_15  and  C_16
REMARK    6  A    between atoms: C_27  and  C_28
REMARK                            x       y       z     vdW  Elec       q    Type
REMARK                         _______ _______ _______ _____ _____    ______ ____
ROOT
ATOM      1  N   UNL     1       1.957  10.270  17.831  0.00  0.00    +0.000 N 
ATOM      2  C   UNL     1       2.111   9.062  18.444  0.00  0.00    +0.000 C 
ATOM      3  O   UNL     1       1.645   8.803  19.546  0.00  0.00    +0.000 OA
ATOM      4  N   UNL     1       2.743   8.143  17.657  0.00  0.00    +0.000 N 
ATOM      5  H   UNL     1       2.448  10.434  16.964  0.00  0.00    +0.000 HD
ATOM      6  H   UNL     1       3.375   8.471  16.937  0.00  0.00    +0.000 HD
ENDROOT
BRANCH   4   7
ATOM      7  C   UNL     1       2.995   6.774  18.131  0.00  0.00    +0.000 C 
ATOM      8  C   UNL     1       1.841   5.829  17.825  0.00  0.00    +0.000 C 
ATOM      9  C   UNL     1       2.203   4.418  18.176  0.00  0.00    +0.000 A 
ATOM     10  C   UNL     1       1.205   3.544  18.632  0.00  0.00    +0.000 A 
ATOM     11  C   UNL     1       1.500   2.209  18.878  0.00  0.00    +0.000 A 
ATOM     12  C   UNL     1       2.793   1.742  18.667  0.00  0.00    +0.000 A 
ATOM     13  C   UNL     1       3.792   2.612  18.212  0.00  0.00    +0.000 A 
ATOM     14  C   UNL     1       3.509   3.961  17.955  0.00  0.00    +0.000 A 
ATOM     15  N   UNL     1       4.485   4.874  17.457  0.00  0.00    +0.000 N 
ATOM     16  C   UNL     1       5.738   4.389  16.899  0.00  0.00    +0.000 C 
ATOM     17  C   UNL     1       4.283   6.258  17.464  0.00  0.00    +0.000 C 
ATOM     18  O   UNL     1       5.127   7.059  17.044  0.00  0.00    +0.000 OA
ENDBRANCH   4   7
BRANCH   1  20
ATOM     19  C   UNL     1       2.132  12.468  18.922  0.00  0.00    +0.000 C 
ATOM     20  C   UNL     1       1.185  11.372  18.412  0.00  0.00    +0.000 C 
BRANCH  20  21
ATOM     21  C   UNL     1       0.155  10.945  19.500  0.00  0.00    +0.000 C 
ATOM     22  O   UNL     1       0.525  11.605  20.757  0.00  0.00    +0.000 OA
ATOM     23  C   UNL     1      -0.628  12.124  21.268  0.00  0.00    +0.000 A 
ATOM     24  C   UNL     1      -0.702  12.811  22.465  0.00  0.00    +0.000 A 
ATOM     25  C   UNL     1      -1.937  13.338  22.852  0.00  0.00    +0.000 A 
ATOM     26  C   UNL     1      -3.070  13.157  22.045  0.00  0.00    +0.000 A 
ATOM     27  C   UNL     1      -2.975  12.444  20.847  0.00  0.00    +0.000 A 
ATOM     28  C   UNL     1      -1.737  11.944  20.467  0.00  0.00    +0.000 A 
ATOM     29  C   UNL     1      -1.355  11.230  19.216  0.00  0.00    +0.000 C 
ATOM     30  C   UNL     1      -1.705  12.076  17.997  0.00  0.00    +0.000 C 
ENDBRANCH  20  21
ENDBRANCH   1  20
TORSDOF 3
ENDMDL
