MODEL 1
REMARK VINA RESULT:      -7.7      0.000      0.000
REMARK  Name = 
REMARK  8 active torsions:
REMARK  status: ('A' for Active; 'I' for Inactive)
REMARK    1  A    between atoms: C_1  and  O_2
REMARK    2  A    between atoms: O_2  and  C_3
REMARK    3  A    between atoms: C_3  and  C_4
REMARK    4  A    between atoms: C_4  and  C_5
REMARK    5  A    between atoms: C_5  and  N_6
REMARK    6  A    between atoms: C_7  and  C_9
REMARK    7  A    between atoms: C_14  and  C_15
REMARK    8  A    between atoms: N_19  and  C_20
REMARK                            x       y       z     vdW  Elec       q    Type
REMARK                         _______ _______ _______ _____ _____    ______ ____
ROOT
ATOM      1  C   UNL     1       6.617   4.828  16.325  0.00  0.00    +0.000 A 
ATOM      2  C   UNL     1       7.523   5.414  17.226  0.00  0.00    +0.000 A 
ATOM      3  C   UNL     1       7.241   5.494  18.590  0.00  0.00    +0.000 A 
ATOM      4  C   UNL     1       6.035   4.997  19.103  0.00  0.00    +0.000 A 
ATOM      5  C   UNL     1       5.105   4.403  18.226  0.00  0.00    +0.000 A 
ATOM      6  C   UNL     1       3.832   3.767  18.353  0.00  0.00    +0.000 A 
ATOM      7  C   UNL     1       3.487   3.340  17.091  0.00  0.00    +0.000 A 
ATOM      8  O   UNL     1       4.437   3.684  16.191  0.00  0.00    +0.000 OA
ATOM      9  C   UNL     1       5.433   4.326  16.873  0.00  0.00    +0.000 A 
ENDROOT
BRANCH   6  10
ATOM     10  C   UNL     1       2.996   3.590  19.568  0.00  0.00    +0.000 A 
ATOM     11  C   UNL     1       1.828   4.260  19.862  0.00  0.00    +0.000 A 
ATOM     12  C   UNL     1       1.386   3.708  21.076  0.00  0.00    +0.000 A 
ATOM     13  N   UNL     1       2.219   2.776  21.545  0.00  0.00    +0.000 NA
ATOM     14  N   UNL     1       3.202   2.733  20.622  0.00  0.00    +0.000 N 
ATOM     15  C   UNL     1       4.380   1.945  20.904  0.00  0.00    +0.000 C 
ENDBRANCH   6  10
BRANCH   1  17
ATOM     16  N   UNL     1       6.359   3.758  14.149  0.00  0.00    +0.000 N 
ATOM     17  C   UNL     1       6.944   4.766  14.881  0.00  0.00    +0.000 C 
ATOM     18  O   UNL     1       7.699   5.603  14.395  0.00  0.00    +0.000 OA
ATOM     19  H   UNL     1       5.769   3.082  14.625  0.00  0.00    +0.000 HD
BRANCH  16  20
ATOM     20  C   UNL     1       6.575   3.604  12.728  0.00  0.00    +0.000 C 
BRANCH  20  21
ATOM     21  C   UNL     1       5.432   2.844  12.059  0.00  0.00    +0.000 C 
BRANCH  21  22
ATOM     22  C   UNL     1       4.383   3.798  11.503  0.00  0.00    +0.000 C 
BRANCH  22  24
ATOM     23  C   UNL     1       2.874   3.878   9.688  0.00  0.00    +0.000 C 
ATOM     24  O   UNL     1       3.485   3.065  10.676  0.00  0.00    +0.000 OA
ENDBRANCH  22  24
ENDBRANCH  21  22
ENDBRANCH  20  21
ENDBRANCH  16  20
ENDBRANCH   1  17
TORSDOF 6
ENDMDL
MODEL 2
REMARK VINA RESULT:      -7.6      1.235      1.815
REMARK  Name = 
REMARK  8 active torsions:
REMARK  status: ('A' for Active; 'I' for Inactive)
REMARK    1  A    between atoms: C_1  and  O_2
REMARK    2  A    between atoms: O_2  and  C_3
REMARK    3  A    between atoms: C_3  and  C_4
REMARK    4  A    between atoms: C_4  and  C_5
REMARK    5  A    between atoms: C_5  and  N_6
REMARK    6  A    between atoms: C_7  and  C_9
REMARK    7  A    between atoms: C_14  and  C_15
REMARK    8  A    between atoms: N_19  and  C_20
REMARK                            x       y       z     vdW  Elec       q    Type
REMARK                         _______ _______ _______ _____ _____    ______ ____
ROOT
ATOM      1  C   UNL     1       6.649   4.890  16.309  0.00  0.00    +0.000 A 
ATOM      2  C   UNL     1       7.565   5.521  17.168  0.00  0.00    +0.000 A 
ATOM      3  C   UNL     1       7.312   5.644  18.536  0.00  0.00    +0.000 A 
ATOM      4  C   UNL     1       6.126   5.149  19.093  0.00  0.00    +0.000 A 
ATOM      5  C   UNL     1       5.185   4.512  18.258  0.00  0.00    +0.000 A 
ATOM      6  C   UNL     1       3.926   3.862  18.436  0.00  0.00    +0.000 A 
ATOM      7  C   UNL     1       3.559   3.387  17.198  0.00  0.00    +0.000 A 
ATOM      8  O   UNL     1       4.484   3.711  16.265  0.00  0.00    +0.000 OA
ATOM      9  C   UNL     1       5.484   4.392  16.901  0.00  0.00    +0.000 A 
ENDROOT
BRANCH   6  10
ATOM     10  C   UNL     1       3.119   3.716  19.675  0.00  0.00    +0.000 A 
ATOM     11  C   UNL     1       2.854   2.540  20.345  0.00  0.00    +0.000 A 
ATOM     12  C   UNL     1       2.111   2.924  21.473  0.00  0.00    +0.000 A 
ATOM     13  N   UNL     1       1.886   4.239  21.514  0.00  0.00    +0.000 NA
ATOM     14  N   UNL     1       2.492   4.700  20.400  0.00  0.00    +0.000 N 
ATOM     15  C   UNL     1       2.294   6.083  20.028  0.00  0.00    +0.000 C 
ENDBRANCH   6  10
BRANCH   1  17
ATOM     16  N   UNL     1       6.296   3.789  14.163  0.00  0.00    +0.000 N 
ATOM     17  C   UNL     1       6.944   4.782  14.862  0.00  0.00    +0.000 C 
ATOM     18  O   UNL     1       7.730   5.570  14.344  0.00  0.00    +0.000 OA
ATOM     19  H   UNL     1       5.683   3.154  14.664  0.00  0.00    +0.000 HD
BRANCH  16  20
ATOM     20  C   UNL     1       6.477   3.596  12.741  0.00  0.00    +0.000 C 
BRANCH  20  21
ATOM     21  C   UNL     1       5.141   3.504  12.006  0.00  0.00    +0.000 C 
BRANCH  21  22
ATOM     22  C   UNL     1       4.990   2.163  11.300  0.00  0.00    +0.000 C 
BRANCH  22  24
ATOM     23  C   UNL     1       6.138   0.103  11.158  0.00  0.00    +0.000 C 
ATOM     24  O   UNL     1       6.256   1.512  11.270  0.00  0.00    +0.000 OA
ENDBRANCH  22  24
ENDBRANCH  21  22
ENDBRANCH  20  21
ENDBRANCH  16  20
ENDBRANCH   1  17
TORSDOF 6
ENDMDL
MODEL 3
REMARK VINA RESULT:      -7.6      0.979      1.318
REMARK  Name = 
REMARK  8 active torsions:
REMARK  status: ('A' for Active; 'I' for Inactive)
REMARK    1  A    between atoms: C_1  and  O_2
REMARK    2  A    between atoms: O_2  and  C_3
REMARK    3  A    between atoms: C_3  and  C_4
REMARK    4  A    between atoms: C_4  and  C_5
REMARK    5  A    between atoms: C_5  and  N_6
REMARK    6  A    between atoms: C_7  and  C_9
REMARK    7  A    between atoms: C_14  and  C_15
REMARK    8  A    between atoms: N_19  and  C_20
REMARK                            x       y       z     vdW  Elec       q    Type
REMARK                         _______ _______ _______ _____ _____    ______ ____
ROOT
ATOM      1  C   UNL     1       6.613   4.834  16.419  0.00  0.00    +0.000 A 
ATOM      2  C   UNL     1       7.513   5.441  17.312  0.00  0.00    +0.000 A 
ATOM      3  C   UNL     1       7.236   5.524  18.678  0.00  0.00    +0.000 A 
ATOM      4  C   UNL     1       6.041   5.011  19.199  0.00  0.00    +0.000 A 
ATOM      5  C   UNL     1       5.116   4.396  18.330  0.00  0.00    +0.000 A 
ATOM      6  C   UNL     1       3.855   3.740  18.467  0.00  0.00    +0.000 A 
ATOM      7  C   UNL     1       3.511   3.299  17.209  0.00  0.00    +0.000 A 
ATOM      8  O   UNL     1       4.452   3.652  16.303  0.00  0.00    +0.000 OA
ATOM      9  C   UNL     1       5.440   4.316  16.976  0.00  0.00    +0.000 A 
ENDROOT
BRANCH   6  10
ATOM     10  C   UNL     1       3.027   3.556  19.687  0.00  0.00    +0.000 A 
ATOM     11  C   UNL     1       1.869   4.236  20.000  0.00  0.00    +0.000 A 
ATOM     12  C   UNL     1       1.432   3.673  21.210  0.00  0.00    +0.000 A 
ATOM     13  N   UNL     1       2.258   2.726  21.660  0.00  0.00    +0.000 NA
ATOM     14  N   UNL     1       3.233   2.684  20.728  0.00  0.00    +0.000 N 
ATOM     15  C   UNL     1       4.404   1.879  20.990  0.00  0.00    +0.000 C 
ENDBRANCH   6  10
BRANCH   1  17
ATOM     16  N   UNL     1       6.363   3.745  14.252  0.00  0.00    +0.000 N 
ATOM     17  C   UNL     1       6.934   4.768  14.974  0.00  0.00    +0.000 C 
ATOM     18  O   UNL     1       7.672   5.615  14.480  0.00  0.00    +0.000 OA
ATOM     19  H   UNL     1       5.787   3.063  14.735  0.00  0.00    +0.000 HD
BRANCH  16  20
ATOM     20  C   UNL     1       6.575   3.586  12.830  0.00  0.00    +0.000 C 
BRANCH  20  21
ATOM     21  C   UNL     1       5.258   3.583  12.057  0.00  0.00    +0.000 C 
BRANCH  21  22
ATOM     22  C   UNL     1       4.968   2.209  11.466  0.00  0.00    +0.000 C 
BRANCH  22  24
ATOM     23  C   UNL     1       6.128   0.172  11.173  0.00  0.00    +0.000 C 
ATOM     24  O   UNL     1       6.201   1.588  11.116  0.00  0.00    +0.000 OA
ENDBRANCH  22  24
ENDBRANCH  21  22
ENDBRANCH  20  21
ENDBRANCH  16  20
ENDBRANCH   1  17
TORSDOF 6
ENDMDL
MODEL 4
REMARK VINA RESULT:      -7.5      0.794      1.231
REMARK  Name = 
REMARK  8 active torsions:
REMARK  status: ('A' for Active; 'I' for Inactive)
REMARK    1  A    between atoms: C_1  and  O_2
REMARK    2  A    between atoms: O_2  and  C_3
REMARK    3  A    between atoms: C_3  and  C_4
REMARK    4  A    between atoms: C_4  and  C_5
REMARK    5  A    between atoms: C_5  and  N_6
REMARK    6  A    between atoms: C_7  and  C_9
REMARK    7  A    between atoms: C_14  and  C_15
REMARK    8  A    between atoms: N_19  and  C_20
REMARK                            x       y       z     vdW  Elec       q    Type
REMARK                         _______ _______ _______ _____ _____    ______ ____
ROOT
ATOM      1  C   UNL     1       6.676   4.964  16.277  0.00  0.00    +0.000 A 
ATOM      2  C   UNL     1       7.561   5.578  17.180  0.00  0.00    +0.000 A 
ATOM      3  C   UNL     1       7.264   5.665  18.541  0.00  0.00    +0.000 A 
ATOM      4  C   UNL     1       6.065   5.147  19.048  0.00  0.00    +0.000 A 
ATOM      5  C   UNL     1       5.156   4.525  18.169  0.00  0.00    +0.000 A 
ATOM      6  C   UNL     1       3.896   3.862  18.290  0.00  0.00    +0.000 A 
ATOM      7  C   UNL     1       3.572   3.416  17.030  0.00  0.00    +0.000 A 
ATOM      8  O   UNL     1       4.523   3.771  16.135  0.00  0.00    +0.000 OA
ATOM      9  C   UNL     1       5.498   4.442  16.819  0.00  0.00    +0.000 A 
ENDROOT
BRANCH   6  10
ATOM     10  C   UNL     1       3.052   3.678  19.499  0.00  0.00    +0.000 A 
ATOM     11  C   UNL     1       2.723   2.478  20.092  0.00  0.00    +0.000 A 
ATOM     12  C   UNL     1       1.967   2.826  21.223  0.00  0.00    +0.000 A 
ATOM     13  N   UNL     1       1.794   4.145  21.336  0.00  0.00    +0.000 NA
ATOM     14  N   UNL     1       2.447   4.644  20.265  0.00  0.00    +0.000 N 
ATOM     15  C   UNL     1       2.315   6.053  19.972  0.00  0.00    +0.000 C 
ENDBRANCH   6  10
BRANCH   1  17
ATOM     16  N   UNL     1       6.290   4.020  14.062  0.00  0.00    +0.000 N 
ATOM     17  C   UNL     1       7.018   4.895  14.837  0.00  0.00    +0.000 C 
ATOM     18  O   UNL     1       7.909   5.611  14.392  0.00  0.00    +0.000 OA
ATOM     19  H   UNL     1       5.588   3.437  14.505  0.00  0.00    +0.000 HD
BRANCH  16  20
ATOM     20  C   UNL     1       6.507   3.879  12.639  0.00  0.00    +0.000 C 
BRANCH  20  21
ATOM     21  C   UNL     1       5.594   2.819  12.029  0.00  0.00    +0.000 C 
BRANCH  21  22
ATOM     22  C   UNL     1       4.218   3.391  11.709  0.00  0.00    +0.000 C 
BRANCH  22  24
ATOM     23  C   UNL     1       2.998   4.158   9.838  0.00  0.00    +0.000 C 
ATOM     24  O   UNL     1       3.969   3.241  10.315  0.00  0.00    +0.000 OA
ENDBRANCH  22  24
ENDBRANCH  21  22
ENDBRANCH  20  21
ENDBRANCH  16  20
ENDBRANCH   1  17
TORSDOF 6
ENDMDL
MODEL 5
REMARK VINA RESULT:      -7.1      1.015      1.032
REMARK  Name = 
REMARK  8 active torsions:
REMARK  status: ('A' for Active; 'I' for Inactive)
REMARK    1  A    between atoms: C_1  and  O_2
REMARK    2  A    between atoms: O_2  and  C_3
REMARK    3  A    between atoms: C_3  and  C_4
REMARK    4  A    between atoms: C_4  and  C_5
REMARK    5  A    between atoms: C_5  and  N_6
REMARK    6  A    between atoms: C_7  and  C_9
REMARK    7  A    between atoms: C_14  and  C_15
REMARK    8  A    between atoms: N_19  and  C_20
REMARK                            x       y       z     vdW  Elec       q    Type
REMARK                         _______ _______ _______ _____ _____    ______ ____
ROOT
ATOM      1  C   UNL     1       6.664   4.830  16.192  0.00  0.00    +0.000 A 
ATOM      2  C   UNL     1       7.630   5.192  17.147  0.00  0.00    +0.000 A 
ATOM      3  C   UNL     1       7.320   5.253  18.507  0.00  0.00    +0.000 A 
ATOM      4  C   UNL     1       6.026   4.963  18.961  0.00  0.00    +0.000 A 
ATOM      5  C   UNL     1       5.034   4.597  18.029  0.00  0.00    +0.000 A 
ATOM      6  C   UNL     1       3.663   4.202  18.087  0.00  0.00    +0.000 A 
ATOM      7  C   UNL     1       3.289   3.911  16.795  0.00  0.00    +0.000 A 
ATOM      8  O   UNL     1       4.318   4.118  15.940  0.00  0.00    +0.000 OA
ATOM      9  C   UNL     1       5.390   4.530  16.682  0.00  0.00    +0.000 A 
ENDROOT
BRANCH   6  10
ATOM     10  C   UNL     1       2.766   4.121  19.269  0.00  0.00    +0.000 A 
ATOM     11  C   UNL     1       2.586   5.095  20.228  0.00  0.00    +0.000 A 
ATOM     12  C   UNL     1       1.608   4.579  21.094  0.00  0.00    +0.000 A 
ATOM     13  N   UNL     1       1.209   3.355  20.740  0.00  0.00    +0.000 NA
ATOM     14  N   UNL     1       1.940   3.087  19.637  0.00  0.00    +0.000 N 
ATOM     15  C   UNL     1       1.891   1.753  19.084  0.00  0.00    +0.000 C 
ENDBRANCH   6  10
BRANCH   1  17
ATOM     16  N   UNL     1       6.362   3.862  13.975  0.00  0.00    +0.000 N 
ATOM     17  C   UNL     1       7.025   4.782  14.756  0.00  0.00    +0.000 C 
ATOM     18  O   UNL     1       7.873   5.553  14.319  0.00  0.00    +0.000 OA
ATOM     19  H   UNL     1       5.694   3.235  14.412  0.00  0.00    +0.000 HD
BRANCH  16  20
ATOM     20  C   UNL     1       6.603   3.733  12.555  0.00  0.00    +0.000 C 
BRANCH  20  21
ATOM     21  C   UNL     1       6.319   2.318  12.057  0.00  0.00    +0.000 C 
BRANCH  21  22
ATOM     22  C   UNL     1       5.068   2.278  11.188  0.00  0.00    +0.000 C 
BRANCH  22  24
ATOM     23  C   UNL     1       3.330   3.697  10.450  0.00  0.00    +0.000 C 
ATOM     24  O   UNL     1       4.270   3.422  11.476  0.00  0.00    +0.000 OA
ENDBRANCH  22  24
ENDBRANCH  21  22
ENDBRANCH  20  21
ENDBRANCH  16  20
ENDBRANCH   1  17
TORSDOF 6
ENDMDL
MODEL 6
REMARK VINA RESULT:      -7.1      1.151      1.228
REMARK  Name = 
REMARK  8 active torsions:
REMARK  status: ('A' for Active; 'I' for Inactive)
REMARK    1  A    between atoms: C_1  and  O_2
REMARK    2  A    between atoms: O_2  and  C_3
REMARK    3  A    between atoms: C_3  and  C_4
REMARK    4  A    between atoms: C_4  and  C_5
REMARK    5  A    between atoms: C_5  and  N_6
REMARK    6  A    between atoms: C_7  and  C_9
REMARK    7  A    between atoms: C_14  and  C_15
REMARK    8  A    between atoms: N_19  and  C_20
REMARK                            x       y       z     vdW  Elec       q    Type
REMARK                         _______ _______ _______ _____ _____    ______ ____
ROOT
ATOM      1  C   UNL     1       5.410   5.374  15.958  0.00  0.00    +0.000 A 
ATOM      2  C   UNL     1       5.247   6.729  16.295  0.00  0.00    +0.000 A 
ATOM      3  C   UNL     1       4.508   7.115  17.414  0.00  0.00    +0.000 A 
ATOM      4  C   UNL     1       3.895   6.158  18.233  0.00  0.00    +0.000 A 
ATOM      5  C   UNL     1       4.038   4.790  17.923  0.00  0.00    +0.000 A 
ATOM      6  C   UNL     1       3.622   3.554  18.504  0.00  0.00    +0.000 A 
ATOM      7  C   UNL     1       4.164   2.558  17.724  0.00  0.00    +0.000 A 
ATOM      8  O   UNL     1       4.865   3.085  16.693  0.00  0.00    +0.000 OA
ATOM      9  C   UNL     1       4.801   4.445  16.807  0.00  0.00    +0.000 A 
ENDROOT
BRANCH   6  10
ATOM     10  C   UNL     1       2.763   3.326  19.695  0.00  0.00    +0.000 A 
ATOM     11  C   UNL     1       1.508   3.853  19.912  0.00  0.00    +0.000 A 
ATOM     12  C   UNL     1       1.088   3.305  21.135  0.00  0.00    +0.000 A 
ATOM     13  N   UNL     1       2.012   2.511  21.682  0.00  0.00    +0.000 NA
ATOM     14  N   UNL     1       3.031   2.553  20.798  0.00  0.00    +0.000 N 
ATOM     15  C   UNL     1       4.286   1.937  21.164  0.00  0.00    +0.000 C 
ENDBRANCH   6  10
BRANCH   1  17
ATOM     16  N   UNL     1       5.702   3.973  13.984  0.00  0.00    +0.000 N 
ATOM     17  C   UNL     1       6.195   4.998  14.760  0.00  0.00    +0.000 C 
ATOM     18  O   UNL     1       7.229   5.607  14.498  0.00  0.00    +0.000 OA
ATOM     19  H   UNL     1       4.857   3.495  14.280  0.00  0.00    +0.000 HD
BRANCH  16  20
ATOM     20  C   UNL     1       6.359   3.530  12.775  0.00  0.00    +0.000 C 
BRANCH  20  21
ATOM     21  C   UNL     1       5.384   2.851  11.815  0.00  0.00    +0.000 C 
BRANCH  21  22
ATOM     22  C   UNL     1       4.277   3.805  11.386  0.00  0.00    +0.000 C 
BRANCH  22  24
ATOM     23  C   UNL     1       2.856   4.141   9.529  0.00  0.00    +0.000 C 
ATOM     24  O   UNL     1       3.516   3.191  10.350  0.00  0.00    +0.000 OA
ENDBRANCH  22  24
ENDBRANCH  21  22
ENDBRANCH  20  21
ENDBRANCH  16  20
ENDBRANCH   1  17
TORSDOF 6
ENDMDL
MODEL 7
REMARK VINA RESULT:      -7.0      1.849      2.357
REMARK  Name = 
REMARK  8 active torsions:
REMARK  status: ('A' for Active; 'I' for Inactive)
REMARK    1  A    between atoms: C_1  and  O_2
REMARK    2  A    between atoms: O_2  and  C_3
REMARK    3  A    between atoms: C_3  and  C_4
REMARK    4  A    between atoms: C_4  and  C_5
REMARK    5  A    between atoms: C_5  and  N_6
REMARK    6  A    between atoms: C_7  and  C_9
REMARK    7  A    between atoms: C_14  and  C_15
REMARK    8  A    between atoms: N_19  and  C_20
REMARK                            x       y       z     vdW  Elec       q    Type
REMARK                         _______ _______ _______ _____ _____    ______ ____
ROOT
ATOM      1  C   UNL     1       5.303   5.376  15.972  0.00  0.00    +0.000 A 
ATOM      2  C   UNL     1       4.989   6.722  16.228  0.00  0.00    +0.000 A 
ATOM      3  C   UNL     1       4.167   7.084  17.297  0.00  0.00    +0.000 A 
ATOM      4  C   UNL     1       3.620   6.110  18.143  0.00  0.00    +0.000 A 
ATOM      5  C   UNL     1       3.915   4.751  17.913  0.00  0.00    +0.000 A 
ATOM      6  C   UNL     1       3.602   3.509  18.544  0.00  0.00    +0.000 A 
ATOM      7  C   UNL     1       4.275   2.538  17.839  0.00  0.00    +0.000 A 
ATOM      8  O   UNL     1       4.962   3.082  16.808  0.00  0.00    +0.000 OA
ATOM      9  C   UNL     1       4.756   4.432  16.846  0.00  0.00    +0.000 A 
ENDROOT
BRANCH   6  10
ATOM     10  C   UNL     1       2.721   3.253  19.713  0.00  0.00    +0.000 A 
ATOM     11  C   UNL     1       3.087   3.307  21.041  0.00  0.00    +0.000 A 
ATOM     12  C   UNL     1       1.905   3.050  21.755  0.00  0.00    +0.000 A 
ATOM     13  N   UNL     1       0.864   2.816  20.952  0.00  0.00    +0.000 NA
ATOM     14  N   UNL     1       1.387   2.926  19.713  0.00  0.00    +0.000 N 
ATOM     15  C   UNL     1       0.566   2.555  18.583  0.00  0.00    +0.000 C 
ENDBRANCH   6  10
BRANCH   1  17
ATOM     16  N   UNL     1       5.629   4.219  13.850  0.00  0.00    +0.000 N 
ATOM     17  C   UNL     1       6.173   5.024  14.825  0.00  0.00    +0.000 C 
ATOM     18  O   UNL     1       7.318   5.462  14.778  0.00  0.00    +0.000 OA
ATOM     19  H   UNL     1       4.684   3.869  13.972  0.00  0.00    +0.000 HD
BRANCH  16  20
ATOM     20  C   UNL     1       6.364   3.826  12.669  0.00  0.00    +0.000 C 
BRANCH  20  21
ATOM     21  C   UNL     1       5.811   2.541  12.058  0.00  0.00    +0.000 C 
BRANCH  21  22
ATOM     22  C   UNL     1       6.877   1.807  11.254  0.00  0.00    +0.000 C 
BRANCH  22  24
ATOM     23  C   UNL     1       6.130  -0.428  11.415  0.00  0.00    +0.000 C 
ATOM     24  O   UNL     1       6.271   0.709  10.579  0.00  0.00    +0.000 OA
ENDBRANCH  22  24
ENDBRANCH  21  22
ENDBRANCH  20  21
ENDBRANCH  16  20
ENDBRANCH   1  17
TORSDOF 6
ENDMDL
MODEL 8
REMARK VINA RESULT:      -7.0      3.690      5.993
REMARK  Name = 
REMARK  8 active torsions:
REMARK  status: ('A' for Active; 'I' for Inactive)
REMARK    1  A    between atoms: C_1  and  O_2
REMARK    2  A    between atoms: O_2  and  C_3
REMARK    3  A    between atoms: C_3  and  C_4
REMARK    4  A    between atoms: C_4  and  C_5
REMARK    5  A    between atoms: C_5  and  N_6
REMARK    6  A    between atoms: C_7  and  C_9
REMARK    7  A    between atoms: C_14  and  C_15
REMARK    8  A    between atoms: N_19  and  C_20
REMARK                            x       y       z     vdW  Elec       q    Type
REMARK                         _______ _______ _______ _____ _____    ______ ____
ROOT
ATOM      1  C   UNL     1       3.123   4.111  18.740  0.00  0.00    +0.000 A 
ATOM      2  C   UNL     1       2.557   3.305  19.743  0.00  0.00    +0.000 A 
ATOM      3  C   UNL     1       1.773   3.854  20.759  0.00  0.00    +0.000 A 
ATOM      4  C   UNL     1       1.535   5.234  20.815  0.00  0.00    +0.000 A 
ATOM      5  C   UNL     1       2.089   6.070  19.825  0.00  0.00    +0.000 A 
ATOM      6  C   UNL     1       2.051   7.464  19.515  0.00  0.00    +0.000 A 
ATOM      7  C   UNL     1       2.767   7.621  18.351  0.00  0.00    +0.000 A 
ATOM      8  O   UNL     1       3.263   6.434  17.929  0.00  0.00    +0.000 OA
ATOM      9  C   UNL     1       2.851   5.480  18.816  0.00  0.00    +0.000 A 
ENDROOT
BRANCH   6  10
ATOM     10  C   UNL     1       1.404   8.569  20.269  0.00  0.00    +0.000 A 
ATOM     11  C   UNL     1       1.309   8.678  21.640  0.00  0.00    +0.000 A 
ATOM     12  C   UNL     1       0.671   9.909  21.864  0.00  0.00    +0.000 A 
ATOM     13  N   UNL     1       0.350  10.532  20.728  0.00  0.00    +0.000 NA
ATOM     14  N   UNL     1       0.788   9.690  19.768  0.00  0.00    +0.000 N 
ATOM     15  C   UNL     1       0.441   9.970  18.394  0.00  0.00    +0.000 C 
ENDBRANCH   6  10
BRANCH   1  17
ATOM     16  N   UNL     1       4.761   4.342  16.948  0.00  0.00    +0.000 N 
ATOM     17  C   UNL     1       3.956   3.497  17.680  0.00  0.00    +0.000 C 
ATOM     18  O   UNL     1       3.912   2.284  17.502  0.00  0.00    +0.000 OA
ATOM     19  H   UNL     1       4.722   5.339  17.131  0.00  0.00    +0.000 HD
BRANCH  16  20
ATOM     20  C   UNL     1       5.640   3.865  15.905  0.00  0.00    +0.000 C 
BRANCH  20  21
ATOM     21  C   UNL     1       7.048   4.440  16.042  0.00  0.00    +0.000 C 
BRANCH  21  22
ATOM     22  C   UNL     1       7.123   5.455  17.175  0.00  0.00    +0.000 C 
BRANCH  22  24
ATOM     23  C   UNL     1       7.829   5.654  19.421  0.00  0.00    +0.000 C 
ATOM     24  O   UNL     1       7.424   4.770  18.388  0.00  0.00    +0.000 OA
ENDBRANCH  22  24
ENDBRANCH  21  22
ENDBRANCH  20  21
ENDBRANCH  16  20
ENDBRANCH   1  17
TORSDOF 6
ENDMDL
MODEL 9
REMARK VINA RESULT:      -7.0      5.844      8.178
REMARK  Name = 
REMARK  8 active torsions:
REMARK  status: ('A' for Active; 'I' for Inactive)
REMARK    1  A    between atoms: C_1  and  O_2
REMARK    2  A    between atoms: O_2  and  C_3
REMARK    3  A    between atoms: C_3  and  C_4
REMARK    4  A    between atoms: C_4  and  C_5
REMARK    5  A    between atoms: C_5  and  N_6
REMARK    6  A    between atoms: C_7  and  C_9
REMARK    7  A    between atoms: C_14  and  C_15
REMARK    8  A    between atoms: N_19  and  C_20
REMARK                            x       y       z     vdW  Elec       q    Type
REMARK                         _______ _______ _______ _____ _____    ______ ____
ROOT
ATOM      1  C   UNL     1       2.358   7.213  19.446  0.00  0.00    +0.000 A 
ATOM      2  C   UNL     1       2.725   7.585  18.141  0.00  0.00    +0.000 A 
ATOM      3  C   UNL     1       2.312   8.799  17.589  0.00  0.00    +0.000 A 
ATOM      4  C   UNL     1       1.505   9.681  18.320  0.00  0.00    +0.000 A 
ATOM      5  C   UNL     1       1.118   9.337  19.631  0.00  0.00    +0.000 A 
ATOM      6  C   UNL     1       0.367   9.954  20.678  0.00  0.00    +0.000 A 
ATOM      7  C   UNL     1       0.424   9.095  21.751  0.00  0.00    +0.000 A 
ATOM      8  O   UNL     1       1.134   7.985  21.442  0.00  0.00    +0.000 OA
ATOM      9  C   UNL     1       1.568   8.124  20.153  0.00  0.00    +0.000 A 
ENDROOT
BRANCH   6  10
ATOM     10  C   UNL     1      -0.365  11.247  20.663  0.00  0.00    +0.000 A 
ATOM     11  C   UNL     1      -0.239  12.269  21.580  0.00  0.00    +0.000 A 
ATOM     12  C   UNL     1      -1.083  13.287  21.108  0.00  0.00    +0.000 A 
ATOM     13  N   UNL     1      -1.728  12.940  19.991  0.00  0.00    +0.000 NA
ATOM     14  N   UNL     1      -1.291  11.686  19.748  0.00  0.00    +0.000 N 
ATOM     15  C   UNL     1      -1.926  10.926  18.696  0.00  0.00    +0.000 C 
ENDBRANCH   6  10
BRANCH   1  17
ATOM     16  N   UNL     1       1.942   5.262  20.848  0.00  0.00    +0.000 N 
ATOM     17  C   UNL     1       2.808   5.914  19.999  0.00  0.00    +0.000 C 
ATOM     18  O   UNL     1       3.906   5.469  19.681  0.00  0.00    +0.000 OA
ATOM     19  H   UNL     1       1.063   5.706  21.091  0.00  0.00    +0.000 HD
BRANCH  16  20
ATOM     20  C   UNL     1       2.251   3.977  21.434  0.00  0.00    +0.000 C 
BRANCH  20  21
ATOM     21  C   UNL     1       1.291   2.890  20.955  0.00  0.00    +0.000 C 
BRANCH  21  22
ATOM     22  C   UNL     1       1.781   2.248  19.664  0.00  0.00    +0.000 C 
BRANCH  22  24
ATOM     23  C   UNL     1       2.357   3.097  17.536  0.00  0.00    +0.000 C 
ATOM     24  O   UNL     1       1.380   3.060  18.564  0.00  0.00    +0.000 OA
ENDBRANCH  22  24
ENDBRANCH  21  22
ENDBRANCH  20  21
ENDBRANCH  16  20
ENDBRANCH   1  17
TORSDOF 6
ENDMDL
