MODEL 1
REMARK VINA RESULT:      -8.0      0.000      0.000
REMARK  Name = 
REMARK  3 active torsions:
REMARK  status: ('A' for Active; 'I' for Inactive)
REMARK    1  A    between atoms: C_2  and  C_3
REMARK    2  A    between atoms: C_6  and  N_7
REMARK    3  A    between atoms: C_11  and  N_12
REMARK                            x       y       z     vdW  Elec       q    Type
REMARK                         _______ _______ _______ _____ _____    ______ ____
ROOT
ATOM      1  C   UNL     1       4.915   5.114  17.697  0.00  0.00    +0.000 A 
ATOM      2  C   UNL     1       4.319   4.554  16.561  0.00  0.00    +0.000 A 
ATOM      3  C   UNL     1       5.022   4.472  15.358  0.00  0.00    +0.000 A 
ATOM      4  C   UNL     1       6.376   4.824  15.319  0.00  0.00    +0.000 A 
ATOM      5  C   UNL     1       7.040   5.223  16.483  0.00  0.00    +0.000 A 
ATOM      6  C   UNL     1       6.293   5.365  17.665  0.00  0.00    +0.000 A 
ENDROOT
BRANCH   1   8
ATOM      7  O   UNL     1       3.848   6.612  19.083  0.00  0.00    +0.000 OA
ATOM      8  C   UNL     1       4.090   5.425  18.887  0.00  0.00    +0.000 C 
ATOM      9  N   UNL     1       3.600   4.387  19.687  0.00  0.00    +0.000 N 
ATOM     10  C   UNL     1       3.897   2.951  19.599  0.00  0.00    +0.000 C 
ATOM     11  C   UNL     1       2.663   2.146  19.226  0.00  0.00    +0.000 C 
ATOM     12  C   UNL     1       1.523   2.427  20.195  0.00  0.00    +0.000 C 
ATOM     13  C   UNL     1       1.270   3.931  20.324  0.00  0.00    +0.000 C 
ATOM     14  C   UNL     1       2.553   4.697  20.665  0.00  0.00    +0.000 C 
ENDBRANCH   1   8
BRANCH   4  15
ATOM     15  N   UNL     1       7.095   4.784  14.039  0.00  0.00    +0.000 N 
ATOM     16  O   UNL     1       6.677   4.004  13.173  0.00  0.00    +0.000 OA
ATOM     17  O   UNL     1       8.059   5.546  13.901  0.00  0.00    +0.000 OA
ENDBRANCH   4  15
BRANCH   6  18
ATOM     18  N   UNL     1       7.011   5.793  18.848  0.00  0.00    +0.000 N 
ATOM     19  O   UNL     1       7.785   6.753  18.717  0.00  0.00    +0.000 OA
ATOM     20  O   UNL     1       6.888   5.088  19.857  0.00  0.00    +0.000 OA
ENDBRANCH   6  18
TORSDOF 3
ENDMDL
MODEL 2
REMARK VINA RESULT:      -7.8      0.851      1.127
REMARK  Name = 
REMARK  3 active torsions:
REMARK  status: ('A' for Active; 'I' for Inactive)
REMARK    1  A    between atoms: C_2  and  C_3
REMARK    2  A    between atoms: C_6  and  N_7
REMARK    3  A    between atoms: C_11  and  N_12
REMARK                            x       y       z     vdW  Elec       q    Type
REMARK                         _______ _______ _______ _____ _____    ______ ____
ROOT
ATOM      1  C   UNL     1       5.252   4.966  16.964  0.00  0.00    +0.000 A 
ATOM      2  C   UNL     1       4.667   4.473  15.793  0.00  0.00    +0.000 A 
ATOM      3  C   UNL     1       5.375   4.479  14.589  0.00  0.00    +0.000 A 
ATOM      4  C   UNL     1       6.725   4.852  14.578  0.00  0.00    +0.000 A 
ATOM      5  C   UNL     1       7.379   5.184  15.768  0.00  0.00    +0.000 A 
ATOM      6  C   UNL     1       6.627   5.238  16.955  0.00  0.00    +0.000 A 
ENDROOT
BRANCH   1   8
ATOM      7  O   UNL     1       4.168   6.357  18.446  0.00  0.00    +0.000 OA
ATOM      8  C   UNL     1       4.420   5.188  18.169  0.00  0.00    +0.000 C 
ATOM      9  N   UNL     1       3.934   4.093  18.893  0.00  0.00    +0.000 N 
ATOM     10  C   UNL     1       4.242   2.669  18.706  0.00  0.00    +0.000 C 
ATOM     11  C   UNL     1       3.016   1.883  18.272  0.00  0.00    +0.000 C 
ATOM     12  C   UNL     1       1.870   2.088  19.252  0.00  0.00    +0.000 C 
ATOM     13  C   UNL     1       1.604   3.577  19.485  0.00  0.00    +0.000 C 
ATOM     14  C   UNL     1       2.880   4.327  19.884  0.00  0.00    +0.000 C 
ENDBRANCH   1   8
BRANCH   4  15
ATOM     15  N   UNL     1       7.447   4.906  13.301  0.00  0.00    +0.000 N 
ATOM     16  O   UNL     1       8.408   5.684  13.219  0.00  0.00    +0.000 OA
ATOM     17  O   UNL     1       7.062   4.157  12.395  0.00  0.00    +0.000 OA
ENDBRANCH   4  15
BRANCH   6  18
ATOM     18  N   UNL     1       7.335   5.598  18.166  0.00  0.00    +0.000 N 
ATOM     19  O   UNL     1       7.621   6.796  18.312  0.00  0.00    +0.000 OA
ATOM     20  O   UNL     1       7.706   4.667  18.889  0.00  0.00    +0.000 OA
ENDBRANCH   6  18
TORSDOF 3
ENDMDL
MODEL 3
REMARK VINA RESULT:      -7.2      2.056      2.761
REMARK  Name = 
REMARK  3 active torsions:
REMARK  status: ('A' for Active; 'I' for Inactive)
REMARK    1  A    between atoms: C_2  and  C_3
REMARK    2  A    between atoms: C_6  and  N_7
REMARK    3  A    between atoms: C_11  and  N_12
REMARK                            x       y       z     vdW  Elec       q    Type
REMARK                         _______ _______ _______ _____ _____    ______ ____
ROOT
ATOM      1  C   UNL     1       3.807   5.538  17.669  0.00  0.00    +0.000 A 
ATOM      2  C   UNL     1       4.726   6.520  17.284  0.00  0.00    +0.000 A 
ATOM      3  C   UNL     1       5.705   6.241  16.328  0.00  0.00    +0.000 A 
ATOM      4  C   UNL     1       5.685   5.016  15.650  0.00  0.00    +0.000 A 
ATOM      5  C   UNL     1       4.671   4.086  15.894  0.00  0.00    +0.000 A 
ATOM      6  C   UNL     1       3.739   4.361  16.911  0.00  0.00    +0.000 A 
ENDROOT
BRANCH   1   8
ATOM      7  O   UNL     1       2.064   6.608  18.729  0.00  0.00    +0.000 OA
ATOM      8  C   UNL     1       2.941   5.758  18.851  0.00  0.00    +0.000 C 
ATOM      9  N   UNL     1       3.123   4.984  20.003  0.00  0.00    +0.000 N 
ATOM     10  C   UNL     1       4.186   4.010  20.287  0.00  0.00    +0.000 C 
ATOM     11  C   UNL     1       3.634   2.601  20.418  0.00  0.00    +0.000 C 
ATOM     12  C   UNL     1       2.528   2.551  21.464  0.00  0.00    +0.000 C 
ATOM     13  C   UNL     1       1.463   3.614  21.189  0.00  0.00    +0.000 C 
ATOM     14  C   UNL     1       2.078   5.009  21.029  0.00  0.00    +0.000 C 
ENDBRANCH   1   8
BRANCH   4  15
ATOM     15  N   UNL     1       6.748   4.710  14.685  0.00  0.00    +0.000 N 
ATOM     16  O   UNL     1       6.518   3.835  13.839  0.00  0.00    +0.000 OA
ATOM     17  O   UNL     1       7.798   5.359  14.766  0.00  0.00    +0.000 OA
ENDBRANCH   4  15
BRANCH   6  18
ATOM     18  N   UNL     1       2.711   3.368  17.146  0.00  0.00    +0.000 N 
ATOM     19  O   UNL     1       3.089   2.198  17.309  0.00  0.00    +0.000 OA
ATOM     20  O   UNL     1       1.539   3.747  17.039  0.00  0.00    +0.000 OA
ENDBRANCH   6  18
TORSDOF 3
ENDMDL
MODEL 4
REMARK VINA RESULT:      -7.2      1.973      3.026
REMARK  Name = 
REMARK  3 active torsions:
REMARK  status: ('A' for Active; 'I' for Inactive)
REMARK    1  A    between atoms: C_2  and  C_3
REMARK    2  A    between atoms: C_6  and  N_7
REMARK    3  A    between atoms: C_11  and  N_12
REMARK                            x       y       z     vdW  Elec       q    Type
REMARK                         _______ _______ _______ _____ _____    ______ ____
ROOT
ATOM      1  C   UNL     1       3.411   5.067  17.813  0.00  0.00    +0.000 A 
ATOM      2  C   UNL     1       4.406   4.111  17.581  0.00  0.00    +0.000 A 
ATOM      3  C   UNL     1       5.632   4.483  17.024  0.00  0.00    +0.000 A 
ATOM      4  C   UNL     1       5.921   5.837  16.822  0.00  0.00    +0.000 A 
ATOM      5  C   UNL     1       5.008   6.823  17.208  0.00  0.00    +0.000 A 
ATOM      6  C   UNL     1       3.754   6.420  17.700  0.00  0.00    +0.000 A 
ENDROOT
BRANCH   1   8
ATOM      7  O   UNL     1       1.263   4.479  17.227  0.00  0.00    +0.000 OA
ATOM      8  C   UNL     1       2.039   4.634  18.165  0.00  0.00    +0.000 C 
ATOM      9  N   UNL     1       1.706   4.386  19.502  0.00  0.00    +0.000 N 
ATOM     10  C   UNL     1       2.521   4.621  20.701  0.00  0.00    +0.000 C 
ATOM     11  C   UNL     1       2.875   3.320  21.402  0.00  0.00    +0.000 C 
ATOM     12  C   UNL     1       1.620   2.521  21.720  0.00  0.00    +0.000 C 
ATOM     13  C   UNL     1       0.751   2.340  20.474  0.00  0.00    +0.000 C 
ATOM     14  C   UNL     1       0.455   3.679  19.787  0.00  0.00    +0.000 C 
ENDBRANCH   1   8
BRANCH   4  15
ATOM     15  N   UNL     1       7.190   6.216  16.188  0.00  0.00    +0.000 N 
ATOM     16  O   UNL     1       7.807   7.175  16.673  0.00  0.00    +0.000 OA
ATOM     17  O   UNL     1       7.571   5.542  15.223  0.00  0.00    +0.000 OA
ENDBRANCH   4  15
BRANCH   6  18
ATOM     18  N   UNL     1       2.829   7.469  18.077  0.00  0.00    +0.000 N 
ATOM     19  O   UNL     1       2.479   8.255  17.183  0.00  0.00    +0.000 OA
ATOM     20  O   UNL     1       2.564   7.570  19.281  0.00  0.00    +0.000 OA
ENDBRANCH   6  18
TORSDOF 3
ENDMDL
MODEL 5
REMARK VINA RESULT:      -7.1      2.411      3.263
REMARK  Name = 
REMARK  3 active torsions:
REMARK  status: ('A' for Active; 'I' for Inactive)
REMARK    1  A    between atoms: C_2  and  C_3
REMARK    2  A    between atoms: C_6  and  N_7
REMARK    3  A    between atoms: C_11  and  N_12
REMARK                            x       y       z     vdW  Elec       q    Type
REMARK                         _______ _______ _______ _____ _____    ______ ____
ROOT
ATOM      1  C   UNL     1       3.556   5.025  17.887  0.00  0.00    +0.000 A 
ATOM      2  C   UNL     1       3.747   6.296  17.334  0.00  0.00    +0.000 A 
ATOM      3  C   UNL     1       5.017   6.877  17.311  0.00  0.00    +0.000 A 
ATOM      4  C   UNL     1       6.129   6.131  17.718  0.00  0.00    +0.000 A 
ATOM      5  C   UNL     1       5.985   4.798  18.112  0.00  0.00    +0.000 A 
ATOM      6  C   UNL     1       4.689   4.259  18.194  0.00  0.00    +0.000 A 
ENDROOT
BRANCH   1   8
ATOM      7  O   UNL     1       1.548   4.175  17.144  0.00  0.00    +0.000 OA
ATOM      8  C   UNL     1       2.184   4.525  18.134  0.00  0.00    +0.000 C 
ATOM      9  N   UNL     1       1.700   4.433  19.444  0.00  0.00    +0.000 N 
ATOM     10  C   UNL     1       2.335   4.901  20.684  0.00  0.00    +0.000 C 
ATOM     11  C   UNL     1       2.687   3.744  21.604  0.00  0.00    +0.000 C 
ATOM     12  C   UNL     1       1.460   2.888  21.887  0.00  0.00    +0.000 C 
ATOM     13  C   UNL     1       0.775   2.463  20.587  0.00  0.00    +0.000 C 
ATOM     14  C   UNL     1       0.476   3.664  19.682  0.00  0.00    +0.000 C 
ENDBRANCH   1   8
BRANCH   4  15
ATOM     15  N   UNL     1       7.453   6.766  17.740  0.00  0.00    +0.000 N 
ATOM     16  O   UNL     1       8.107   6.690  18.790  0.00  0.00    +0.000 OA
ATOM     17  O   UNL     1       7.839   7.321  16.704  0.00  0.00    +0.000 OA
ENDBRANCH   4  15
BRANCH   6  18
ATOM     18  N   UNL     1       4.577   2.879  18.619  0.00  0.00    +0.000 N 
ATOM     19  O   UNL     1       5.088   2.586  19.710  0.00  0.00    +0.000 OA
ATOM     20  O   UNL     1       4.093   2.085  17.804  0.00  0.00    +0.000 OA
ENDBRANCH   6  18
TORSDOF 3
ENDMDL
MODEL 6
REMARK VINA RESULT:      -7.0      3.513      6.526
REMARK  Name = 
REMARK  3 active torsions:
REMARK  status: ('A' for Active; 'I' for Inactive)
REMARK    1  A    between atoms: C_2  and  C_3
REMARK    2  A    between atoms: C_6  and  N_7
REMARK    3  A    between atoms: C_11  and  N_12
REMARK                            x       y       z     vdW  Elec       q    Type
REMARK                         _______ _______ _______ _____ _____    ______ ____
ROOT
ATOM      1  C   UNL     1       2.433   6.060  18.942  0.00  0.00    +0.000 A 
ATOM      2  C   UNL     1       2.634   7.362  18.472  0.00  0.00    +0.000 A 
ATOM      3  C   UNL     1       2.060   8.451  19.130  0.00  0.00    +0.000 A 
ATOM      4  C   UNL     1       1.392   8.256  20.345  0.00  0.00    +0.000 A 
ATOM      5  C   UNL     1       1.328   6.985  20.923  0.00  0.00    +0.000 A 
ATOM      6  C   UNL     1       1.852   5.894  20.206  0.00  0.00    +0.000 A 
ENDROOT
BRANCH   1   8
ATOM      7  O   UNL     1       1.951   4.419  17.398  0.00  0.00    +0.000 OA
ATOM      8  C   UNL     1       2.830   4.903  18.106  0.00  0.00    +0.000 C 
ATOM      9  N   UNL     1       4.155   4.452  18.122  0.00  0.00    +0.000 N 
ATOM     10  C   UNL     1       5.256   4.895  18.988  0.00  0.00    +0.000 C 
ATOM     11  C   UNL     1       6.358   5.570  18.189  0.00  0.00    +0.000 C 
ATOM     12  C   UNL     1       6.849   4.660  17.072  0.00  0.00    +0.000 C 
ATOM     13  C   UNL     1       5.682   4.156  16.220  0.00  0.00    +0.000 C 
ATOM     14  C   UNL     1       4.584   3.518  17.078  0.00  0.00    +0.000 C 
ENDBRANCH   1   8
BRANCH   4  15
ATOM     15  N   UNL     1       0.747   9.397  21.004  0.00  0.00    +0.000 N 
ATOM     16  O   UNL     1       1.307   9.874  22.002  0.00  0.00    +0.000 OA
ATOM     17  O   UNL     1      -0.305   9.823  20.511  0.00  0.00    +0.000 OA
ENDBRANCH   4  15
BRANCH   6  18
ATOM     18  N   UNL     1       1.756   4.591  20.830  0.00  0.00    +0.000 N 
ATOM     19  O   UNL     1       0.757   3.909  20.552  0.00  0.00    +0.000 OA
ATOM     20  O   UNL     1       2.610   4.318  21.681  0.00  0.00    +0.000 OA
ENDBRANCH   6  18
TORSDOF 3
ENDMDL
MODEL 7
REMARK VINA RESULT:      -7.0      1.570      2.239
REMARK  Name = 
REMARK  3 active torsions:
REMARK  status: ('A' for Active; 'I' for Inactive)
REMARK    1  A    between atoms: C_2  and  C_3
REMARK    2  A    between atoms: C_6  and  N_7
REMARK    3  A    between atoms: C_11  and  N_12
REMARK                            x       y       z     vdW  Elec       q    Type
REMARK                         _______ _______ _______ _____ _____    ______ ____
ROOT
ATOM      1  C   UNL     1       5.439   4.751  17.908  0.00  0.00    +0.000 A 
ATOM      2  C   UNL     1       6.672   4.156  17.620  0.00  0.00    +0.000 A 
ATOM      3  C   UNL     1       7.195   4.194  16.325  0.00  0.00    +0.000 A 
ATOM      4  C   UNL     1       6.550   4.947  15.338  0.00  0.00    +0.000 A 
ATOM      5  C   UNL     1       5.408   5.693  15.646  0.00  0.00    +0.000 A 
ATOM      6  C   UNL     1       4.863   5.581  16.937  0.00  0.00    +0.000 A 
ENDROOT
BRANCH   1   8
ATOM      7  O   UNL     1       4.997   5.311  20.098  0.00  0.00    +0.000 OA
ATOM      8  C   UNL     1       4.779   4.493  19.209  0.00  0.00    +0.000 C 
ATOM      9  N   UNL     1       3.928   3.392  19.353  0.00  0.00    +0.000 N 
ATOM     10  C   UNL     1       3.667   2.311  18.392  0.00  0.00    +0.000 C 
ATOM     11  C   UNL     1       2.225   2.325  17.912  0.00  0.00    +0.000 C 
ATOM     12  C   UNL     1       1.264   2.277  19.092  0.00  0.00    +0.000 C 
ATOM     13  C   UNL     1       1.591   3.368  20.113  0.00  0.00    +0.000 C 
ATOM     14  C   UNL     1       3.064   3.331  20.535  0.00  0.00    +0.000 C 
ENDBRANCH   1   8
BRANCH   4  15
ATOM     15  N   UNL     1       7.076   4.939  13.968  0.00  0.00    +0.000 N 
ATOM     16  O   UNL     1       8.036   5.682  13.719  0.00  0.00    +0.000 OA
ATOM     17  O   UNL     1       6.539   4.178  13.153  0.00  0.00    +0.000 OA
ENDBRANCH   4  15
BRANCH   6  18
ATOM     18  N   UNL     1       3.672   6.357  17.216  0.00  0.00    +0.000 N 
ATOM     19  O   UNL     1       3.816   7.583  17.331  0.00  0.00    +0.000 OA
ATOM     20  O   UNL     1       2.635   5.721  17.442  0.00  0.00    +0.000 OA
ENDBRANCH   6  18
TORSDOF 3
ENDMDL
MODEL 8
REMARK VINA RESULT:      -7.0      2.604      3.754
REMARK  Name = 
REMARK  3 active torsions:
REMARK  status: ('A' for Active; 'I' for Inactive)
REMARK    1  A    between atoms: C_2  and  C_3
REMARK    2  A    between atoms: C_6  and  N_7
REMARK    3  A    between atoms: C_11  and  N_12
REMARK                            x       y       z     vdW  Elec       q    Type
REMARK                         _______ _______ _______ _____ _____    ______ ____
ROOT
ATOM      1  C   UNL     1       4.143   5.544  17.831  0.00  0.00    +0.000 A 
ATOM      2  C   UNL     1       4.998   6.553  17.375  0.00  0.00    +0.000 A 
ATOM      3  C   UNL     1       5.907   6.302  16.344  0.00  0.00    +0.000 A 
ATOM      4  C   UNL     1       5.872   5.076  15.670  0.00  0.00    +0.000 A 
ATOM      5  C   UNL     1       4.909   4.115  15.994  0.00  0.00    +0.000 A 
ATOM      6  C   UNL     1       4.052   4.364  17.081  0.00  0.00    +0.000 A 
ENDROOT
BRANCH   1   8
ATOM      7  O   UNL     1       3.779   5.149  20.071  0.00  0.00    +0.000 OA
ATOM      8  C   UNL     1       3.367   5.740  19.077  0.00  0.00    +0.000 C 
ATOM      9  N   UNL     1       2.261   6.597  19.082  0.00  0.00    +0.000 N 
ATOM     10  C   UNL     1       1.633   7.280  17.943  0.00  0.00    +0.000 C 
ATOM     11  C   UNL     1       1.770   8.789  18.050  0.00  0.00    +0.000 C 
ATOM     12  C   UNL     1       1.220   9.287  19.380  0.00  0.00    +0.000 C 
ATOM     13  C   UNL     1       1.837   8.521  20.552  0.00  0.00    +0.000 C 
ATOM     14  C   UNL     1       1.703   7.004  20.374  0.00  0.00    +0.000 C 
ENDBRANCH   1   8
BRANCH   4  15
ATOM     15  N   UNL     1       6.864   4.800  14.624  0.00  0.00    +0.000 N 
ATOM     16  O   UNL     1       6.615   3.886  13.826  0.00  0.00    +0.000 OA
ATOM     17  O   UNL     1       7.876   5.511  14.594  0.00  0.00    +0.000 OA
ENDBRANCH   4  15
BRANCH   6  18
ATOM     18  N   UNL     1       3.077   3.340  17.396  0.00  0.00    +0.000 N 
ATOM     19  O   UNL     1       3.512   2.277  17.865  0.00  0.00    +0.000 OA
ATOM     20  O   UNL     1       1.910   3.562  17.056  0.00  0.00    +0.000 OA
ENDBRANCH   6  18
TORSDOF 3
ENDMDL
MODEL 9
REMARK VINA RESULT:      -7.0      3.390      6.483
REMARK  Name = 
REMARK  3 active torsions:
REMARK  status: ('A' for Active; 'I' for Inactive)
REMARK    1  A    between atoms: C_2  and  C_3
REMARK    2  A    between atoms: C_6  and  N_7
REMARK    3  A    between atoms: C_11  and  N_12
REMARK                            x       y       z     vdW  Elec       q    Type
REMARK                         _______ _______ _______ _____ _____    ______ ____
ROOT
ATOM      1  C   UNL     1       2.535   5.473  18.892  0.00  0.00    +0.000 A 
ATOM      2  C   UNL     1       2.718   6.839  18.649  0.00  0.00    +0.000 A 
ATOM      3  C   UNL     1       2.134   7.793  19.484  0.00  0.00    +0.000 A 
ATOM      4  C   UNL     1       1.475   7.386  20.650  0.00  0.00    +0.000 A 
ATOM      5  C   UNL     1       1.429   6.035  21.005  0.00  0.00    +0.000 A 
ATOM      6  C   UNL     1       1.963   5.089  20.111  0.00  0.00    +0.000 A 
ENDROOT
BRANCH   1   8
ATOM      7  O   UNL     1       2.054   4.074  17.127  0.00  0.00    +0.000 OA
ATOM      8  C   UNL     1       2.941   4.480  17.871  0.00  0.00    +0.000 C 
ATOM      9  N   UNL     1       4.282   4.091  17.770  0.00  0.00    +0.000 N 
ATOM     10  C   UNL     1       5.401   4.443  18.655  0.00  0.00    +0.000 C 
ATOM     11  C   UNL     1       6.442   5.283  17.934  0.00  0.00    +0.000 C 
ATOM     12  C   UNL     1       6.921   4.582  16.671  0.00  0.00    +0.000 C 
ATOM     13  C   UNL     1       5.740   4.166  15.792  0.00  0.00    +0.000 C 
ATOM     14  C   UNL     1       4.704   3.352  16.577  0.00  0.00    +0.000 C 
ENDBRANCH   1   8
BRANCH   4  15
ATOM     15  N   UNL     1       0.820   8.391  21.496  0.00  0.00    +0.000 N 
ATOM     16  O   UNL     1      -0.419   8.390  21.530  0.00  0.00    +0.000 OA
ATOM     17  O   UNL     1       1.546   9.163  22.135  0.00  0.00    +0.000 OA
ENDBRANCH   4  15
BRANCH   6  18
ATOM     18  N   UNL     1       1.885   3.697  20.505  0.00  0.00    +0.000 N 
ATOM     19  O   UNL     1       2.917   3.186  20.965  0.00  0.00    +0.000 OA
ATOM     20  O   UNL     1       0.836   3.101  20.233  0.00  0.00    +0.000 OA
ENDBRANCH   6  18
TORSDOF 3
ENDMDL
