MODEL 1
REMARK VINA RESULT:      -7.9      0.000      0.000
REMARK  Name = 
REMARK  15 active torsions:
REMARK  status: ('A' for Active; 'I' for Inactive)
REMARK    1  A    between atoms: C_1  and  C_2
REMARK    2  A    between atoms: C_2  and  O_4
REMARK    3  A    between atoms: O_4  and  C_5
REMARK    4  A    between atoms: C_9  and  C_10
REMARK    5  A    between atoms: C_14  and  C_15
REMARK    6  A    between atoms: C_14  and  C_16
REMARK    7  A    between atoms: C_16  and  C_17
REMARK    8  A    between atoms: C_17  and  C_18
REMARK    9  A    between atoms: C_18  and  C_19
REMARK   10  A    between atoms: C_19  and  C_20
REMARK   11  A    between atoms: C_19  and  C_21
REMARK   12  A    between atoms: C_21  and  C_23
REMARK   13  A    between atoms: C_23  and  C_24
REMARK   14  A    between atoms: C_25  and  C_26
REMARK   15  A    between atoms: C_25  and  C_27
REMARK                            x       y       z     vdW  Elec       q    Type
REMARK                         _______ _______ _______ _____ _____    ______ ____
ROOT
ATOM      1  C   UNL     1       3.079   4.435  19.973  0.00  0.00    +0.000 C 
ATOM      2  C   UNL     1       1.747   5.148  20.229  0.00  0.00    +0.000 C 
ATOM      3  C   UNL     1       1.967   6.606  20.608  0.00  0.00    +0.000 C 
ATOM      4  C   UNL     1       2.102   7.545  19.437  0.00  0.00    +0.000 C 
ATOM      5  C   UNL     1       1.538   8.772  19.413  0.00  0.00    +0.000 C 
ATOM      6  C   UNL     1       2.885   7.076  18.229  0.00  0.00    +0.000 C 
ATOM      7  O   UNL     1       3.984   6.228  18.547  0.00  0.00    +0.000 OA
ATOM      8  C   UNL     1       3.755   4.808  18.620  0.00  0.00    +0.000 C 
ATOM      9  C   UNL     1       2.990   4.259  17.398  0.00  0.00    +0.000 C 
ENDROOT
BRANCH   5  10
ATOM     10  C   UNL     1       0.745   9.400  20.494  0.00  0.00    +0.000 C 
ATOM     11  O   UNL     1       1.288  10.058  21.376  0.00  0.00    +0.000 OA
ENDBRANCH   5  10
BRANCH   1  12
ATOM     12  O   UNL     1       2.861   3.008  20.044  0.00  0.00    +0.000 OA
BRANCH  12  14
ATOM     13  C   UNL     1       1.414   2.445  21.805  0.00  0.00    +0.000 C 
ATOM     14  C   UNL     1       1.581   2.630  20.330  0.00  0.00    +0.000 C 
ATOM     15  O   UNL     1       0.687   2.467  19.513  0.00  0.00    +0.000 OA
ENDBRANCH  12  14
ENDBRANCH   1  12
BRANCH   8  16
ATOM     16  C   UNL     1       5.164   4.134  18.641  0.00  0.00    +0.000 C 
BRANCH  16  17
ATOM     17  C   UNL     1       6.344   5.048  18.293  0.00  0.00    +0.000 C 
BRANCH  17  18
ATOM     18  C   UNL     1       6.915   4.664  16.923  0.00  0.00    +0.000 C 
BRANCH  18  19
ATOM     19  C   UNL     1       6.062   5.139  15.739  0.00  0.00    +0.000 C 
ATOM     20  C   UNL     1       5.713   6.623  15.825  0.00  0.00    +0.000 C 
BRANCH  19  21
ATOM     21  C   UNL     1       6.834   4.850  14.450  0.00  0.00    +0.000 C 
ATOM     22  O   UNL     1       7.728   5.595  14.045  0.00  0.00    +0.000 OA
BRANCH  21  23
ATOM     23  C   UNL     1       6.474   3.572  13.703  0.00  0.00    +0.000 C 
BRANCH  23  24
ATOM     24  C   UNL     1       5.313   3.783  12.775  0.00  0.00    +0.000 C 
ATOM     25  C   UNL     1       4.950   2.980  11.755  0.00  0.00    +0.000 C 
ATOM     26  C   UNL     1       5.711   1.752  11.333  0.00  0.00    +0.000 C 
ATOM     27  C   UNL     1       3.722   3.269  10.931  0.00  0.00    +0.000 C 
ENDBRANCH  23  24
ENDBRANCH  21  23
ENDBRANCH  19  21
ENDBRANCH  18  19
ENDBRANCH  17  18
ENDBRANCH  16  17
ENDBRANCH   8  16
TORSDOF 10
ENDMDL
MODEL 2
REMARK VINA RESULT:      -7.4      1.244      1.789
REMARK  Name = 
REMARK  15 active torsions:
REMARK  status: ('A' for Active; 'I' for Inactive)
REMARK    1  A    between atoms: C_1  and  C_2
REMARK    2  A    between atoms: C_2  and  O_4
REMARK    3  A    between atoms: O_4  and  C_5
REMARK    4  A    between atoms: C_9  and  C_10
REMARK    5  A    between atoms: C_14  and  C_15
REMARK    6  A    between atoms: C_14  and  C_16
REMARK    7  A    between atoms: C_16  and  C_17
REMARK    8  A    between atoms: C_17  and  C_18
REMARK    9  A    between atoms: C_18  and  C_19
REMARK   10  A    between atoms: C_19  and  C_20
REMARK   11  A    between atoms: C_19  and  C_21
REMARK   12  A    between atoms: C_21  and  C_23
REMARK   13  A    between atoms: C_23  and  C_24
REMARK   14  A    between atoms: C_25  and  C_26
REMARK   15  A    between atoms: C_25  and  C_27
REMARK                            x       y       z     vdW  Elec       q    Type
REMARK                         _______ _______ _______ _____ _____    ______ ____
ROOT
ATOM      1  C   UNL     1       2.319   5.459  20.084  0.00  0.00    +0.000 C 
ATOM      2  C   UNL     1       1.107   6.150  20.717  0.00  0.00    +0.000 C 
ATOM      3  C   UNL     1       1.459   7.553  21.189  0.00  0.00    +0.000 C 
ATOM      4  C   UNL     1       1.353   8.617  20.127  0.00  0.00    +0.000 C 
ATOM      5  C   UNL     1       0.840   9.844  20.366  0.00  0.00    +0.000 C 
ATOM      6  C   UNL     1       1.820   8.280  18.727  0.00  0.00    +0.000 C 
ATOM      7  O   UNL     1       2.933   7.393  18.687  0.00  0.00    +0.000 OA
ATOM      8  C   UNL     1       2.679   5.975  18.658  0.00  0.00    +0.000 C 
ATOM      9  C   UNL     1       1.635   5.574  17.596  0.00  0.00    +0.000 C 
ENDROOT
BRANCH   5  10
ATOM     10  C   UNL     1       0.339  10.353  21.662  0.00  0.00    +0.000 C 
ATOM     11  O   UNL     1      -0.771  10.035  22.080  0.00  0.00    +0.000 OA
ENDBRANCH   5  10
BRANCH   1  12
ATOM     12  O   UNL     1       2.075   4.034  20.050  0.00  0.00    +0.000 OA
BRANCH  12  14
ATOM     13  C   UNL     1       3.796   2.505  20.509  0.00  0.00    +0.000 C 
ATOM     14  C   UNL     1       2.667   3.321  21.052  0.00  0.00    +0.000 C 
ATOM     15  O   UNL     1       2.337   3.339  22.229  0.00  0.00    +0.000 OA
ENDBRANCH  12  14
ENDBRANCH   1  12
BRANCH   8  16
ATOM     16  C   UNL     1       4.030   5.292  18.279  0.00  0.00    +0.000 C 
BRANCH  16  17
ATOM     17  C   UNL     1       5.115   6.223  17.727  0.00  0.00    +0.000 C 
BRANCH  17  18
ATOM     18  C   UNL     1       5.389   5.890  16.256  0.00  0.00    +0.000 C 
BRANCH  18  19
ATOM     19  C   UNL     1       6.854   5.545  15.959  0.00  0.00    +0.000 C 
ATOM     20  C   UNL     1       7.388   4.430  16.855  0.00  0.00    +0.000 C 
BRANCH  19  21
ATOM     21  C   UNL     1       6.960   5.140  14.488  0.00  0.00    +0.000 C 
ATOM     22  O   UNL     1       7.951   5.409  13.807  0.00  0.00    +0.000 OA
BRANCH  21  23
ATOM     23  C   UNL     1       5.795   4.348  13.906  0.00  0.00    +0.000 C 
BRANCH  23  24
ATOM     24  C   UNL     1       6.273   3.233  13.022  0.00  0.00    +0.000 C 
ATOM     25  C   UNL     1       5.644   2.756  11.928  0.00  0.00    +0.000 C 
ATOM     26  C   UNL     1       4.299   3.233  11.451  0.00  0.00    +0.000 C 
ATOM     27  C   UNL     1       6.259   1.670  11.084  0.00  0.00    +0.000 C 
ENDBRANCH  23  24
ENDBRANCH  21  23
ENDBRANCH  19  21
ENDBRANCH  18  19
ENDBRANCH  17  18
ENDBRANCH  16  17
ENDBRANCH   8  16
TORSDOF 10
ENDMDL
MODEL 3
REMARK VINA RESULT:      -7.4      1.371      1.908
REMARK  Name = 
REMARK  15 active torsions:
REMARK  status: ('A' for Active; 'I' for Inactive)
REMARK    1  A    between atoms: C_1  and  C_2
REMARK    2  A    between atoms: C_2  and  O_4
REMARK    3  A    between atoms: O_4  and  C_5
REMARK    4  A    between atoms: C_9  and  C_10
REMARK    5  A    between atoms: C_14  and  C_15
REMARK    6  A    between atoms: C_14  and  C_16
REMARK    7  A    between atoms: C_16  and  C_17
REMARK    8  A    between atoms: C_17  and  C_18
REMARK    9  A    between atoms: C_18  and  C_19
REMARK   10  A    between atoms: C_19  and  C_20
REMARK   11  A    between atoms: C_19  and  C_21
REMARK   12  A    between atoms: C_21  and  C_23
REMARK   13  A    between atoms: C_23  and  C_24
REMARK   14  A    between atoms: C_25  and  C_26
REMARK   15  A    between atoms: C_25  and  C_27
REMARK                            x       y       z     vdW  Elec       q    Type
REMARK                         _______ _______ _______ _____ _____    ______ ____
ROOT
ATOM      1  C   UNL     1       2.442   4.850  20.088  0.00  0.00    +0.000 C 
ATOM      2  C   UNL     1       1.237   5.668  20.561  0.00  0.00    +0.000 C 
ATOM      3  C   UNL     1       1.646   7.088  20.927  0.00  0.00    +0.000 C 
ATOM      4  C   UNL     1       1.684   8.048  19.766  0.00  0.00    +0.000 C 
ATOM      5  C   UNL     1       1.238   9.320  19.851  0.00  0.00    +0.000 C 
ATOM      6  C   UNL     1       2.226   7.551  18.442  0.00  0.00    +0.000 C 
ATOM      7  O   UNL     1       3.278   6.600  18.569  0.00  0.00    +0.000 OA
ATOM      8  C   UNL     1       2.934   5.204  18.652  0.00  0.00    +0.000 C 
ATOM      9  C   UNL     1       1.943   4.763  17.556  0.00  0.00    +0.000 C 
ENDROOT
BRANCH   5  10
ATOM     10  C   UNL     1       0.681   9.981  21.053  0.00  0.00    +0.000 C 
ATOM     11  O   UNL     1       0.044  11.025  20.963  0.00  0.00    +0.000 OA
ENDBRANCH   5  10
BRANCH   1  12
ATOM     12  O   UNL     1       2.109   3.445  20.167  0.00  0.00    +0.000 OA
BRANCH  12  14
ATOM     13  C   UNL     1       3.823   2.104  21.048  0.00  0.00    +0.000 C 
ATOM     14  C   UNL     1       2.530   2.813  21.301  0.00  0.00    +0.000 C 
ATOM     15  O   UNL     1       1.950   2.818  22.377  0.00  0.00    +0.000 OA
ENDBRANCH  12  14
ENDBRANCH   1  12
BRANCH   8  16
ATOM     16  C   UNL     1       4.261   4.409  18.442  0.00  0.00    +0.000 C 
BRANCH  16  17
ATOM     17  C   UNL     1       5.461   4.884  19.269  0.00  0.00    +0.000 C 
BRANCH  17  18
ATOM     18  C   UNL     1       6.625   5.245  18.340  0.00  0.00    +0.000 C 
BRANCH  18  19
ATOM     19  C   UNL     1       6.371   6.491  17.481  0.00  0.00    +0.000 C 
ATOM     20  C   UNL     1       7.575   7.430  17.439  0.00  0.00    +0.000 C 
BRANCH  19  21
ATOM     21  C   UNL     1       6.009   6.030  16.068  0.00  0.00    +0.000 C 
ATOM     22  O   UNL     1       5.371   6.745  15.293  0.00  0.00    +0.000 OA
BRANCH  21  23
ATOM     23  C   UNL     1       6.509   4.655  15.642  0.00  0.00    +0.000 C 
BRANCH  23  24
ATOM     24  C   UNL     1       7.160   4.699  14.290  0.00  0.00    +0.000 C 
ATOM     25  C   UNL     1       6.619   4.273  13.131  0.00  0.00    +0.000 C 
ATOM     26  C   UNL     1       5.274   3.608  13.018  0.00  0.00    +0.000 C 
ATOM     27  C   UNL     1       7.352   4.429  11.823  0.00  0.00    +0.000 C 
ENDBRANCH  23  24
ENDBRANCH  21  23
ENDBRANCH  19  21
ENDBRANCH  18  19
ENDBRANCH  17  18
ENDBRANCH  16  17
ENDBRANCH   8  16
TORSDOF 10
ENDMDL
MODEL 4
REMARK VINA RESULT:      -7.4      1.357      1.656
REMARK  Name = 
REMARK  15 active torsions:
REMARK  status: ('A' for Active; 'I' for Inactive)
REMARK    1  A    between atoms: C_1  and  C_2
REMARK    2  A    between atoms: C_2  and  O_4
REMARK    3  A    between atoms: O_4  and  C_5
REMARK    4  A    between atoms: C_9  and  C_10
REMARK    5  A    between atoms: C_14  and  C_15
REMARK    6  A    between atoms: C_14  and  C_16
REMARK    7  A    between atoms: C_16  and  C_17
REMARK    8  A    between atoms: C_17  and  C_18
REMARK    9  A    between atoms: C_18  and  C_19
REMARK   10  A    between atoms: C_19  and  C_20
REMARK   11  A    between atoms: C_19  and  C_21
REMARK   12  A    between atoms: C_21  and  C_23
REMARK   13  A    between atoms: C_23  and  C_24
REMARK   14  A    between atoms: C_25  and  C_26
REMARK   15  A    between atoms: C_25  and  C_27
REMARK                            x       y       z     vdW  Elec       q    Type
REMARK                         _______ _______ _______ _____ _____    ______ ____
ROOT
ATOM      1  C   UNL     1       2.419   5.246  20.126  0.00  0.00    +0.000 C 
ATOM      2  C   UNL     1       1.219   6.007  20.699  0.00  0.00    +0.000 C 
ATOM      3  C   UNL     1       1.604   7.429  21.085  0.00  0.00    +0.000 C 
ATOM      4  C   UNL     1       1.538   8.424  19.956  0.00  0.00    +0.000 C 
ATOM      5  C   UNL     1       1.056   9.677  20.110  0.00  0.00    +0.000 C 
ATOM      6  C   UNL     1       2.010   7.987  18.586  0.00  0.00    +0.000 C 
ATOM      7  O   UNL     1       3.099   7.070  18.616  0.00  0.00    +0.000 OA
ATOM      8  C   UNL     1       2.807   5.661  18.675  0.00  0.00    +0.000 C 
ATOM      9  C   UNL     1       1.764   5.220  17.628  0.00  0.00    +0.000 C 
ENDROOT
BRANCH   5  10
ATOM     10  C   UNL     1       0.555  10.281  21.366  0.00  0.00    +0.000 C 
ATOM     11  O   UNL     1      -0.578  10.045  21.772  0.00  0.00    +0.000 OA
ENDBRANCH   5  10
BRANCH   1  12
ATOM     12  O   UNL     1       2.137   3.829  20.180  0.00  0.00    +0.000 OA
BRANCH  12  14
ATOM     13  C   UNL     1       3.837   2.325  20.776  0.00  0.00    +0.000 C 
ATOM     14  C   UNL     1       2.691   3.168  21.237  0.00  0.00    +0.000 C 
ATOM     15  O   UNL     1       2.320   3.245  22.399  0.00  0.00    +0.000 OA
ENDBRANCH  12  14
ENDBRANCH   1  12
BRANCH   8  16
ATOM     16  C   UNL     1       4.144   4.919  18.356  0.00  0.00    +0.000 C 
BRANCH  16  17
ATOM     17  C   UNL     1       5.356   5.818  18.088  0.00  0.00    +0.000 C 
BRANCH  17  18
ATOM     18  C   UNL     1       5.572   5.964  16.578  0.00  0.00    +0.000 C 
BRANCH  18  19
ATOM     19  C   UNL     1       6.755   5.150  16.037  0.00  0.00    +0.000 C 
ATOM     20  C   UNL     1       7.655   4.613  17.149  0.00  0.00    +0.000 C 
BRANCH  19  21
ATOM     21  C   UNL     1       6.198   3.996  15.203  0.00  0.00    +0.000 C 
ATOM     22  O   UNL     1       5.439   3.152  15.683  0.00  0.00    +0.000 OA
BRANCH  21  23
ATOM     23  C   UNL     1       6.592   3.956  13.732  0.00  0.00    +0.000 C 
BRANCH  23  24
ATOM     24  C   UNL     1       5.387   3.978  12.836  0.00  0.00    +0.000 C 
ATOM     25  C   UNL     1       5.094   3.085  11.870  0.00  0.00    +0.000 C 
ATOM     26  C   UNL     1       5.984   1.936  11.482  0.00  0.00    +0.000 C 
ATOM     27  C   UNL     1       3.816   3.182  11.078  0.00  0.00    +0.000 C 
ENDBRANCH  23  24
ENDBRANCH  21  23
ENDBRANCH  19  21
ENDBRANCH  18  19
ENDBRANCH  17  18
ENDBRANCH  16  17
ENDBRANCH   8  16
TORSDOF 10
ENDMDL
MODEL 5
REMARK VINA RESULT:      -7.4      5.104      8.519
REMARK  Name = 
REMARK  15 active torsions:
REMARK  status: ('A' for Active; 'I' for Inactive)
REMARK    1  A    between atoms: C_1  and  C_2
REMARK    2  A    between atoms: C_2  and  O_4
REMARK    3  A    between atoms: O_4  and  C_5
REMARK    4  A    between atoms: C_9  and  C_10
REMARK    5  A    between atoms: C_14  and  C_15
REMARK    6  A    between atoms: C_14  and  C_16
REMARK    7  A    between atoms: C_16  and  C_17
REMARK    8  A    between atoms: C_17  and  C_18
REMARK    9  A    between atoms: C_18  and  C_19
REMARK   10  A    between atoms: C_19  and  C_20
REMARK   11  A    between atoms: C_19  and  C_21
REMARK   12  A    between atoms: C_21  and  C_23
REMARK   13  A    between atoms: C_23  and  C_24
REMARK   14  A    between atoms: C_25  and  C_26
REMARK   15  A    between atoms: C_25  and  C_27
REMARK                            x       y       z     vdW  Elec       q    Type
REMARK                         _______ _______ _______ _____ _____    ______ ____
ROOT
ATOM      1  C   UNL     1       5.148   5.636  17.065  0.00  0.00    +0.000 C 
ATOM      2  C   UNL     1       4.820   4.321  16.350  0.00  0.00    +0.000 C 
ATOM      3  C   UNL     1       4.884   4.487  14.838  0.00  0.00    +0.000 C 
ATOM      4  C   UNL     1       6.260   4.321  14.247  0.00  0.00    +0.000 C 
ATOM      5  C   UNL     1       6.487   3.662  13.090  0.00  0.00    +0.000 C 
ATOM      6  C   UNL     1       7.438   4.899  15.001  0.00  0.00    +0.000 C 
ATOM      7  O   UNL     1       7.143   6.105  15.698  0.00  0.00    +0.000 OA
ATOM      8  C   UNL     1       6.659   6.013  17.052  0.00  0.00    +0.000 C 
ATOM      9  C   UNL     1       7.515   5.081  17.933  0.00  0.00    +0.000 C 
ENDROOT
BRANCH   5  10
ATOM     10  C   UNL     1       5.467   3.036  12.217  0.00  0.00    +0.000 C 
ATOM     11  O   UNL     1       4.532   3.691  11.768  0.00  0.00    +0.000 OA
ENDBRANCH   5  10
BRANCH   1  12
ATOM     12  O   UNL     1       4.666   5.556  18.426  0.00  0.00    +0.000 OA
BRANCH  12  14
ATOM     13  C   UNL     1       2.779   5.507  19.820  0.00  0.00    +0.000 C 
ATOM     14  C   UNL     1       3.453   6.141  18.646  0.00  0.00    +0.000 C 
ATOM     15  O   UNL     1       2.973   7.054  17.990  0.00  0.00    +0.000 OA
ENDBRANCH  12  14
ENDBRANCH   1  12
BRANCH   8  16
ATOM     16  C   UNL     1       6.751   7.452  17.652  0.00  0.00    +0.000 C 
BRANCH  16  17
ATOM     17  C   UNL     1       8.045   8.217  17.350  0.00  0.00    +0.000 C 
BRANCH  17  18
ATOM     18  C   UNL     1       8.489   9.000  18.591  0.00  0.00    +0.000 C 
BRANCH  18  19
ATOM     19  C   UNL     1       9.180  10.332  18.272  0.00  0.00    +0.000 C 
ATOM     20  C   UNL     1       8.208  11.386  17.746  0.00  0.00    +0.000 C 
BRANCH  19  21
ATOM     21  C   UNL     1       9.865  10.831  19.546  0.00  0.00    +0.000 C 
ATOM     22  O   UNL     1       9.363  10.672  20.660  0.00  0.00    +0.000 OA
BRANCH  21  23
ATOM     23  C   UNL     1      11.222  11.503  19.380  0.00  0.00    +0.000 C 
BRANCH  23  24
ATOM     24  C   UNL     1      11.272  12.827  20.088  0.00  0.00    +0.000 C 
ATOM     25  C   UNL     1      10.963  14.027  19.559  0.00  0.00    +0.000 C 
ATOM     26  C   UNL     1      10.577  14.243  18.120  0.00  0.00    +0.000 C 
ATOM     27  C   UNL     1      10.994  15.281  20.393  0.00  0.00    +0.000 C 
ENDBRANCH  23  24
ENDBRANCH  21  23
ENDBRANCH  19  21
ENDBRANCH  18  19
ENDBRANCH  17  18
ENDBRANCH  16  17
ENDBRANCH   8  16
TORSDOF 10
ENDMDL
MODEL 6
REMARK VINA RESULT:      -7.3      1.437      3.726
REMARK  Name = 
REMARK  15 active torsions:
REMARK  status: ('A' for Active; 'I' for Inactive)
REMARK    1  A    between atoms: C_1  and  C_2
REMARK    2  A    between atoms: C_2  and  O_4
REMARK    3  A    between atoms: O_4  and  C_5
REMARK    4  A    between atoms: C_9  and  C_10
REMARK    5  A    between atoms: C_14  and  C_15
REMARK    6  A    between atoms: C_14  and  C_16
REMARK    7  A    between atoms: C_16  and  C_17
REMARK    8  A    between atoms: C_17  and  C_18
REMARK    9  A    between atoms: C_18  and  C_19
REMARK   10  A    between atoms: C_19  and  C_20
REMARK   11  A    between atoms: C_19  and  C_21
REMARK   12  A    between atoms: C_21  and  C_23
REMARK   13  A    between atoms: C_23  and  C_24
REMARK   14  A    between atoms: C_25  and  C_26
REMARK   15  A    between atoms: C_25  and  C_27
REMARK                            x       y       z     vdW  Elec       q    Type
REMARK                         _______ _______ _______ _____ _____    ______ ____
ROOT
ATOM      1  C   UNL     1       2.654   4.689  19.899  0.00  0.00    +0.000 C 
ATOM      2  C   UNL     1       1.506   5.467  20.552  0.00  0.00    +0.000 C 
ATOM      3  C   UNL     1       1.919   6.899  20.861  0.00  0.00    +0.000 C 
ATOM      4  C   UNL     1       1.754   7.861  19.713  0.00  0.00    +0.000 C 
ATOM      5  C   UNL     1       1.285   9.118  19.871  0.00  0.00    +0.000 C 
ATOM      6  C   UNL     1       2.108   7.383  18.321  0.00  0.00    +0.000 C 
ATOM      7  O   UNL     1       3.198   6.468  18.284  0.00  0.00    +0.000 OA
ATOM      8  C   UNL     1       2.914   5.060  18.409  0.00  0.00    +0.000 C 
ATOM      9  C   UNL     1       1.786   4.589  17.469  0.00  0.00    +0.000 C 
ENDROOT
BRANCH   5  10
ATOM     10  C   UNL     1       0.893   9.759  21.147  0.00  0.00    +0.000 C 
ATOM     11  O   UNL     1       0.293  10.829  21.159  0.00  0.00    +0.000 OA
ENDBRANCH   5  10
BRANCH   1  12
ATOM     12  O   UNL     1       2.381   3.274  20.019  0.00  0.00    +0.000 OA
BRANCH  12  14
ATOM     13  C   UNL     1       4.288   2.045  20.621  0.00  0.00    +0.000 C 
ATOM     14  C   UNL     1       2.996   2.652  21.067  0.00  0.00    +0.000 C 
ATOM     15  O   UNL     1       2.569   2.593  22.211  0.00  0.00    +0.000 OA
ENDBRANCH  12  14
ENDBRANCH   1  12
BRANCH   8  16
ATOM     16  C   UNL     1       4.220   4.309  17.998  0.00  0.00    +0.000 C 
BRANCH  16  17
ATOM     17  C   UNL     1       4.185   3.611  16.634  0.00  0.00    +0.000 C 
BRANCH  17  18
ATOM     18  C   UNL     1       4.719   4.555  15.551  0.00  0.00    +0.000 C 
BRANCH  18  19
ATOM     19  C   UNL     1       6.046   4.101  14.928  0.00  0.00    +0.000 C 
ATOM     20  C   UNL     1       5.908   3.745  13.450  0.00  0.00    +0.000 C 
BRANCH  19  21
ATOM     21  C   UNL     1       7.068   5.224  15.111  0.00  0.00    +0.000 C 
ATOM     22  O   UNL     1       8.034   5.354  14.358  0.00  0.00    +0.000 OA
BRANCH  21  23
ATOM     23  C   UNL     1       6.816   6.206  16.249  0.00  0.00    +0.000 C 
BRANCH  23  24
ATOM     24  C   UNL     1       7.276   5.652  17.567  0.00  0.00    +0.000 C 
ATOM     25  C   UNL     1       7.870   6.344  18.559  0.00  0.00    +0.000 C 
ATOM     26  C   UNL     1       8.237   7.801  18.473  0.00  0.00    +0.000 C 
ATOM     27  C   UNL     1       8.230   5.684  19.865  0.00  0.00    +0.000 C 
ENDBRANCH  23  24
ENDBRANCH  21  23
ENDBRANCH  19  21
ENDBRANCH  18  19
ENDBRANCH  17  18
ENDBRANCH  16  17
ENDBRANCH   8  16
TORSDOF 10
ENDMDL
MODEL 7
REMARK VINA RESULT:      -7.3      2.578      7.601
REMARK  Name = 
REMARK  15 active torsions:
REMARK  status: ('A' for Active; 'I' for Inactive)
REMARK    1  A    between atoms: C_1  and  C_2
REMARK    2  A    between atoms: C_2  and  O_4
REMARK    3  A    between atoms: O_4  and  C_5
REMARK    4  A    between atoms: C_9  and  C_10
REMARK    5  A    between atoms: C_14  and  C_15
REMARK    6  A    between atoms: C_14  and  C_16
REMARK    7  A    between atoms: C_16  and  C_17
REMARK    8  A    between atoms: C_17  and  C_18
REMARK    9  A    between atoms: C_18  and  C_19
REMARK   10  A    between atoms: C_19  and  C_20
REMARK   11  A    between atoms: C_19  and  C_21
REMARK   12  A    between atoms: C_21  and  C_23
REMARK   13  A    between atoms: C_23  and  C_24
REMARK   14  A    between atoms: C_25  and  C_26
REMARK   15  A    between atoms: C_25  and  C_27
REMARK                            x       y       z     vdW  Elec       q    Type
REMARK                         _______ _______ _______ _____ _____    ______ ____
ROOT
ATOM      1  C   UNL     1       3.702   4.467  17.848  0.00  0.00    +0.000 C 
ATOM      2  C   UNL     1       4.509   3.473  17.006  0.00  0.00    +0.000 C 
ATOM      3  C   UNL     1       4.607   3.932  15.558  0.00  0.00    +0.000 C 
ATOM      4  C   UNL     1       5.734   4.892  15.279  0.00  0.00    +0.000 C 
ATOM      5  C   UNL     1       6.497   4.824  14.166  0.00  0.00    +0.000 C 
ATOM      6  C   UNL     1       6.035   5.961  16.307  0.00  0.00    +0.000 C 
ATOM      7  O   UNL     1       4.883   6.450  16.987  0.00  0.00    +0.000 OA
ATOM      8  C   UNL     1       4.465   5.782  18.192  0.00  0.00    +0.000 C 
ATOM      9  C   UNL     1       5.621   5.559  19.188  0.00  0.00    +0.000 C 
ENDROOT
BRANCH   5  10
ATOM     10  C   UNL     1       6.352   3.856  13.055  0.00  0.00    +0.000 C 
ATOM     11  O   UNL     1       7.069   3.921  12.062  0.00  0.00    +0.000 OA
ENDBRANCH   5  10
BRANCH   1  12
ATOM     12  O   UNL     1       3.275   3.807  19.061  0.00  0.00    +0.000 OA
BRANCH  12  14
ATOM     13  C   UNL     1       1.136   3.591  18.120  0.00  0.00    +0.000 C 
ATOM     14  C   UNL     1       2.227   2.946  18.914  0.00  0.00    +0.000 C 
ATOM     15  O   UNL     1       2.172   1.808  19.357  0.00  0.00    +0.000 OA
ENDBRANCH  12  14
ENDBRANCH   1  12
BRANCH   8  16
ATOM     16  C   UNL     1       3.421   6.720  18.877  0.00  0.00    +0.000 C 
BRANCH  16  17
ATOM     17  C   UNL     1       2.343   7.302  17.955  0.00  0.00    +0.000 C 
BRANCH  17  18
ATOM     18  C   UNL     1       2.104   8.776  18.298  0.00  0.00    +0.000 C 
BRANCH  18  19
ATOM     19  C   UNL     1       0.879   9.017  19.190  0.00  0.00    +0.000 C 
ATOM     20  C   UNL     1       1.220   8.974  20.678  0.00  0.00    +0.000 C 
BRANCH  19  21
ATOM     21  C   UNL     1       0.280  10.375  18.822  0.00  0.00    +0.000 C 
ATOM     22  O   UNL     1       0.980  11.380  18.684  0.00  0.00    +0.000 OA
BRANCH  21  23
ATOM     23  C   UNL     1      -1.225  10.425  18.592  0.00  0.00    +0.000 C 
BRANCH  23  24
ATOM     24  C   UNL     1      -1.581  10.046  17.183  0.00  0.00    +0.000 C 
ATOM     25  C   UNL     1      -2.741  10.317  16.553  0.00  0.00    +0.000 C 
ATOM     26  C   UNL     1      -3.917  10.997  17.200  0.00  0.00    +0.000 C 
ATOM     27  C   UNL     1      -2.955   9.936  15.110  0.00  0.00    +0.000 C 
ENDBRANCH  23  24
ENDBRANCH  21  23
ENDBRANCH  19  21
ENDBRANCH  18  19
ENDBRANCH  17  18
ENDBRANCH  16  17
ENDBRANCH   8  16
TORSDOF 10
ENDMDL
MODEL 8
REMARK VINA RESULT:      -7.1      1.087      1.474
REMARK  Name = 
REMARK  15 active torsions:
REMARK  status: ('A' for Active; 'I' for Inactive)
REMARK    1  A    between atoms: C_1  and  C_2
REMARK    2  A    between atoms: C_2  and  O_4
REMARK    3  A    between atoms: O_4  and  C_5
REMARK    4  A    between atoms: C_9  and  C_10
REMARK    5  A    between atoms: C_14  and  C_15
REMARK    6  A    between atoms: C_14  and  C_16
REMARK    7  A    between atoms: C_16  and  C_17
REMARK    8  A    between atoms: C_17  and  C_18
REMARK    9  A    between atoms: C_18  and  C_19
REMARK   10  A    between atoms: C_19  and  C_20
REMARK   11  A    between atoms: C_19  and  C_21
REMARK   12  A    between atoms: C_21  and  C_23
REMARK   13  A    between atoms: C_23  and  C_24
REMARK   14  A    between atoms: C_25  and  C_26
REMARK   15  A    between atoms: C_25  and  C_27
REMARK                            x       y       z     vdW  Elec       q    Type
REMARK                         _______ _______ _______ _____ _____    ______ ____
ROOT
ATOM      1  C   UNL     1       2.823   4.998  20.226  0.00  0.00    +0.000 C 
ATOM      2  C   UNL     1       1.468   5.563  20.667  0.00  0.00    +0.000 C 
ATOM      3  C   UNL     1       1.600   7.004  21.138  0.00  0.00    +0.000 C 
ATOM      4  C   UNL     1       1.530   8.032  20.039  0.00  0.00    +0.000 C 
ATOM      5  C   UNL     1       0.862   9.199  20.167  0.00  0.00    +0.000 C 
ATOM      6  C   UNL     1       2.221   7.726  18.727  0.00  0.00    +0.000 C 
ATOM      7  O   UNL     1       3.417   6.965  18.867  0.00  0.00    +0.000 OA
ATOM      8  C   UNL     1       3.320   5.528  18.848  0.00  0.00    +0.000 C 
ATOM      9  C   UNL     1       2.483   4.998  17.667  0.00  0.00    +0.000 C 
ENDROOT
BRANCH   5  10
ATOM     10  C   UNL     1       0.135   9.671  21.367  0.00  0.00    +0.000 C 
ATOM     11  O   UNL     1       0.710  10.303  22.248  0.00  0.00    +0.000 OA
ENDBRANCH   5  10
BRANCH   1  12
ATOM     12  O   UNL     1       2.738   3.555  20.204  0.00  0.00    +0.000 OA
BRANCH  12  14
ATOM     13  C   UNL     1       1.482   2.562  21.920  0.00  0.00    +0.000 C 
ATOM     14  C   UNL     1       1.510   3.042  20.504  0.00  0.00    +0.000 C 
ATOM     15  O   UNL     1       0.558   2.980  19.740  0.00  0.00    +0.000 OA
ENDBRANCH  12  14
ENDBRANCH   1  12
BRANCH   8  16
ATOM     16  C   UNL     1       4.776   4.990  18.678  0.00  0.00    +0.000 C 
BRANCH  16  17
ATOM     17  C   UNL     1       5.836   6.040  18.325  0.00  0.00    +0.000 C 
BRANCH  17  18
ATOM     18  C   UNL     1       5.894   6.231  16.806  0.00  0.00    +0.000 C 
BRANCH  18  19
ATOM     19  C   UNL     1       6.843   5.258  16.092  0.00  0.00    +0.000 C 
ATOM     20  C   UNL     1       7.743   4.498  17.064  0.00  0.00    +0.000 C 
BRANCH  19  21
ATOM     21  C   UNL     1       5.996   4.280  15.276  0.00  0.00    +0.000 C 
ATOM     22  O   UNL     1       5.421   3.324  15.799  0.00  0.00    +0.000 OA
BRANCH  21  23
ATOM     23  C   UNL     1       5.862   4.563  13.785  0.00  0.00    +0.000 C 
BRANCH  23  24
ATOM     24  C   UNL     1       6.313   3.393  12.959  0.00  0.00    +0.000 C 
ATOM     25  C   UNL     1       5.637   2.828  11.939  0.00  0.00    +0.000 C 
ATOM     26  C   UNL     1       4.260   3.248  11.501  0.00  0.00    +0.000 C 
ATOM     27  C   UNL     1       6.227   1.693  11.143  0.00  0.00    +0.000 C 
ENDBRANCH  23  24
ENDBRANCH  21  23
ENDBRANCH  19  21
ENDBRANCH  18  19
ENDBRANCH  17  18
ENDBRANCH  16  17
ENDBRANCH   8  16
TORSDOF 10
ENDMDL
MODEL 9
REMARK VINA RESULT:      -7.1      4.851      8.025
REMARK  Name = 
REMARK  15 active torsions:
REMARK  status: ('A' for Active; 'I' for Inactive)
REMARK    1  A    between atoms: C_1  and  C_2
REMARK    2  A    between atoms: C_2  and  O_4
REMARK    3  A    between atoms: O_4  and  C_5
REMARK    4  A    between atoms: C_9  and  C_10
REMARK    5  A    between atoms: C_14  and  C_15
REMARK    6  A    between atoms: C_14  and  C_16
REMARK    7  A    between atoms: C_16  and  C_17
REMARK    8  A    between atoms: C_17  and  C_18
REMARK    9  A    between atoms: C_18  and  C_19
REMARK   10  A    between atoms: C_19  and  C_20
REMARK   11  A    between atoms: C_19  and  C_21
REMARK   12  A    between atoms: C_21  and  C_23
REMARK   13  A    between atoms: C_23  and  C_24
REMARK   14  A    between atoms: C_25  and  C_26
REMARK   15  A    between atoms: C_25  and  C_27
REMARK                            x       y       z     vdW  Elec       q    Type
REMARK                         _______ _______ _______ _____ _____    ______ ____
ROOT
ATOM      1  C   UNL     1       5.995   5.164  16.538  0.00  0.00    +0.000 C 
ATOM      2  C   UNL     1       4.652   4.433  16.440  0.00  0.00    +0.000 C 
ATOM      3  C   UNL     1       4.457   3.481  17.611  0.00  0.00    +0.000 C 
ATOM      4  C   UNL     1       3.878   4.119  18.848  0.00  0.00    +0.000 C 
ATOM      5  C   UNL     1       2.944   3.516  19.615  0.00  0.00    +0.000 C 
ATOM      6  C   UNL     1       4.351   5.506  19.227  0.00  0.00    +0.000 C 
ATOM      7  O   UNL     1       5.717   5.756  18.913  0.00  0.00    +0.000 OA
ATOM      8  C   UNL     1       6.035   6.291  17.613  0.00  0.00    +0.000 C 
ATOM      9  C   UNL     1       5.166   7.508  17.236  0.00  0.00    +0.000 C 
ENDROOT
BRANCH   5  10
ATOM     10  C   UNL     1       2.366   2.169  19.405  0.00  0.00    +0.000 C 
ATOM     11  O   UNL     1       1.264   1.876  19.858  0.00  0.00    +0.000 OA
ENDBRANCH   5  10
BRANCH   1  12
ATOM     12  O   UNL     1       6.325   5.704  15.238  0.00  0.00    +0.000 OA
BRANCH  12  14
ATOM     13  C   UNL     1       7.819   5.411  13.452  0.00  0.00    +0.000 C 
ATOM     14  C   UNL     1       6.779   4.792  14.330  0.00  0.00    +0.000 C 
ATOM     15  O   UNL     1       6.402   3.633  14.236  0.00  0.00    +0.000 OA
ENDBRANCH  12  14
ENDBRANCH   1  12
BRANCH   8  16
ATOM     16  C   UNL     1       7.520   6.769  17.684  0.00  0.00    +0.000 C 
BRANCH  16  17
ATOM     17  C   UNL     1       7.747   8.268  17.457  0.00  0.00    +0.000 C 
BRANCH  17  18
ATOM     18  C   UNL     1       8.593   8.845  18.597  0.00  0.00    +0.000 C 
BRANCH  18  19
ATOM     19  C   UNL     1       9.195  10.223  18.289  0.00  0.00    +0.000 C 
ATOM     20  C   UNL     1       8.170  11.194  17.708  0.00  0.00    +0.000 C 
BRANCH  19  21
ATOM     21  C   UNL     1       9.785  10.786  19.584  0.00  0.00    +0.000 C 
ATOM     22  O   UNL     1       9.213  10.661  20.668  0.00  0.00    +0.000 OA
BRANCH  21  23
ATOM     23  C   UNL     1      11.138  11.478  19.480  0.00  0.00    +0.000 C 
BRANCH  23  24
ATOM     24  C   UNL     1      10.990  12.969  19.394  0.00  0.00    +0.000 C 
ATOM     25  C   UNL     1      11.021  13.711  18.268  0.00  0.00    +0.000 C 
ATOM     26  C   UNL     1      11.284  13.153  16.895  0.00  0.00    +0.000 C 
ATOM     27  C   UNL     1      10.797  15.200  18.306  0.00  0.00    +0.000 C 
ENDBRANCH  23  24
ENDBRANCH  21  23
ENDBRANCH  19  21
ENDBRANCH  18  19
ENDBRANCH  17  18
ENDBRANCH  16  17
ENDBRANCH   8  16
TORSDOF 10
ENDMDL
