MODEL 1
REMARK VINA RESULT:      -8.9      0.000      0.000
REMARK  Name = 
REMARK  6 active torsions:
REMARK  status: ('A' for Active; 'I' for Inactive)
REMARK    1  A    between atoms: C_2  and  C_3
REMARK    2  A    between atoms: C_4  and  C_5
REMARK    3  A    between atoms: C_8  and  C_9
REMARK    4  A    between atoms: N_18  and  C_19
REMARK    5  A    between atoms: C_24  and  C_25
REMARK    6  A    between atoms: C_25  and  O_27
REMARK                            x       y       z     vdW  Elec       q    Type
REMARK                         _______ _______ _______ _____ _____    ______ ____
ROOT
ATOM      1  C   UNL     1       8.210   8.757  17.633  0.00  0.00    +0.000 C 
ATOM      2  C   UNL     1       8.494   9.538  18.690  0.00  0.00    +0.000 C 
ENDROOT
BRANCH   2   3
ATOM      3  C   UNL     1       9.160  10.845  18.578  0.00  0.00    +0.000 A 
ATOM      4  C   UNL     1       8.544  11.896  17.894  0.00  0.00    +0.000 A 
ATOM      5  C   UNL     1       9.162  13.156  17.816  0.00  0.00    +0.000 A 
ATOM      6  C   UNL     1      10.412  13.400  18.413  0.00  0.00    +0.000 A 
ATOM      7  C   UNL     1      11.007  12.333  19.100  0.00  0.00    +0.000 A 
ATOM      8  C   UNL     1      10.387  11.085  19.198  0.00  0.00    +0.000 A 
BRANCH   6   9
ATOM      9  C   UNL     1      11.087  14.718  18.332  0.00  0.00    +0.000 A 
ATOM     10  C   UNL     1      11.721  15.144  17.147  0.00  0.00    +0.000 A 
ATOM     11  C   UNL     1      12.328  16.399  17.047  0.00  0.00    +0.000 A 
ATOM     12  C   UNL     1      12.333  17.256  18.140  0.00  0.00    +0.000 A 
ATOM     13  C   UNL     1      11.725  16.853  19.326  0.00  0.00    +0.000 A 
ATOM     14 BR   UNL     1      11.737  18.011  20.822  0.00  0.00    +0.000 Br
ATOM     15  C   UNL     1      11.104  15.604  19.424  0.00  0.00    +0.000 A 
ENDBRANCH   6   9
ENDBRANCH   2   3
BRANCH   1  17
ATOM     16  O   UNL     1       8.034   6.622  18.615  0.00  0.00    +0.000 OA
ATOM     17  C   UNL     1       7.553   7.441  17.838  0.00  0.00    +0.000 C 
ATOM     18  N   UNL     1       6.413   7.285  17.068  0.00  0.00    +0.000 N 
ATOM     19  H   UNL     1       6.264   7.944  16.304  0.00  0.00    +0.000 HD
BRANCH  18  20
ATOM     20  C   UNL     1       5.496   6.197  17.128  0.00  0.00    +0.000 A 
ATOM     21  C   UNL     1       4.210   6.366  17.659  0.00  0.00    +0.000 A 
ATOM     22  C   UNL     1       3.297   5.312  17.713  0.00  0.00    +0.000 A 
ATOM     23  C   UNL     1       3.650   4.057  17.236  0.00  0.00    +0.000 A 
ATOM     24  C   UNL     1       4.920   3.856  16.700  0.00  0.00    +0.000 A 
ATOM     25  C   UNL     1       5.841   4.921  16.621  0.00  0.00    +0.000 A 
BRANCH  25  26
ATOM     26  C   UNL     1       7.199   4.667  16.062  0.00  0.00    +0.000 C 
ATOM     27  O   UNL     1       7.486   4.893  14.897  0.00  0.00    +0.000 OA
BRANCH  26  28
ATOM     28  O   UNL     1       8.074   4.105  16.924  0.00  0.00    +0.000 OA
ATOM     29  H   UNL     1       8.013   3.136  17.023  0.00  0.00    +0.000 HD
ENDBRANCH  26  28
ENDBRANCH  25  26
ENDBRANCH  18  20
ENDBRANCH   1  17
TORSDOF 6
ENDMDL
MODEL 2
REMARK VINA RESULT:      -8.7      0.652      1.129
REMARK  Name = 
REMARK  6 active torsions:
REMARK  status: ('A' for Active; 'I' for Inactive)
REMARK    1  A    between atoms: C_2  and  C_3
REMARK    2  A    between atoms: C_4  and  C_5
REMARK    3  A    between atoms: C_8  and  C_9
REMARK    4  A    between atoms: N_18  and  C_19
REMARK    5  A    between atoms: C_24  and  C_25
REMARK    6  A    between atoms: C_25  and  O_27
REMARK                            x       y       z     vdW  Elec       q    Type
REMARK                         _______ _______ _______ _____ _____    ______ ____
ROOT
ATOM      1  C   UNL     1       7.709   8.857  17.592  0.00  0.00    +0.000 C 
ATOM      2  C   UNL     1       8.601   9.337  18.476  0.00  0.00    +0.000 C 
ENDROOT
BRANCH   2   3
ATOM      3  C   UNL     1       9.144  10.703  18.420  0.00  0.00    +0.000 A 
ATOM      4  C   UNL     1      10.392  10.991  18.979  0.00  0.00    +0.000 A 
ATOM      5  C   UNL     1      10.930  12.287  18.897  0.00  0.00    +0.000 A 
ATOM      6  C   UNL     1      10.236  13.331  18.258  0.00  0.00    +0.000 A 
ATOM      7  C   UNL     1       8.990  13.017  17.698  0.00  0.00    +0.000 A 
ATOM      8  C   UNL     1       8.461  11.725  17.760  0.00  0.00    +0.000 A 
BRANCH   6   9
ATOM      9  C   UNL     1      10.779  14.708  18.170  0.00  0.00    +0.000 A 
ATOM     10  C   UNL     1      11.837  15.022  17.293  0.00  0.00    +0.000 A 
ATOM     11  C   UNL     1      12.333  16.323  17.173  0.00  0.00    +0.000 A 
ATOM     12  C   UNL     1      11.792  17.346  17.943  0.00  0.00    +0.000 A 
ATOM     13  C   UNL     1      10.754  17.058  18.826  0.00  0.00    +0.000 A 
ATOM     14 BR   UNL     1      10.020  18.443  19.884  0.00  0.00    +0.000 Br
ATOM     15  C   UNL     1      10.247  15.760  18.937  0.00  0.00    +0.000 A 
ENDBRANCH   6   9
ENDBRANCH   2   3
BRANCH   1  17
ATOM     16  O   UNL     1       7.873   6.631  18.349  0.00  0.00    +0.000 OA
ATOM     17  C   UNL     1       7.227   7.457  17.711  0.00  0.00    +0.000 C 
ATOM     18  N   UNL     1       6.040   7.238  17.033  0.00  0.00    +0.000 N 
ATOM     19  H   UNL     1       5.741   7.946  16.361  0.00  0.00    +0.000 HD
BRANCH  18  20
ATOM     20  C   UNL     1       5.261   6.046  17.056  0.00  0.00    +0.000 A 
ATOM     21  C   UNL     1       4.102   5.957  17.838  0.00  0.00    +0.000 A 
ATOM     22  C   UNL     1       3.323   4.799  17.861  0.00  0.00    +0.000 A 
ATOM     23  C   UNL     1       3.687   3.697  17.098  0.00  0.00    +0.000 A 
ATOM     24  C   UNL     1       4.833   3.755  16.308  0.00  0.00    +0.000 A 
ATOM     25  C   UNL     1       5.613   4.928  16.261  0.00  0.00    +0.000 A 
BRANCH  25  26
ATOM     26  C   UNL     1       6.844   4.949  15.422  0.00  0.00    +0.000 C 
ATOM     27  O   UNL     1       6.830   5.234  14.235  0.00  0.00    +0.000 OA
BRANCH  26  28
ATOM     28  O   UNL     1       7.973   4.565  16.058  0.00  0.00    +0.000 OA
ATOM     29  H   UNL     1       8.697   4.244  15.487  0.00  0.00    +0.000 HD
ENDBRANCH  26  28
ENDBRANCH  25  26
ENDBRANCH  18  20
ENDBRANCH   1  17
TORSDOF 6
ENDMDL
MODEL 3
REMARK VINA RESULT:      -8.4      7.936      9.479
REMARK  Name = 
REMARK  6 active torsions:
REMARK  status: ('A' for Active; 'I' for Inactive)
REMARK    1  A    between atoms: C_2  and  C_3
REMARK    2  A    between atoms: C_4  and  C_5
REMARK    3  A    between atoms: C_8  and  C_9
REMARK    4  A    between atoms: N_18  and  C_19
REMARK    5  A    between atoms: C_24  and  C_25
REMARK    6  A    between atoms: C_25  and  O_27
REMARK                            x       y       z     vdW  Elec       q    Type
REMARK                         _______ _______ _______ _____ _____    ______ ____
ROOT
ATOM      1  C   UNL     1       2.333   7.632  18.597  0.00  0.00    +0.000 C 
ATOM      2  C   UNL     1       1.895   7.584  19.868  0.00  0.00    +0.000 C 
ENDROOT
BRANCH   2   3
ATOM      3  C   UNL     1       1.198   8.699  20.529  0.00  0.00    +0.000 A 
ATOM      4  C   UNL     1       0.616   9.718  19.770  0.00  0.00    +0.000 A 
ATOM      5  C   UNL     1      -0.080  10.766  20.397  0.00  0.00    +0.000 A 
ATOM      6  C   UNL     1      -0.211  10.828  21.796  0.00  0.00    +0.000 A 
ATOM      7  C   UNL     1       0.374   9.791  22.536  0.00  0.00    +0.000 A 
ATOM      8  C   UNL     1       1.050   8.737  21.915  0.00  0.00    +0.000 A 
BRANCH   6   9
ATOM      9  C   UNL     1      -0.931  11.930  22.479  0.00  0.00    +0.000 A 
ATOM     10  C   UNL     1      -0.415  13.242  22.494  0.00  0.00    +0.000 A 
ATOM     11  C   UNL     1      -1.102  14.296  23.101  0.00  0.00    +0.000 A 
ATOM     12  C   UNL     1      -2.320  14.061  23.728  0.00  0.00    +0.000 A 
ATOM     13  C   UNL     1      -2.845  12.771  23.737  0.00  0.00    +0.000 A 
ATOM     14 BR   UNL     1      -4.497  12.443  24.597  0.00  0.00    +0.000 Br
ATOM     15  C   UNL     1      -2.166  11.718  23.117  0.00  0.00    +0.000 A 
ENDBRANCH   6   9
ENDBRANCH   2   3
BRANCH   1  17
ATOM     16  O   UNL     1       2.532   5.353  18.033  0.00  0.00    +0.000 OA
ATOM     17  C   UNL     1       3.045   6.467  18.015  0.00  0.00    +0.000 C 
ATOM     18  N   UNL     1       4.288   6.799  17.501  0.00  0.00    +0.000 N 
ATOM     19  H   UNL     1       4.681   7.704  17.761  0.00  0.00    +0.000 HD
BRANCH  18  20
ATOM     20  C   UNL     1       5.157   5.940  16.770  0.00  0.00    +0.000 A 
ATOM     21  C   UNL     1       5.263   6.040  15.376  0.00  0.00    +0.000 A 
ATOM     22  C   UNL     1       6.120   5.213  14.647  0.00  0.00    +0.000 A 
ATOM     23  C   UNL     1       6.893   4.261  15.298  0.00  0.00    +0.000 A 
ATOM     24  C   UNL     1       6.811   4.138  16.684  0.00  0.00    +0.000 A 
ATOM     25  C   UNL     1       5.966   4.984  17.430  0.00  0.00    +0.000 A 
BRANCH  25  26
ATOM     26  C   UNL     1       5.886   4.812  18.908  0.00  0.00    +0.000 C 
ATOM     27  O   UNL     1       6.249   5.673  19.694  0.00  0.00    +0.000 OA
BRANCH  26  28
ATOM     28  O   UNL     1       5.443   3.603  19.317  0.00  0.00    +0.000 OA
ATOM     29  H   UNL     1       5.955   3.178  20.030  0.00  0.00    +0.000 HD
ENDBRANCH  26  28
ENDBRANCH  25  26
ENDBRANCH  18  20
ENDBRANCH   1  17
TORSDOF 6
ENDMDL
MODEL 4
REMARK VINA RESULT:      -8.3      4.476     10.813
REMARK  Name = 
REMARK  6 active torsions:
REMARK  status: ('A' for Active; 'I' for Inactive)
REMARK    1  A    between atoms: C_2  and  C_3
REMARK    2  A    between atoms: C_4  and  C_5
REMARK    3  A    between atoms: C_8  and  C_9
REMARK    4  A    between atoms: N_18  and  C_19
REMARK    5  A    between atoms: C_24  and  C_25
REMARK    6  A    between atoms: C_25  and  O_27
REMARK                            x       y       z     vdW  Elec       q    Type
REMARK                         _______ _______ _______ _____ _____    ______ ____
ROOT
ATOM      1  C   UNL     1       8.619   9.662  18.656  0.00  0.00    +0.000 C 
ATOM      2  C   UNL     1       8.278   8.836  17.650  0.00  0.00    +0.000 C 
ENDROOT
BRANCH   2   3
ATOM      3  C   UNL     1       7.385   7.680  17.818  0.00  0.00    +0.000 A 
ATOM      4  C   UNL     1       7.774   6.593  18.606  0.00  0.00    +0.000 A 
ATOM      5  C   UNL     1       6.909   5.503  18.797  0.00  0.00    +0.000 A 
ATOM      6  C   UNL     1       5.634   5.463  18.203  0.00  0.00    +0.000 A 
ATOM      7  C   UNL     1       5.262   6.568  17.424  0.00  0.00    +0.000 A 
ATOM      8  C   UNL     1       6.111   7.663  17.248  0.00  0.00    +0.000 A 
BRANCH   6   9
ATOM      9  C   UNL     1       4.710   4.318  18.381  0.00  0.00    +0.000 A 
ATOM     10  C   UNL     1       4.491   3.387  17.345  0.00  0.00    +0.000 A 
ATOM     11  C   UNL     1       3.652   2.282  17.513  0.00  0.00    +0.000 A 
ATOM     12  C   UNL     1       2.992   2.089  18.721  0.00  0.00    +0.000 A 
ATOM     13  C   UNL     1       3.181   3.003  19.755  0.00  0.00    +0.000 A 
ATOM     14 BR   UNL     1       2.278   2.752  21.398  0.00  0.00    +0.000 Br
ATOM     15  C   UNL     1       4.032   4.100  19.594  0.00  0.00    +0.000 A 
ENDBRANCH   6   9
ENDBRANCH   2   3
BRANCH   1  17
ATOM     16  O   UNL     1      10.435  10.694  17.565  0.00  0.00    +0.000 OA
ATOM     17  C   UNL     1       9.545  10.795  18.403  0.00  0.00    +0.000 C 
ATOM     18  N   UNL     1       9.280  11.893  19.204  0.00  0.00    +0.000 N 
ATOM     19  H   UNL     1       8.667  11.756  20.008  0.00  0.00    +0.000 HD
BRANCH  18  20
ATOM     20  C   UNL     1       9.903  13.171  19.118  0.00  0.00    +0.000 A 
ATOM     21  C   UNL     1      11.190  13.382  19.629  0.00  0.00    +0.000 A 
ATOM     22  C   UNL     1      11.817  14.626  19.542  0.00  0.00    +0.000 A 
ATOM     23  C   UNL     1      11.168  15.694  18.939  0.00  0.00    +0.000 A 
ATOM     24  C   UNL     1       9.887  15.517  18.419  0.00  0.00    +0.000 A 
ATOM     25  C   UNL     1       9.256  14.258  18.483  0.00  0.00    +0.000 A 
BRANCH  25  26
ATOM     26  C   UNL     1       7.878  14.109  17.936  0.00  0.00    +0.000 C 
ATOM     27  O   UNL     1       6.921  14.724  18.381  0.00  0.00    +0.000 OA
BRANCH  26  28
ATOM     28  O   UNL     1       7.751  13.191  16.953  0.00  0.00    +0.000 OA
ATOM     29  H   UNL     1       7.079  12.499  17.098  0.00  0.00    +0.000 HD
ENDBRANCH  26  28
ENDBRANCH  25  26
ENDBRANCH  18  20
ENDBRANCH   1  17
TORSDOF 6
ENDMDL
MODEL 5
REMARK VINA RESULT:      -8.1      6.952      9.110
REMARK  Name = 
REMARK  6 active torsions:
REMARK  status: ('A' for Active; 'I' for Inactive)
REMARK    1  A    between atoms: C_2  and  C_3
REMARK    2  A    between atoms: C_4  and  C_5
REMARK    3  A    between atoms: C_8  and  C_9
REMARK    4  A    between atoms: N_18  and  C_19
REMARK    5  A    between atoms: C_24  and  C_25
REMARK    6  A    between atoms: C_25  and  O_27
REMARK                            x       y       z     vdW  Elec       q    Type
REMARK                         _______ _______ _______ _____ _____    ______ ____
ROOT
ATOM      1  C   UNL     1       2.562   6.403  19.912  0.00  0.00    +0.000 C 
ATOM      2  C   UNL     1       2.265   7.604  19.386  0.00  0.00    +0.000 C 
ENDROOT
BRANCH   2   3
ATOM      3  C   UNL     1       1.477   8.627  20.091  0.00  0.00    +0.000 A 
ATOM      4  C   UNL     1       1.179   8.479  21.448  0.00  0.00    +0.000 A 
ATOM      5  C   UNL     1       0.458   9.471  22.134  0.00  0.00    +0.000 A 
ATOM      6  C   UNL     1       0.009  10.635  21.483  0.00  0.00    +0.000 A 
ATOM      7  C   UNL     1       0.327  10.766  20.124  0.00  0.00    +0.000 A 
ATOM      8  C   UNL     1       1.061   9.791  19.444  0.00  0.00    +0.000 A 
BRANCH   6   9
ATOM      9  C   UNL     1      -0.764  11.689  22.184  0.00  0.00    +0.000 A 
ATOM     10  C   UNL     1      -1.897  11.371  22.959  0.00  0.00    +0.000 A 
ATOM     11  C   UNL     1      -2.612  12.350  23.654  0.00  0.00    +0.000 A 
ATOM     12  C   UNL     1      -2.220  13.681  23.577  0.00  0.00    +0.000 A 
ATOM     13  C   UNL     1      -1.111  14.022  22.807  0.00  0.00    +0.000 A 
ATOM     14 BR   UNL     1      -0.579  15.833  22.689  0.00  0.00    +0.000 Br
ATOM     15  C   UNL     1      -0.386  13.042  22.123  0.00  0.00    +0.000 A 
ENDBRANCH   6   9
ENDBRANCH   2   3
BRANCH   1  17
ATOM     16  O   UNL     1       3.106   4.220  19.210  0.00  0.00    +0.000 OA
ATOM     17  C   UNL     1       3.346   5.420  19.122  0.00  0.00    +0.000 C 
ATOM     18  N   UNL     1       4.324   6.016  18.344  0.00  0.00    +0.000 N 
ATOM     19  H   UNL     1       4.562   6.988  18.544  0.00  0.00    +0.000 HD
BRANCH  18  20
ATOM     20  C   UNL     1       5.154   5.367  17.386  0.00  0.00    +0.000 A 
ATOM     21  C   UNL     1       4.620   4.863  16.192  0.00  0.00    +0.000 A 
ATOM     22  C   UNL     1       5.423   4.234  15.239  0.00  0.00    +0.000 A 
ATOM     23  C   UNL     1       6.786   4.093  15.459  0.00  0.00    +0.000 A 
ATOM     24  C   UNL     1       7.349   4.585  16.635  0.00  0.00    +0.000 A 
ATOM     25  C   UNL     1       6.549   5.241  17.593  0.00  0.00    +0.000 A 
BRANCH  25  26
ATOM     26  C   UNL     1       7.178   5.736  18.849  0.00  0.00    +0.000 C 
ATOM     27  O   UNL     1       6.878   5.306  19.952  0.00  0.00    +0.000 OA
BRANCH  26  28
ATOM     28  O   UNL     1       8.062   6.745  18.685  0.00  0.00    +0.000 OA
ATOM     29  H   UNL     1       7.817   7.598  19.090  0.00  0.00    +0.000 HD
ENDBRANCH  26  28
ENDBRANCH  25  26
ENDBRANCH  18  20
ENDBRANCH   1  17
TORSDOF 6
ENDMDL
MODEL 6
REMARK VINA RESULT:      -8.1      1.567      2.002
REMARK  Name = 
REMARK  6 active torsions:
REMARK  status: ('A' for Active; 'I' for Inactive)
REMARK    1  A    between atoms: C_2  and  C_3
REMARK    2  A    between atoms: C_4  and  C_5
REMARK    3  A    between atoms: C_8  and  C_9
REMARK    4  A    between atoms: N_18  and  C_19
REMARK    5  A    between atoms: C_24  and  C_25
REMARK    6  A    between atoms: C_25  and  O_27
REMARK                            x       y       z     vdW  Elec       q    Type
REMARK                         _______ _______ _______ _____ _____    ______ ____
ROOT
ATOM      1  C   UNL     1       8.125   7.302  18.562  0.00  0.00    +0.000 C 
ATOM      2  C   UNL     1       7.872   8.426  17.869  0.00  0.00    +0.000 C 
ENDROOT
BRANCH   2   3
ATOM      3  C   UNL     1       8.493   9.725  18.173  0.00  0.00    +0.000 A 
ATOM      4  C   UNL     1       8.135  10.866  17.452  0.00  0.00    +0.000 A 
ATOM      5  C   UNL     1       8.701  12.115  17.763  0.00  0.00    +0.000 A 
ATOM      6  C   UNL     1       9.642  12.257  18.798  0.00  0.00    +0.000 A 
ATOM      7  C   UNL     1       9.980  11.100  19.514  0.00  0.00    +0.000 A 
ATOM      8  C   UNL     1       9.405   9.861  19.221  0.00  0.00    +0.000 A 
BRANCH   6   9
ATOM      9  C   UNL     1      10.261  13.562  19.136  0.00  0.00    +0.000 A 
ATOM     10  C   UNL     1      11.626  13.658  19.475  0.00  0.00    +0.000 A 
ATOM     11  C   UNL     1      12.229  14.887  19.758  0.00  0.00    +0.000 A 
ATOM     12  C   UNL     1      11.475  16.054  19.728  0.00  0.00    +0.000 A 
ATOM     13  C   UNL     1      10.121  15.982  19.408  0.00  0.00    +0.000 A 
ATOM     14 BR   UNL     1       9.087  17.566  19.375  0.00  0.00    +0.000 Br
ATOM     15  C   UNL     1       9.519  14.757  19.110  0.00  0.00    +0.000 A 
ENDBRANCH   6   9
ENDBRANCH   2   3
BRANCH   1  17
ATOM     16  O   UNL     1       8.087   5.039  17.906  0.00  0.00    +0.000 OA
ATOM     17  C   UNL     1       7.437   6.037  18.200  0.00  0.00    +0.000 C 
ATOM     18  N   UNL     1       6.057   6.150  18.225  0.00  0.00    +0.000 N 
ATOM     19  H   UNL     1       5.659   7.089  18.258  0.00  0.00    +0.000 HD
BRANCH  18  20
ATOM     20  C   UNL     1       5.119   5.093  18.050  0.00  0.00    +0.000 A 
ATOM     21  C   UNL     1       4.569   4.428  19.154  0.00  0.00    +0.000 A 
ATOM     22  C   UNL     1       3.640   3.398  18.998  0.00  0.00    +0.000 A 
ATOM     23  C   UNL     1       3.238   3.006  17.728  0.00  0.00    +0.000 A 
ATOM     24  C   UNL     1       3.765   3.649  16.610  0.00  0.00    +0.000 A 
ATOM     25  C   UNL     1       4.687   4.705  16.759  0.00  0.00    +0.000 A 
BRANCH  25  26
ATOM     26  C   UNL     1       5.248   5.357  15.542  0.00  0.00    +0.000 C 
ATOM     27  O   UNL     1       5.750   4.725  14.626  0.00  0.00    +0.000 OA
BRANCH  26  28
ATOM     28  O   UNL     1       5.219   6.708  15.555  0.00  0.00    +0.000 OA
ATOM     29  H   UNL     1       5.212   7.127  16.436  0.00  0.00    +0.000 HD
ENDBRANCH  26  28
ENDBRANCH  25  26
ENDBRANCH  18  20
ENDBRANCH   1  17
TORSDOF 6
ENDMDL
MODEL 7
REMARK VINA RESULT:      -8.1      1.565      2.386
REMARK  Name = 
REMARK  6 active torsions:
REMARK  status: ('A' for Active; 'I' for Inactive)
REMARK    1  A    between atoms: C_2  and  C_3
REMARK    2  A    between atoms: C_4  and  C_5
REMARK    3  A    between atoms: C_8  and  C_9
REMARK    4  A    between atoms: N_18  and  C_19
REMARK    5  A    between atoms: C_24  and  C_25
REMARK    6  A    between atoms: C_25  and  O_27
REMARK                            x       y       z     vdW  Elec       q    Type
REMARK                         _______ _______ _______ _____ _____    ______ ____
ROOT
ATOM      1  C   UNL     1       8.028   8.854  18.010  0.00  0.00    +0.000 C 
ATOM      2  C   UNL     1       8.970   9.227  18.893  0.00  0.00    +0.000 C 
ENDROOT
BRANCH   2   3
ATOM      3  C   UNL     1       9.374  10.626  19.108  0.00  0.00    +0.000 A 
ATOM      4  C   UNL     1       9.423  11.157  20.399  0.00  0.00    +0.000 A 
ATOM      5  C   UNL     1       9.842  12.482  20.611  0.00  0.00    +0.000 A 
ATOM      6  C   UNL     1      10.219  13.314  19.540  0.00  0.00    +0.000 A 
ATOM      7  C   UNL     1      10.170  12.756  18.255  0.00  0.00    +0.000 A 
ATOM      8  C   UNL     1       9.773  11.434  18.042  0.00  0.00    +0.000 A 
BRANCH   6   9
ATOM      9  C   UNL     1      10.653  14.717  19.739  0.00  0.00    +0.000 A 
ATOM     10  C   UNL     1      10.805  15.597  18.649  0.00  0.00    +0.000 A 
ATOM     11  C   UNL     1      11.177  16.933  18.826  0.00  0.00    +0.000 A 
ATOM     12  C   UNL     1      11.425  17.420  20.104  0.00  0.00    +0.000 A 
ATOM     13  C   UNL     1      11.294  16.566  21.196  0.00  0.00    +0.000 A 
ATOM     14 BR   UNL     1      11.640  17.221  22.937  0.00  0.00    +0.000 Br
ATOM     15  C   UNL     1      10.907  15.235  21.022  0.00  0.00    +0.000 A 
ENDBRANCH   6   9
ENDBRANCH   2   3
BRANCH   1  17
ATOM     16  O   UNL     1       8.118   6.586  18.640  0.00  0.00    +0.000 OA
ATOM     17  C   UNL     1       7.696   7.417  17.842  0.00  0.00    +0.000 C 
ATOM     18  N   UNL     1       6.912   7.173  16.728  0.00  0.00    +0.000 N 
ATOM     19  H   UNL     1       6.832   7.917  16.033  0.00  0.00    +0.000 HD
BRANCH  18  20
ATOM     20  C   UNL     1       6.326   5.927  16.362  0.00  0.00    +0.000 A 
ATOM     21  C   UNL     1       6.976   5.057  15.477  0.00  0.00    +0.000 A 
ATOM     22  C   UNL     1       6.419   3.828  15.119  0.00  0.00    +0.000 A 
ATOM     23  C   UNL     1       5.193   3.439  15.641  0.00  0.00    +0.000 A 
ATOM     24  C   UNL     1       4.522   4.281  16.525  0.00  0.00    +0.000 A 
ATOM     25  C   UNL     1       5.087   5.514  16.909  0.00  0.00    +0.000 A 
BRANCH  25  26
ATOM     26  C   UNL     1       4.334   6.400  17.840  0.00  0.00    +0.000 C 
ATOM     27  O   UNL     1       3.975   7.527  17.534  0.00  0.00    +0.000 OA
BRANCH  26  28
ATOM     28  O   UNL     1       4.132   5.890  19.075  0.00  0.00    +0.000 OA
ATOM     29  H   UNL     1       3.504   6.376  19.641  0.00  0.00    +0.000 HD
ENDBRANCH  26  28
ENDBRANCH  25  26
ENDBRANCH  18  20
ENDBRANCH   1  17
TORSDOF 6
ENDMDL
MODEL 8
REMARK VINA RESULT:      -8.1      0.998      1.166
REMARK  Name = 
REMARK  6 active torsions:
REMARK  status: ('A' for Active; 'I' for Inactive)
REMARK    1  A    between atoms: C_2  and  C_3
REMARK    2  A    between atoms: C_4  and  C_5
REMARK    3  A    between atoms: C_8  and  C_9
REMARK    4  A    between atoms: N_18  and  C_19
REMARK    5  A    between atoms: C_24  and  C_25
REMARK    6  A    between atoms: C_25  and  O_27
REMARK                            x       y       z     vdW  Elec       q    Type
REMARK                         _______ _______ _______ _____ _____    ______ ____
ROOT
ATOM      1  C   UNL     1       8.402   7.622  18.654  0.00  0.00    +0.000 C 
ATOM      2  C   UNL     1       7.962   8.753  18.075  0.00  0.00    +0.000 C 
ENDROOT
BRANCH   2   3
ATOM      3  C   UNL     1       8.662  10.043  18.175  0.00  0.00    +0.000 A 
ATOM      4  C   UNL     1       8.169  11.169  17.513  0.00  0.00    +0.000 A 
ATOM      5  C   UNL     1       8.815  12.411  17.635  0.00  0.00    +0.000 A 
ATOM      6  C   UNL     1       9.974  12.561  18.418  0.00  0.00    +0.000 A 
ATOM      7  C   UNL     1      10.447  11.420  19.081  0.00  0.00    +0.000 A 
ATOM      8  C   UNL     1       9.795  10.188  18.977  0.00  0.00    +0.000 A 
BRANCH   6   9
ATOM      9  C   UNL     1      10.680  13.859  18.553  0.00  0.00    +0.000 A 
ATOM     10  C   UNL     1      11.322  14.459  17.451  0.00  0.00    +0.000 A 
ATOM     11  C   UNL     1      11.958  15.699  17.556  0.00  0.00    +0.000 A 
ATOM     12  C   UNL     1      11.983  16.366  18.775  0.00  0.00    +0.000 A 
ATOM     13  C   UNL     1      11.366  15.787  19.881  0.00  0.00    +0.000 A 
ATOM     14 BR   UNL     1      11.405  16.684  21.546  0.00  0.00    +0.000 Br
ATOM     15  C   UNL     1      10.717  14.554  19.775  0.00  0.00    +0.000 A 
ENDBRANCH   6   9
ENDBRANCH   2   3
BRANCH   1  17
ATOM     16  O   UNL     1       8.019   5.329  19.037  0.00  0.00    +0.000 OA
ATOM     17  C   UNL     1       7.621   6.367  18.518  0.00  0.00    +0.000 C 
ATOM     18  N   UNL     1       6.472   6.529  17.763  0.00  0.00    +0.000 N 
ATOM     19  H   UNL     1       6.387   7.380  17.205  0.00  0.00    +0.000 HD
BRANCH  18  20
ATOM     20  C   UNL     1       5.454   5.555  17.553  0.00  0.00    +0.000 A 
ATOM     21  C   UNL     1       4.383   5.427  18.448  0.00  0.00    +0.000 A 
ATOM     22  C   UNL     1       3.372   4.486  18.249  0.00  0.00    +0.000 A 
ATOM     23  C   UNL     1       3.409   3.644  17.145  0.00  0.00    +0.000 A 
ATOM     24  C   UNL     1       4.459   3.747  16.235  0.00  0.00    +0.000 A 
ATOM     25  C   UNL     1       5.472   4.711  16.416  0.00  0.00    +0.000 A 
BRANCH  25  26
ATOM     26  C   UNL     1       6.593   4.780  15.436  0.00  0.00    +0.000 C 
ATOM     27  O   UNL     1       7.377   5.716  15.394  0.00  0.00    +0.000 OA
BRANCH  26  28
ATOM     28  O   UNL     1       6.640   3.760  14.552  0.00  0.00    +0.000 OA
ATOM     29  H   UNL     1       7.458   3.688  14.025  0.00  0.00    +0.000 HD
ENDBRANCH  26  28
ENDBRANCH  25  26
ENDBRANCH  18  20
ENDBRANCH   1  17
TORSDOF 6
ENDMDL
MODEL 9
REMARK VINA RESULT:      -8.0      1.333      1.590
REMARK  Name = 
REMARK  6 active torsions:
REMARK  status: ('A' for Active; 'I' for Inactive)
REMARK    1  A    between atoms: C_2  and  C_3
REMARK    2  A    between atoms: C_4  and  C_5
REMARK    3  A    between atoms: C_8  and  C_9
REMARK    4  A    between atoms: N_18  and  C_19
REMARK    5  A    between atoms: C_24  and  C_25
REMARK    6  A    between atoms: C_25  and  O_27
REMARK                            x       y       z     vdW  Elec       q    Type
REMARK                         _______ _______ _______ _____ _____    ______ ____
ROOT
ATOM      1  C   UNL     1       7.794   8.499  17.778  0.00  0.00    +0.000 C 
ATOM      2  C   UNL     1       8.623   8.829  18.784  0.00  0.00    +0.000 C 
ENDROOT
BRANCH   2   3
ATOM      3  C   UNL     1       9.181  10.178  18.966  0.00  0.00    +0.000 A 
ATOM      4  C   UNL     1       9.141  11.107  17.922  0.00  0.00    +0.000 A 
ATOM      5  C   UNL     1       9.640  12.408  18.104  0.00  0.00    +0.000 A 
ATOM      6  C   UNL     1      10.198  12.816  19.329  0.00  0.00    +0.000 A 
ATOM      7  C   UNL     1      10.220  11.871  20.364  0.00  0.00    +0.000 A 
ATOM      8  C   UNL     1       9.706  10.583  20.194  0.00  0.00    +0.000 A 
BRANCH   6   9
ATOM      9  C   UNL     1      10.742  14.179  19.539  0.00  0.00    +0.000 A 
ATOM     10  C   UNL     1      11.285  14.923  18.471  0.00  0.00    +0.000 A 
ATOM     11  C   UNL     1      11.766  16.223  18.649  0.00  0.00    +0.000 A 
ATOM     12  C   UNL     1      11.734  16.809  19.908  0.00  0.00    +0.000 A 
ATOM     13  C   UNL     1      11.214  16.090  20.982  0.00  0.00    +0.000 A 
ATOM     14 BR   UNL     1      11.177  16.878  22.701  0.00  0.00    +0.000 Br
ATOM     15  C   UNL     1      10.719  14.795  20.804  0.00  0.00    +0.000 A 
ENDBRANCH   6   9
ENDBRANCH   2   3
BRANCH   1  17
ATOM     16  O   UNL     1       8.072   6.182  17.450  0.00  0.00    +0.000 OA
ATOM     17  C   UNL     1       7.292   7.106  17.658  0.00  0.00    +0.000 C 
ATOM     18  N   UNL     1       5.917   7.018  17.791  0.00  0.00    +0.000 N 
ATOM     19  H   UNL     1       5.378   7.882  17.728  0.00  0.00    +0.000 HD
BRANCH  18  20
ATOM     20  C   UNL     1       5.149   5.819  17.849  0.00  0.00    +0.000 A 
ATOM     21  C   UNL     1       4.677   5.325  19.072  0.00  0.00    +0.000 A 
ATOM     22  C   UNL     1       3.913   4.159  19.143  0.00  0.00    +0.000 A 
ATOM     23  C   UNL     1       3.603   3.455  17.987  0.00  0.00    +0.000 A 
ATOM     24  C   UNL     1       4.057   3.922  16.755  0.00  0.00    +0.000 A 
ATOM     25  C   UNL     1       4.809   5.111  16.672  0.00  0.00    +0.000 A 
BRANCH  25  26
ATOM     26  C   UNL     1       5.297   5.570  15.341  0.00  0.00    +0.000 C 
ATOM     27  O   UNL     1       5.197   6.727  14.964  0.00  0.00    +0.000 OA
BRANCH  26  28
ATOM     28  O   UNL     1       5.801   4.596  14.552  0.00  0.00    +0.000 OA
ATOM     29  H   UNL     1       6.567   4.846  14.001  0.00  0.00    +0.000 HD
ENDBRANCH  26  28
ENDBRANCH  25  26
ENDBRANCH  18  20
ENDBRANCH   1  17
TORSDOF 6
ENDMDL
