MODEL 1
REMARK VINA RESULT:      -7.0      0.000      0.000
REMARK  Name = 
REMARK  4 active torsions:
REMARK  status: ('A' for Active; 'I' for Inactive)
REMARK    1  A    between atoms: C_1  and  C_2
REMARK    2  A    between atoms: C_2  and  N_3
REMARK    3  A    between atoms: C_14  and  S_15
REMARK    4  A    between atoms: S_15  and  C_16
REMARK                            x       y       z     vdW  Elec       q    Type
REMARK                         _______ _______ _______ _____ _____    ______ ____
ROOT
ATOM      1  N   UNL     1       2.299   3.847  19.469  0.00  0.00    +0.000 N 
ATOM      2  C   UNL     1       3.042   3.389  18.375  0.00  0.00    +0.000 A 
ATOM      3  O   UNL     1       3.129   2.202  18.071  0.00  0.00    +0.000 OA
ATOM      4  C   UNL     1       3.779   4.399  17.552  0.00  0.00    +0.000 A 
ATOM      5  C   UNL     1       4.611   3.975  16.510  0.00  0.00    +0.000 A 
ATOM      6  C   UNL     1       5.328   4.914  15.765  0.00  0.00    +0.000 A 
ATOM      7  C   UNL     1       5.211   6.278  16.048  0.00  0.00    +0.000 A 
ATOM      8  C   UNL     1       4.373   6.716  17.077  0.00  0.00    +0.000 A 
ATOM      9  C   UNL     1       3.670   5.767  17.821  0.00  0.00    +0.000 A 
ATOM     10  N   UNL     1       2.837   6.125  18.881  0.00  0.00    +0.000 N 
ATOM     11  N   UNL     1       2.578   7.383  19.284  0.00  0.00    +0.000 NA
ATOM     12  C   UNL     1       1.759   7.162  20.319  0.00  0.00    +0.000 A 
ATOM     13  N   UNL     1       1.498   5.847  20.595  0.00  0.00    +0.000 NA
ATOM     14  C   UNL     1       2.185   5.213  19.671  0.00  0.00    +0.000 A 
ENDROOT
BRANCH   1  16
ATOM     15  C   UNL     1       2.438   2.619  21.611  0.00  0.00    +0.000 C 
ATOM     16  C   UNL     1       1.644   2.884  20.344  0.00  0.00    +0.000 C 
ENDBRANCH   1  16
BRANCH  12  17
ATOM     17  S   UNL     1       1.092   8.488  21.231  0.00  0.00    +0.000 S 
ATOM     18  C   UNL     1       0.697   9.644  19.903  0.00  0.00    +0.000 C 
ENDBRANCH  12  17
TORSDOF 2
ENDMDL
MODEL 2
REMARK VINA RESULT:      -6.7      0.958      1.025
REMARK  Name = 
REMARK  4 active torsions:
REMARK  status: ('A' for Active; 'I' for Inactive)
REMARK    1  A    between atoms: C_1  and  C_2
REMARK    2  A    between atoms: C_2  and  N_3
REMARK    3  A    between atoms: C_14  and  S_15
REMARK    4  A    between atoms: S_15  and  C_16
REMARK                            x       y       z     vdW  Elec       q    Type
REMARK                         _______ _______ _______ _____ _____    ______ ____
ROOT
ATOM      1  N   UNL     1       2.893   4.525  19.880  0.00  0.00    +0.000 N 
ATOM      2  C   UNL     1       3.672   3.843  18.939  0.00  0.00    +0.000 A 
ATOM      3  O   UNL     1       3.926   2.644  19.019  0.00  0.00    +0.000 OA
ATOM      4  C   UNL     1       4.234   4.623  17.791  0.00  0.00    +0.000 A 
ATOM      5  C   UNL     1       5.097   4.001  16.883  0.00  0.00    +0.000 A 
ATOM      6  C   UNL     1       5.653   4.737  15.833  0.00  0.00    +0.000 A 
ATOM      7  C   UNL     1       5.342   6.091  15.680  0.00  0.00    +0.000 A 
ATOM      8  C   UNL     1       4.472   6.721  16.572  0.00  0.00    +0.000 A 
ATOM      9  C   UNL     1       3.932   5.978  17.623  0.00  0.00    +0.000 A 
ATOM     10  N   UNL     1       3.078   6.544  18.570  0.00  0.00    +0.000 N 
ATOM     11  N   UNL     1       2.646   7.818  18.573  0.00  0.00    +0.000 NA
ATOM     12  C   UNL     1       1.891   7.836  19.677  0.00  0.00    +0.000 A 
ATOM     13  N   UNL     1       1.831   6.656  20.370  0.00  0.00    +0.000 NA
ATOM     14  C   UNL     1       2.584   5.856  19.649  0.00  0.00    +0.000 A 
ENDROOT
BRANCH   1  16
ATOM     15  C   UNL     1       1.067   3.144  20.814  0.00  0.00    +0.000 C 
ATOM     16  C   UNL     1       2.406   3.817  21.056  0.00  0.00    +0.000 C 
ENDBRANCH   1  16
BRANCH  12  17
ATOM     17  S   UNL     1       1.055   9.284  20.168  0.00  0.00    +0.000 S 
ATOM     18  C   UNL     1       0.042   8.644  21.517  0.00  0.00    +0.000 C 
ENDBRANCH  12  17
TORSDOF 2
ENDMDL
MODEL 3
REMARK VINA RESULT:      -6.6      1.705      4.076
REMARK  Name = 
REMARK  4 active torsions:
REMARK  status: ('A' for Active; 'I' for Inactive)
REMARK    1  A    between atoms: C_1  and  C_2
REMARK    2  A    between atoms: C_2  and  N_3
REMARK    3  A    between atoms: C_14  and  S_15
REMARK    4  A    between atoms: S_15  and  C_16
REMARK                            x       y       z     vdW  Elec       q    Type
REMARK                         _______ _______ _______ _____ _____    ______ ____
ROOT
ATOM      1  N   UNL     1       4.808   5.642  17.979  0.00  0.00    +0.000 N 
ATOM      2  C   UNL     1       4.869   4.449  18.707  0.00  0.00    +0.000 A 
ATOM      3  O   UNL     1       5.796   3.649  18.612  0.00  0.00    +0.000 OA
ATOM      4  C   UNL     1       3.735   4.130  19.632  0.00  0.00    +0.000 A 
ATOM      5  C   UNL     1       3.709   2.903  20.303  0.00  0.00    +0.000 A 
ATOM      6  C   UNL     1       2.633   2.588  21.138  0.00  0.00    +0.000 A 
ATOM      7  C   UNL     1       1.587   3.498  21.312  0.00  0.00    +0.000 A 
ATOM      8  C   UNL     1       1.606   4.732  20.658  0.00  0.00    +0.000 A 
ATOM      9  C   UNL     1       2.681   5.030  19.818  0.00  0.00    +0.000 A 
ATOM     10  N   UNL     1       2.758   6.229  19.110  0.00  0.00    +0.000 N 
ATOM     11  N   UNL     1       1.865   7.233  19.170  0.00  0.00    +0.000 NA
ATOM     12  C   UNL     1       2.394   8.107  18.306  0.00  0.00    +0.000 A 
ATOM     13  N   UNL     1       3.557   7.708  17.702  0.00  0.00    +0.000 NA
ATOM     14  C   UNL     1       3.768   6.523  18.229  0.00  0.00    +0.000 A 
ENDROOT
BRANCH   1  16
ATOM     15  C   UNL     1       5.472   5.499  15.601  0.00  0.00    +0.000 C 
ATOM     16  C   UNL     1       5.849   5.941  17.004  0.00  0.00    +0.000 C 
ENDBRANCH   1  16
BRANCH  12  17
ATOM     17  S   UNL     1       1.625   9.639  17.995  0.00  0.00    +0.000 S 
ATOM     18  C   UNL     1       0.748   9.894  19.551  0.00  0.00    +0.000 C 
ENDBRANCH  12  17
TORSDOF 2
ENDMDL
MODEL 4
REMARK VINA RESULT:      -6.5      3.046      4.873
REMARK  Name = 
REMARK  4 active torsions:
REMARK  status: ('A' for Active; 'I' for Inactive)
REMARK    1  A    between atoms: C_1  and  C_2
REMARK    2  A    between atoms: C_2  and  N_3
REMARK    3  A    between atoms: C_14  and  S_15
REMARK    4  A    between atoms: S_15  and  C_16
REMARK                            x       y       z     vdW  Elec       q    Type
REMARK                         _______ _______ _______ _____ _____    ______ ____
ROOT
ATOM      1  N   UNL     1       4.078   4.137  18.976  0.00  0.00    +0.000 N 
ATOM      2  C   UNL     1       3.226   4.959  19.721  0.00  0.00    +0.000 A 
ATOM      3  O   UNL     1       2.719   4.614  20.785  0.00  0.00    +0.000 OA
ATOM      4  C   UNL     1       2.907   6.318  19.179  0.00  0.00    +0.000 A 
ATOM      5  C   UNL     1       1.983   7.132  19.843  0.00  0.00    +0.000 A 
ATOM      6  C   UNL     1       1.656   8.386  19.318  0.00  0.00    +0.000 A 
ATOM      7  C   UNL     1       2.255   8.834  18.137  0.00  0.00    +0.000 A 
ATOM      8  C   UNL     1       3.188   8.036  17.472  0.00  0.00    +0.000 A 
ATOM      9  C   UNL     1       3.499   6.781  18.000  0.00  0.00    +0.000 A 
ATOM     10  N   UNL     1       4.400   5.917  17.378  0.00  0.00    +0.000 N 
ATOM     11  N   UNL     1       5.092   6.182  16.255  0.00  0.00    +0.000 NA
ATOM     12  C   UNL     1       5.771   5.042  16.091  0.00  0.00    +0.000 A 
ATOM     13  N   UNL     1       5.540   4.076  17.035  0.00  0.00    +0.000 NA
ATOM     14  C   UNL     1       4.676   4.654  17.838  0.00  0.00    +0.000 A 
ENDROOT
BRANCH   1  16
ATOM     15  C   UNL     1       3.493   1.751  18.694  0.00  0.00    +0.000 C 
ATOM     16  C   UNL     1       4.338   2.777  19.428  0.00  0.00    +0.000 C 
ENDBRANCH   1  16
BRANCH  12  17
ATOM     17  S   UNL     1       6.867   4.835  14.752  0.00  0.00    +0.000 S 
ATOM     18  C   UNL     1       5.859   3.825  13.648  0.00  0.00    +0.000 C 
ENDBRANCH  12  17
TORSDOF 2
ENDMDL
MODEL 5
REMARK VINA RESULT:      -6.4      4.275      6.330
REMARK  Name = 
REMARK  4 active torsions:
REMARK  status: ('A' for Active; 'I' for Inactive)
REMARK    1  A    between atoms: C_1  and  C_2
REMARK    2  A    between atoms: C_2  and  N_3
REMARK    3  A    between atoms: C_14  and  S_15
REMARK    4  A    between atoms: S_15  and  C_16
REMARK                            x       y       z     vdW  Elec       q    Type
REMARK                         _______ _______ _______ _____ _____    ______ ____
ROOT
ATOM      1  N   UNL     1       6.692   5.505  17.767  0.00  0.00    +0.000 N 
ATOM      2  C   UNL     1       5.722   5.220  18.734  0.00  0.00    +0.000 A 
ATOM      3  O   UNL     1       5.771   5.650  19.884  0.00  0.00    +0.000 OA
ATOM      4  C   UNL     1       4.581   4.331  18.346  0.00  0.00    +0.000 A 
ATOM      5  C   UNL     1       3.643   3.942  19.308  0.00  0.00    +0.000 A 
ATOM      6  C   UNL     1       2.599   3.083  18.957  0.00  0.00    +0.000 A 
ATOM      7  C   UNL     1       2.481   2.617  17.644  0.00  0.00    +0.000 A 
ATOM      8  C   UNL     1       3.403   3.008  16.670  0.00  0.00    +0.000 A 
ATOM      9  C   UNL     1       4.448   3.858  17.037  0.00  0.00    +0.000 A 
ATOM     10  N   UNL     1       5.423   4.270  16.128  0.00  0.00    +0.000 N 
ATOM     11  N   UNL     1       5.462   3.948  14.822  0.00  0.00    +0.000 NA
ATOM     12  C   UNL     1       6.580   4.571  14.433  0.00  0.00    +0.000 A 
ATOM     13  N   UNL     1       7.249   5.252  15.415  0.00  0.00    +0.000 NA
ATOM     14  C   UNL     1       6.497   5.051  16.473  0.00  0.00    +0.000 A 
ENDROOT
BRANCH   1  16
ATOM     15  C   UNL     1       7.725   7.752  17.745  0.00  0.00    +0.000 C 
ATOM     16  C   UNL     1       7.862   6.291  18.136  0.00  0.00    +0.000 C 
ENDBRANCH   1  16
BRANCH  12  17
ATOM     17  S   UNL     1       7.119   4.494  12.777  0.00  0.00    +0.000 S 
ATOM     18  C   UNL     1       6.008   3.233  12.122  0.00  0.00    +0.000 C 
ENDBRANCH  12  17
TORSDOF 2
ENDMDL
MODEL 6
REMARK VINA RESULT:      -6.4      2.842      4.645
REMARK  Name = 
REMARK  4 active torsions:
REMARK  status: ('A' for Active; 'I' for Inactive)
REMARK    1  A    between atoms: C_1  and  C_2
REMARK    2  A    between atoms: C_2  and  N_3
REMARK    3  A    between atoms: C_14  and  S_15
REMARK    4  A    between atoms: S_15  and  C_16
REMARK                            x       y       z     vdW  Elec       q    Type
REMARK                         _______ _______ _______ _____ _____    ______ ____
ROOT
ATOM      1  N   UNL     1       3.160   4.117  19.499  0.00  0.00    +0.000 N 
ATOM      2  C   UNL     1       2.512   5.172  20.151  0.00  0.00    +0.000 A 
ATOM      3  O   UNL     1       1.968   5.053  21.246  0.00  0.00    +0.000 OA
ATOM      4  C   UNL     1       2.467   6.502  19.467  0.00  0.00    +0.000 A 
ATOM      5  C   UNL     1       1.746   7.556  20.038  0.00  0.00    +0.000 A 
ATOM      6  C   UNL     1       1.672   8.787  19.382  0.00  0.00    +0.000 A 
ATOM      7  C   UNL     1       2.324   8.975  18.160  0.00  0.00    +0.000 A 
ATOM      8  C   UNL     1       3.059   7.936  17.585  0.00  0.00    +0.000 A 
ATOM      9  C   UNL     1       3.116   6.707  18.245  0.00  0.00    +0.000 A 
ATOM     10  N   UNL     1       3.805   5.615  17.719  0.00  0.00    +0.000 N 
ATOM     11  N   UNL     1       4.512   5.611  16.574  0.00  0.00    +0.000 NA
ATOM     12  C   UNL     1       4.938   4.344  16.534  0.00  0.00    +0.000 A 
ATOM     13  N   UNL     1       4.535   3.552  17.576  0.00  0.00    +0.000 NA
ATOM     14  C   UNL     1       3.825   4.377  18.311  0.00  0.00    +0.000 A 
ENDROOT
BRANCH   1  16
ATOM     15  C   UNL     1       1.972   1.951  19.613  0.00  0.00    +0.000 C 
ATOM     16  C   UNL     1       3.144   2.788  20.094  0.00  0.00    +0.000 C 
ENDBRANCH   1  16
BRANCH  12  17
ATOM     17  S   UNL     1       5.938   3.776  15.224  0.00  0.00    +0.000 S 
ATOM     18  C   UNL     1       7.146   5.111  15.122  0.00  0.00    +0.000 C 
ENDBRANCH  12  17
TORSDOF 2
ENDMDL
MODEL 7
REMARK VINA RESULT:      -6.4      1.410      1.548
REMARK  Name = 
REMARK  4 active torsions:
REMARK  status: ('A' for Active; 'I' for Inactive)
REMARK    1  A    between atoms: C_1  and  C_2
REMARK    2  A    between atoms: C_2  and  N_3
REMARK    3  A    between atoms: C_14  and  S_15
REMARK    4  A    between atoms: S_15  and  C_16
REMARK                            x       y       z     vdW  Elec       q    Type
REMARK                         _______ _______ _______ _____ _____    ______ ____
ROOT
ATOM      1  N   UNL     1       2.953   5.020  19.571  0.00  0.00    +0.000 N 
ATOM      2  C   UNL     1       3.733   4.148  18.804  0.00  0.00    +0.000 A 
ATOM      3  O   UNL     1       3.898   2.964  19.089  0.00  0.00    +0.000 OA
ATOM      4  C   UNL     1       4.412   4.696  17.587  0.00  0.00    +0.000 A 
ATOM      5  C   UNL     1       5.280   3.884  16.849  0.00  0.00    +0.000 A 
ATOM      6  C   UNL     1       5.943   4.405  15.735  0.00  0.00    +0.000 A 
ATOM      7  C   UNL     1       5.738   5.732  15.349  0.00  0.00    +0.000 A 
ATOM      8  C   UNL     1       4.865   6.550  16.070  0.00  0.00    +0.000 A 
ATOM      9  C   UNL     1       4.216   6.021  17.187  0.00  0.00    +0.000 A 
ATOM     10  N   UNL     1       3.352   6.783  17.972  0.00  0.00    +0.000 N 
ATOM     11  N   UNL     1       3.010   8.065  17.745  0.00  0.00    +0.000 NA
ATOM     12  C   UNL     1       2.197   8.307  18.779  0.00  0.00    +0.000 A 
ATOM     13  N   UNL     1       2.016   7.261  19.645  0.00  0.00    +0.000 NA
ATOM     14  C   UNL     1       2.751   6.311  19.112  0.00  0.00    +0.000 A 
ENDROOT
BRANCH   1  16
ATOM     15  C   UNL     1       1.002   3.884  20.582  0.00  0.00    +0.000 C 
ATOM     16  C   UNL     1       2.351   4.543  20.809  0.00  0.00    +0.000 C 
ENDBRANCH   1  16
BRANCH  12  17
ATOM     17  S   UNL     1       1.439   9.863  18.978  0.00  0.00    +0.000 S 
ATOM     18  C   UNL     1      -0.026   9.656  17.945  0.00  0.00    +0.000 C 
ENDBRANCH  12  17
TORSDOF 2
ENDMDL
MODEL 8
REMARK VINA RESULT:      -6.3      3.007      5.594
REMARK  Name = 
REMARK  4 active torsions:
REMARK  status: ('A' for Active; 'I' for Inactive)
REMARK    1  A    between atoms: C_1  and  C_2
REMARK    2  A    between atoms: C_2  and  N_3
REMARK    3  A    between atoms: C_14  and  S_15
REMARK    4  A    between atoms: S_15  and  C_16
REMARK                            x       y       z     vdW  Elec       q    Type
REMARK                         _______ _______ _______ _____ _____    ______ ____
ROOT
ATOM      1  N   UNL     1       3.210   6.723  18.402  0.00  0.00    +0.000 N 
ATOM      2  C   UNL     1       2.523   6.382  19.572  0.00  0.00    +0.000 A 
ATOM      3  O   UNL     1       1.871   7.190  20.229  0.00  0.00    +0.000 OA
ATOM      4  C   UNL     1       2.609   4.966  20.052  0.00  0.00    +0.000 A 
ATOM      5  C   UNL     1       2.019   4.607  21.268  0.00  0.00    +0.000 A 
ATOM      6  C   UNL     1       2.130   3.294  21.736  0.00  0.00    +0.000 A 
ATOM      7  C   UNL     1       2.819   2.336  20.988  0.00  0.00    +0.000 A 
ATOM      8  C   UNL     1       3.401   2.678  19.765  0.00  0.00    +0.000 A 
ATOM      9  C   UNL     1       3.293   3.995  19.314  0.00  0.00    +0.000 A 
ATOM     10  N   UNL     1       3.871   4.419  18.118  0.00  0.00    +0.000 N 
ATOM     11  N   UNL     1       4.547   3.639  17.254  0.00  0.00    +0.000 NA
ATOM     12  C   UNL     1       4.891   4.527  16.314  0.00  0.00    +0.000 A 
ATOM     13  N   UNL     1       4.482   5.814  16.540  0.00  0.00    +0.000 NA
ATOM     14  C   UNL     1       3.837   5.719  17.681  0.00  0.00    +0.000 A 
ENDROOT
BRANCH   1  16
ATOM     15  C   UNL     1       1.832   8.630  17.639  0.00  0.00    +0.000 C 
ATOM     16  C   UNL     1       3.223   8.110  17.956  0.00  0.00    +0.000 C 
ENDBRANCH   1  16
BRANCH  12  17
ATOM     17  S   UNL     1       5.801   4.038  14.911  0.00  0.00    +0.000 S 
ATOM     18  C   UNL     1       7.318   4.984  15.151  0.00  0.00    +0.000 C 
ENDBRANCH  12  17
TORSDOF 2
ENDMDL
MODEL 9
REMARK VINA RESULT:      -6.2      1.979      3.914
REMARK  Name = 
REMARK  4 active torsions:
REMARK  status: ('A' for Active; 'I' for Inactive)
REMARK    1  A    between atoms: C_1  and  C_2
REMARK    2  A    between atoms: C_2  and  N_3
REMARK    3  A    between atoms: C_14  and  S_15
REMARK    4  A    between atoms: S_15  and  C_16
REMARK                            x       y       z     vdW  Elec       q    Type
REMARK                         _______ _______ _______ _____ _____    ______ ____
ROOT
ATOM      1  N   UNL     1       5.064   5.943  17.084  0.00  0.00    +0.000 N 
ATOM      2  C   UNL     1       5.068   4.553  17.247  0.00  0.00    +0.000 A 
ATOM      3  O   UNL     1       6.044   3.849  17.001  0.00  0.00    +0.000 OA
ATOM      4  C   UNL     1       3.811   3.898  17.730  0.00  0.00    +0.000 A 
ATOM      5  C   UNL     1       3.741   2.503  17.813  0.00  0.00    +0.000 A 
ATOM      6  C   UNL     1       2.556   1.888  18.228  0.00  0.00    +0.000 A 
ATOM      7  C   UNL     1       1.443   2.661  18.569  0.00  0.00    +0.000 A 
ATOM      8  C   UNL     1       1.504   4.055  18.502  0.00  0.00    +0.000 A 
ATOM      9  C   UNL     1       2.689   4.657  18.076  0.00  0.00    +0.000 A 
ATOM     10  N   UNL     1       2.817   6.041  17.958  0.00  0.00    +0.000 N 
ATOM     11  N   UNL     1       1.868   6.945  18.264  0.00  0.00    +0.000 NA
ATOM     12  C   UNL     1       2.488   8.089  17.955  0.00  0.00    +0.000 A 
ATOM     13  N   UNL     1       3.760   7.958  17.465  0.00  0.00    +0.000 NA
ATOM     14  C   UNL     1       3.946   6.657  17.481  0.00  0.00    +0.000 A 
ENDROOT
BRANCH   1  16
ATOM     15  C   UNL     1       7.244   6.991  17.601  0.00  0.00    +0.000 C 
ATOM     16  C   UNL     1       6.240   6.602  16.530  0.00  0.00    +0.000 C 
ENDBRANCH   1  16
BRANCH  12  17
ATOM     17  S   UNL     1       1.694   9.625  18.173  0.00  0.00    +0.000 S 
ATOM     18  C   UNL     1       0.961   9.394  19.806  0.00  0.00    +0.000 C 
ENDBRANCH  12  17
TORSDOF 2
ENDMDL
