MODEL 1
REMARK VINA RESULT:      -7.9      0.000      0.000
REMARK  Name = 
REMARK  5 active torsions:
REMARK  status: ('A' for Active; 'I' for Inactive)
REMARK    1  A    between atoms: C_2  and  C_3
REMARK    2  A    between atoms: C_3  and  C_13
REMARK    3  A    between atoms: C_4  and  C_5
REMARK    4  A    between atoms: C_8  and  O_9
REMARK    5  A    between atoms: C_10  and  O_11
REMARK                            x       y       z     vdW  Elec       q    Type
REMARK                         _______ _______ _______ _____ _____    ______ ____
ROOT
ATOM      1  C   UNL     1       2.826   7.506  17.903  0.00  0.00    +0.000 C 
ATOM      2  C   UNL     1       4.027   7.718  17.320  0.00  0.00    +0.000 C 
ENDROOT
BRANCH   1   3
ATOM      3  C   UNL     1       2.514   6.255  18.516  0.00  0.00    +0.000 A 
ATOM      4  N   UNL     1       1.971   5.167  18.002  0.00  0.00    +0.000 NA
ATOM      5  C   UNL     1       1.768   4.304  19.043  0.00  0.00    +0.000 A 
ATOM      6  C   UNL     1       1.155   3.044  19.052  0.00  0.00    +0.000 A 
ATOM      7  C   UNL     1       1.046   2.363  20.269  0.00  0.00    +0.000 A 
ATOM      8  C   UNL     1       1.547   2.922  21.447  0.00  0.00    +0.000 A 
ATOM      9  C   UNL     1       2.167   4.179  21.454  0.00  0.00    +0.000 A 
ATOM     10  C   UNL     1       2.251   4.842  20.229  0.00  0.00    +0.000 A 
ATOM     11  N   UNL     1       2.751   6.069  19.863  0.00  0.00    +0.000 N 
ATOM     12  H   UNL     1       3.161   6.739  20.498  0.00  0.00    +0.000 HD
ENDBRANCH   1   3
BRANCH   2  13
ATOM     13  C   UNL     1       5.123   6.738  17.194  0.00  0.00    +0.000 A 
ATOM     14  C   UNL     1       5.327   6.056  15.982  0.00  0.00    +0.000 A 
ATOM     15  C   UNL     1       6.367   5.127  15.848  0.00  0.00    +0.000 A 
ATOM     16  C   UNL     1       7.199   4.883  16.932  0.00  0.00    +0.000 A 
ATOM     17  C   UNL     1       7.010   5.568  18.130  0.00  0.00    +0.000 A 
ATOM     18  C   UNL     1       5.981   6.494  18.272  0.00  0.00    +0.000 A 
BRANCH  16  19
ATOM     19  O   UNL     1       8.222   3.978  16.872  0.00  0.00    +0.000 OA
ATOM     20  H   UNL     1       9.012   4.389  17.261  0.00  0.00    +0.000 HD
ENDBRANCH  16  19
BRANCH  17  21
ATOM     21  O   UNL     1       7.845   5.325  19.185  0.00  0.00    +0.000 OA
ATOM     22  H   UNL     1       7.663   6.052  19.813  0.00  0.00    +0.000 HD
ENDBRANCH  17  21
ENDBRANCH   2  13
BRANCH   1  24
ATOM     23  N   UNL     1       0.982   9.586  17.990  0.00  0.00    +0.000 NA
ATOM     24  C   UNL     1       1.818   8.643  17.951  0.00  0.00    +0.000 C 
ENDBRANCH   1  24
TORSDOF 5
ENDMDL
MODEL 2
REMARK VINA RESULT:      -7.7      0.611      1.468
REMARK  Name = 
REMARK  5 active torsions:
REMARK  status: ('A' for Active; 'I' for Inactive)
REMARK    1  A    between atoms: C_2  and  C_3
REMARK    2  A    between atoms: C_3  and  C_13
REMARK    3  A    between atoms: C_4  and  C_5
REMARK    4  A    between atoms: C_8  and  O_9
REMARK    5  A    between atoms: C_10  and  O_11
REMARK                            x       y       z     vdW  Elec       q    Type
REMARK                         _______ _______ _______ _____ _____    ______ ____
ROOT
ATOM      1  C   UNL     1       2.849   7.484  17.892  0.00  0.00    +0.000 C 
ATOM      2  C   UNL     1       4.048   7.691  17.301  0.00  0.00    +0.000 C 
ENDROOT
BRANCH   1   3
ATOM      3  C   UNL     1       2.546   6.243  18.530  0.00  0.00    +0.000 A 
ATOM      4  N   UNL     1       1.979   5.154  18.045  0.00  0.00    +0.000 NA
ATOM      5  C   UNL     1       1.800   4.306  19.103  0.00  0.00    +0.000 A 
ATOM      6  C   UNL     1       1.178   3.051  19.145  0.00  0.00    +0.000 A 
ATOM      7  C   UNL     1       1.099   2.385  20.373  0.00  0.00    +0.000 A 
ATOM      8  C   UNL     1       1.639   2.955  21.529  0.00  0.00    +0.000 A 
ATOM      9  C   UNL     1       2.270   4.206  21.502  0.00  0.00    +0.000 A 
ATOM     10  C   UNL     1       2.322   4.853  20.267  0.00  0.00    +0.000 A 
ATOM     11  N   UNL     1       2.821   6.072  19.872  0.00  0.00    +0.000 N 
ATOM     12  H   UNL     1       3.256   6.746  20.485  0.00  0.00    +0.000 HD
ENDBRANCH   1   3
BRANCH   2  13
ATOM     13  C   UNL     1       5.147   6.714  17.188  0.00  0.00    +0.000 A 
ATOM     14  C   UNL     1       6.116   6.617  18.203  0.00  0.00    +0.000 A 
ATOM     15  C   UNL     1       7.160   5.690  18.110  0.00  0.00    +0.000 A 
ATOM     16  C   UNL     1       7.234   4.862  16.998  0.00  0.00    +0.000 A 
ATOM     17  C   UNL     1       6.268   4.945  15.997  0.00  0.00    +0.000 A 
ATOM     18  C   UNL     1       5.224   5.861  16.081  0.00  0.00    +0.000 A 
BRANCH  16  19
ATOM     19  O   UNL     1       8.237   3.947  16.839  0.00  0.00    +0.000 OA
ATOM     20  H   UNL     1       9.083   4.392  17.017  0.00  0.00    +0.000 HD
ENDBRANCH  16  19
BRANCH  17  21
ATOM     21  O   UNL     1       6.348   4.116  14.913  0.00  0.00    +0.000 OA
ATOM     22  H   UNL     1       5.433   4.070  14.572  0.00  0.00    +0.000 HD
ENDBRANCH  17  21
ENDBRANCH   2  13
BRANCH   1  24
ATOM     23  N   UNL     1       0.997   9.557  17.949  0.00  0.00    +0.000 NA
ATOM     24  C   UNL     1       1.837   8.617  17.923  0.00  0.00    +0.000 C 
ENDBRANCH   1  24
TORSDOF 5
ENDMDL
MODEL 3
REMARK VINA RESULT:      -7.6      0.314      1.296
REMARK  Name = 
REMARK  5 active torsions:
REMARK  status: ('A' for Active; 'I' for Inactive)
REMARK    1  A    between atoms: C_2  and  C_3
REMARK    2  A    between atoms: C_3  and  C_13
REMARK    3  A    between atoms: C_4  and  C_5
REMARK    4  A    between atoms: C_8  and  O_9
REMARK    5  A    between atoms: C_10  and  O_11
REMARK                            x       y       z     vdW  Elec       q    Type
REMARK                         _______ _______ _______ _____ _____    ______ ____
ROOT
ATOM      1  C   UNL     1       2.771   7.588  17.923  0.00  0.00    +0.000 C 
ATOM      2  C   UNL     1       3.970   7.743  17.319  0.00  0.00    +0.000 C 
ENDROOT
BRANCH   1   3
ATOM      3  C   UNL     1       2.450   6.391  18.631  0.00  0.00    +0.000 A 
ATOM      4  N   UNL     1       2.477   6.136  19.927  0.00  0.00    +0.000 NA
ATOM      5  C   UNL     1       2.209   4.802  20.065  0.00  0.00    +0.000 A 
ATOM      6  C   UNL     1       2.189   4.011  21.222  0.00  0.00    +0.000 A 
ATOM      7  C   UNL     1       1.908   2.646  21.094  0.00  0.00    +0.000 A 
ATOM      8  C   UNL     1       1.641   2.088  19.841  0.00  0.00    +0.000 A 
ATOM      9  C   UNL     1       1.651   2.867  18.676  0.00  0.00    +0.000 A 
ATOM     10  C   UNL     1       1.948   4.221  18.832  0.00  0.00    +0.000 A 
ATOM     11  N   UNL     1       2.074   5.258  17.938  0.00  0.00    +0.000 N 
ATOM     12  H   UNL     1       1.971   5.175  16.937  0.00  0.00    +0.000 HD
ENDBRANCH   1   3
BRANCH   2  13
ATOM     13  C   UNL     1       5.054   6.745  17.261  0.00  0.00    +0.000 A 
ATOM     14  C   UNL     1       5.293   6.025  16.077  0.00  0.00    +0.000 A 
ATOM     15  C   UNL     1       6.322   5.078  16.008  0.00  0.00    +0.000 A 
ATOM     16  C   UNL     1       7.111   4.854  17.129  0.00  0.00    +0.000 A 
ATOM     17  C   UNL     1       6.888   5.575  18.299  0.00  0.00    +0.000 A 
ATOM     18  C   UNL     1       5.869   6.520  18.377  0.00  0.00    +0.000 A 
BRANCH  16  19
ATOM     19  O   UNL     1       8.121   3.933  17.132  0.00  0.00    +0.000 OA
ATOM     20  H   UNL     1       8.312   3.697  18.055  0.00  0.00    +0.000 HD
ENDBRANCH  16  19
BRANCH  17  21
ATOM     21  O   UNL     1       7.680   5.350  19.391  0.00  0.00    +0.000 OA
ATOM     22  H   UNL     1       7.661   6.194  19.884  0.00  0.00    +0.000 HD
ENDBRANCH  17  21
ENDBRANCH   2  13
BRANCH   1  24
ATOM     23  N   UNL     1       0.949   9.689  17.864  0.00  0.00    +0.000 NA
ATOM     24  C   UNL     1       1.775   8.737  17.891  0.00  0.00    +0.000 C 
ENDBRANCH   1  24
TORSDOF 5
ENDMDL
MODEL 4
REMARK VINA RESULT:      -7.5      0.744      1.866
REMARK  Name = 
REMARK  5 active torsions:
REMARK  status: ('A' for Active; 'I' for Inactive)
REMARK    1  A    between atoms: C_2  and  C_3
REMARK    2  A    between atoms: C_3  and  C_13
REMARK    3  A    between atoms: C_4  and  C_5
REMARK    4  A    between atoms: C_8  and  O_9
REMARK    5  A    between atoms: C_10  and  O_11
REMARK                            x       y       z     vdW  Elec       q    Type
REMARK                         _______ _______ _______ _____ _____    ______ ____
ROOT
ATOM      1  C   UNL     1       2.778   7.609  17.895  0.00  0.00    +0.000 C 
ATOM      2  C   UNL     1       3.976   7.758  17.286  0.00  0.00    +0.000 C 
ENDROOT
BRANCH   1   3
ATOM      3  C   UNL     1       2.477   6.437  18.653  0.00  0.00    +0.000 A 
ATOM      4  N   UNL     1       2.693   6.169  19.928  0.00  0.00    +0.000 NA
ATOM      5  C   UNL     1       2.338   4.861  20.116  0.00  0.00    +0.000 A 
ATOM      6  C   UNL     1       2.440   4.065  21.264  0.00  0.00    +0.000 A 
ATOM      7  C   UNL     1       2.026   2.731  21.191  0.00  0.00    +0.000 A 
ATOM      8  C   UNL     1       1.513   2.208  20.001  0.00  0.00    +0.000 A 
ATOM      9  C   UNL     1       1.399   2.993  18.846  0.00  0.00    +0.000 A 
ATOM     10  C   UNL     1       1.832   4.316  18.944  0.00  0.00    +0.000 A 
ATOM     11  N   UNL     1       1.898   5.346  18.036  0.00  0.00    +0.000 N 
ATOM     12  H   UNL     1       1.627   5.281  17.065  0.00  0.00    +0.000 HD
ENDBRANCH   1   3
BRANCH   2  13
ATOM     13  C   UNL     1       5.077   6.776  17.270  0.00  0.00    +0.000 A 
ATOM     14  C   UNL     1       6.313   7.087  17.864  0.00  0.00    +0.000 A 
ATOM     15  C   UNL     1       7.363   6.161  17.861  0.00  0.00    +0.000 A 
ATOM     16  C   UNL     1       7.173   4.924  17.258  0.00  0.00    +0.000 A 
ATOM     17  C   UNL     1       5.945   4.607  16.682  0.00  0.00    +0.000 A 
ATOM     18  C   UNL     1       4.894   5.519  16.683  0.00  0.00    +0.000 A 
BRANCH  16  19
ATOM     19  O   UNL     1       8.162   3.982  17.207  0.00  0.00    +0.000 OA
ATOM     20  H   UNL     1       7.984   3.398  16.451  0.00  0.00    +0.000 HD
ENDBRANCH  16  19
BRANCH  17  21
ATOM     21  O   UNL     1       5.770   3.381  16.103  0.00  0.00    +0.000 OA
ATOM     22  H   UNL     1       5.516   2.795  16.843  0.00  0.00    +0.000 HD
ENDBRANCH  17  21
ENDBRANCH   2  13
BRANCH   1  24
ATOM     23  N   UNL     1       0.923   9.675  17.748  0.00  0.00    +0.000 NA
ATOM     24  C   UNL     1       1.764   8.738  17.815  0.00  0.00    +0.000 C 
ENDBRANCH   1  24
TORSDOF 5
ENDMDL
MODEL 5
REMARK VINA RESULT:      -7.5      1.821      4.070
REMARK  Name = 
REMARK  5 active torsions:
REMARK  status: ('A' for Active; 'I' for Inactive)
REMARK    1  A    between atoms: C_2  and  C_3
REMARK    2  A    between atoms: C_3  and  C_13
REMARK    3  A    between atoms: C_4  and  C_5
REMARK    4  A    between atoms: C_8  and  O_9
REMARK    5  A    between atoms: C_10  and  O_11
REMARK                            x       y       z     vdW  Elec       q    Type
REMARK                         _______ _______ _______ _____ _____    ______ ____
ROOT
ATOM      1  C   UNL     1       3.146   4.167  20.157  0.00  0.00    +0.000 C 
ATOM      2  C   UNL     1       4.274   3.655  19.616  0.00  0.00    +0.000 C 
ENDROOT
BRANCH   1   3
ATOM      3  C   UNL     1       2.652   5.446  19.760  0.00  0.00    +0.000 A 
ATOM      4  N   UNL     1       2.673   6.036  18.579  0.00  0.00    +0.000 NA
ATOM      5  C   UNL     1       2.191   7.302  18.769  0.00  0.00    +0.000 A 
ATOM      6  C   UNL     1       2.073   8.359  17.856  0.00  0.00    +0.000 A 
ATOM      7  C   UNL     1       1.566   9.581  18.310  0.00  0.00    +0.000 A 
ATOM      8  C   UNL     1       1.175   9.740  19.642  0.00  0.00    +0.000 A 
ATOM      9  C   UNL     1       1.282   8.692  20.566  0.00  0.00    +0.000 A 
ATOM     10  C   UNL     1       1.803   7.488  20.088  0.00  0.00    +0.000 A 
ATOM     11  N   UNL     1       2.074   6.283  20.693  0.00  0.00    +0.000 N 
ATOM     12  H   UNL     1       1.930   6.081  21.672  0.00  0.00    +0.000 HD
ENDBRANCH   1   3
BRANCH   2  13
ATOM     13  C   UNL     1       5.144   4.313  18.623  0.00  0.00    +0.000 A 
ATOM     14  C   UNL     1       4.978   4.054  17.251  0.00  0.00    +0.000 A 
ATOM     15  C   UNL     1       5.793   4.677  16.299  0.00  0.00    +0.000 A 
ATOM     16  C   UNL     1       6.777   5.559  16.725  0.00  0.00    +0.000 A 
ATOM     17  C   UNL     1       6.936   5.831  18.082  0.00  0.00    +0.000 A 
ATOM     18  C   UNL     1       6.129   5.219  19.036  0.00  0.00    +0.000 A 
BRANCH  16  19
ATOM     19  O   UNL     1       7.617   6.188  15.849  0.00  0.00    +0.000 OA
ATOM     20  H   UNL     1       8.333   5.571  15.621  0.00  0.00    +0.000 HD
ENDBRANCH  16  19
BRANCH  17  21
ATOM     21  O   UNL     1       7.903   6.710  18.485  0.00  0.00    +0.000 OA
ATOM     22  H   UNL     1       8.690   6.463  17.962  0.00  0.00    +0.000 HD
ENDBRANCH  17  21
ENDBRANCH   2  13
BRANCH   1  24
ATOM     23  N   UNL     1       1.721   2.644  21.997  0.00  0.00    +0.000 NA
ATOM     24  C   UNL     1       2.367   3.335  21.163  0.00  0.00    +0.000 C 
ENDBRANCH   1  24
TORSDOF 5
ENDMDL
MODEL 6
REMARK VINA RESULT:      -7.4      3.553      6.316
REMARK  Name = 
REMARK  5 active torsions:
REMARK  status: ('A' for Active; 'I' for Inactive)
REMARK    1  A    between atoms: C_2  and  C_3
REMARK    2  A    between atoms: C_3  and  C_13
REMARK    3  A    between atoms: C_4  and  C_5
REMARK    4  A    between atoms: C_8  and  O_9
REMARK    5  A    between atoms: C_10  and  O_11
REMARK                            x       y       z     vdW  Elec       q    Type
REMARK                         _______ _______ _______ _____ _____    ______ ____
ROOT
ATOM      1  C   UNL     1       6.311   6.082  17.475  0.00  0.00    +0.000 C 
ATOM      2  C   UNL     1       5.444   5.696  18.438  0.00  0.00    +0.000 C 
ENDROOT
BRANCH   1   3
ATOM      3  C   UNL     1       6.238   5.539  16.156  0.00  0.00    +0.000 A 
ATOM      4  N   UNL     1       5.299   4.804  15.590  0.00  0.00    +0.000 NA
ATOM      5  C   UNL     1       5.778   4.438  14.363  0.00  0.00    +0.000 A 
ATOM      6  C   UNL     1       5.209   3.600  13.395  0.00  0.00    +0.000 A 
ATOM      7  C   UNL     1       5.921   3.361  12.215  0.00  0.00    +0.000 A 
ATOM      8  C   UNL     1       7.169   3.954  12.002  0.00  0.00    +0.000 A 
ATOM      9  C   UNL     1       7.749   4.799  12.958  0.00  0.00    +0.000 A 
ATOM     10  C   UNL     1       7.022   5.009  14.131  0.00  0.00    +0.000 A 
ATOM     11  N   UNL     1       7.279   5.733  15.272  0.00  0.00    +0.000 N 
ATOM     12  H   UNL     1       8.123   6.259  15.446  0.00  0.00    +0.000 HD
ENDBRANCH   1   3
BRANCH   2  13
ATOM     13  C   UNL     1       4.380   4.683  18.302  0.00  0.00    +0.000 A 
ATOM     14  C   UNL     1       3.071   5.071  17.969  0.00  0.00    +0.000 A 
ATOM     15  C   UNL     1       2.053   4.119  17.831  0.00  0.00    +0.000 A 
ATOM     16  C   UNL     1       2.351   2.778  18.030  0.00  0.00    +0.000 A 
ATOM     17  C   UNL     1       3.651   2.387  18.345  0.00  0.00    +0.000 A 
ATOM     18  C   UNL     1       4.669   3.325  18.482  0.00  0.00    +0.000 A 
BRANCH  16  19
ATOM     19  O   UNL     1       1.401   1.800  17.926  0.00  0.00    +0.000 OA
ATOM     20  H   UNL     1       0.915   1.938  17.096  0.00  0.00    +0.000 HD
ENDBRANCH  16  19
BRANCH  17  21
ATOM     21  O   UNL     1       3.930   1.061  18.527  0.00  0.00    +0.000 OA
ATOM     22  H   UNL     1       3.194   0.729  19.077  0.00  0.00    +0.000 HD
ENDBRANCH  17  21
ENDBRANCH   2  13
BRANCH   1  24
ATOM     23  N   UNL     1       8.193   8.043  18.061  0.00  0.00    +0.000 NA
ATOM     24  C   UNL     1       7.340   7.154  17.795  0.00  0.00    +0.000 C 
ENDBRANCH   1  24
TORSDOF 5
ENDMDL
MODEL 7
REMARK VINA RESULT:      -7.4      1.901      4.304
REMARK  Name = 
REMARK  5 active torsions:
REMARK  status: ('A' for Active; 'I' for Inactive)
REMARK    1  A    between atoms: C_2  and  C_3
REMARK    2  A    between atoms: C_3  and  C_13
REMARK    3  A    between atoms: C_4  and  C_5
REMARK    4  A    between atoms: C_8  and  O_9
REMARK    5  A    between atoms: C_10  and  O_11
REMARK                            x       y       z     vdW  Elec       q    Type
REMARK                         _______ _______ _______ _____ _____    ______ ____
ROOT
ATOM      1  C   UNL     1       3.169   4.162  20.143  0.00  0.00    +0.000 C 
ATOM      2  C   UNL     1       4.300   3.649  19.608  0.00  0.00    +0.000 C 
ENDROOT
BRANCH   1   3
ATOM      3  C   UNL     1       2.674   5.438  19.737  0.00  0.00    +0.000 A 
ATOM      4  N   UNL     1       2.687   6.017  18.550  0.00  0.00    +0.000 NA
ATOM      5  C   UNL     1       2.209   7.285  18.731  0.00  0.00    +0.000 A 
ATOM      6  C   UNL     1       2.086   8.333  17.809  0.00  0.00    +0.000 A 
ATOM      7  C   UNL     1       1.583   9.560  18.255  0.00  0.00    +0.000 A 
ATOM      8  C   UNL     1       1.202   9.733  19.589  0.00  0.00    +0.000 A 
ATOM      9  C   UNL     1       1.314   8.692  20.522  0.00  0.00    +0.000 A 
ATOM     10  C   UNL     1       1.830   7.484  20.052  0.00  0.00    +0.000 A 
ATOM     11  N   UNL     1       2.104   6.284  20.666  0.00  0.00    +0.000 N 
ATOM     12  H   UNL     1       1.967   6.092  21.647  0.00  0.00    +0.000 HD
ENDBRANCH   1   3
BRANCH   2  13
ATOM     13  C   UNL     1       5.172   4.303  18.615  0.00  0.00    +0.000 A 
ATOM     14  C   UNL     1       6.162   5.211  19.029  0.00  0.00    +0.000 A 
ATOM     15  C   UNL     1       6.999   5.835  18.097  0.00  0.00    +0.000 A 
ATOM     16  C   UNL     1       6.840   5.549  16.747  0.00  0.00    +0.000 A 
ATOM     17  C   UNL     1       5.870   4.639  16.333  0.00  0.00    +0.000 A 
ATOM     18  C   UNL     1       5.036   4.012  17.252  0.00  0.00    +0.000 A 
BRANCH  16  19
ATOM     19  O   UNL     1       7.614   6.136  15.785  0.00  0.00    +0.000 OA
ATOM     20  H   UNL     1       7.836   7.034  16.082  0.00  0.00    +0.000 HD
ENDBRANCH  16  19
BRANCH  17  21
ATOM     21  O   UNL     1       5.733   4.359  15.001  0.00  0.00    +0.000 OA
ATOM     22  H   UNL     1       6.646   4.386  14.651  0.00  0.00    +0.000 HD
ENDBRANCH  17  21
ENDBRANCH   2  13
BRANCH   1  24
ATOM     23  N   UNL     1       1.741   2.647  21.986  0.00  0.00    +0.000 NA
ATOM     24  C   UNL     1       2.388   3.334  21.151  0.00  0.00    +0.000 C 
ENDBRANCH   1  24
TORSDOF 5
ENDMDL
MODEL 8
REMARK VINA RESULT:      -7.2      3.704      6.408
REMARK  Name = 
REMARK  5 active torsions:
REMARK  status: ('A' for Active; 'I' for Inactive)
REMARK    1  A    between atoms: C_2  and  C_3
REMARK    2  A    between atoms: C_3  and  C_13
REMARK    3  A    between atoms: C_4  and  C_5
REMARK    4  A    between atoms: C_8  and  O_9
REMARK    5  A    between atoms: C_10  and  O_11
REMARK                            x       y       z     vdW  Elec       q    Type
REMARK                         _______ _______ _______ _____ _____    ______ ____
ROOT
ATOM      1  C   UNL     1       6.342   6.062  17.495  0.00  0.00    +0.000 C 
ATOM      2  C   UNL     1       5.502   5.650  18.470  0.00  0.00    +0.000 C 
ENDROOT
BRANCH   1   3
ATOM      3  C   UNL     1       6.259   5.526  16.174  0.00  0.00    +0.000 A 
ATOM      4  N   UNL     1       5.317   4.789  15.613  0.00  0.00    +0.000 NA
ATOM      5  C   UNL     1       5.787   4.433  14.379  0.00  0.00    +0.000 A 
ATOM      6  C   UNL     1       5.211   3.597  13.412  0.00  0.00    +0.000 A 
ATOM      7  C   UNL     1       5.913   3.368  12.224  0.00  0.00    +0.000 A 
ATOM      8  C   UNL     1       7.155   3.968  12.002  0.00  0.00    +0.000 A 
ATOM      9  C   UNL     1       7.741   4.811  12.957  0.00  0.00    +0.000 A 
ATOM     10  C   UNL     1       7.025   5.011  14.138  0.00  0.00    +0.000 A 
ATOM     11  N   UNL     1       7.290   5.729  15.280  0.00  0.00    +0.000 N 
ATOM     12  H   UNL     1       8.134   6.259  15.448  0.00  0.00    +0.000 HD
ENDBRANCH   1   3
BRANCH   2  13
ATOM     13  C   UNL     1       4.459   4.615  18.345  0.00  0.00    +0.000 A 
ATOM     14  C   UNL     1       4.725   3.290  18.734  0.00  0.00    +0.000 A 
ATOM     15  C   UNL     1       3.742   2.299  18.625  0.00  0.00    +0.000 A 
ATOM     16  C   UNL     1       2.492   2.638  18.124  0.00  0.00    +0.000 A 
ATOM     17  C   UNL     1       2.219   3.953  17.753  0.00  0.00    +0.000 A 
ATOM     18  C   UNL     1       3.188   4.945  17.859  0.00  0.00    +0.000 A 
BRANCH  16  19
ATOM     19  O   UNL     1       1.494   1.716  17.978  0.00  0.00    +0.000 OA
ATOM     20  H   UNL     1       0.832   2.081  17.368  0.00  0.00    +0.000 HD
ENDBRANCH  16  19
BRANCH  17  21
ATOM     21  O   UNL     1       0.980   4.274  17.272  0.00  0.00    +0.000 OA
ATOM     22  H   UNL     1       0.797   5.160  17.641  0.00  0.00    +0.000 HD
ENDBRANCH  17  21
ENDBRANCH   2  13
BRANCH   1  24
ATOM     23  N   UNL     1       8.189   8.063  18.061  0.00  0.00    +0.000 NA
ATOM     24  C   UNL     1       7.352   7.156  17.804  0.00  0.00    +0.000 C 
ENDBRANCH   1  24
TORSDOF 5
ENDMDL
MODEL 9
REMARK VINA RESULT:      -7.0      1.950      4.090
REMARK  Name = 
REMARK  5 active torsions:
REMARK  status: ('A' for Active; 'I' for Inactive)
REMARK    1  A    between atoms: C_2  and  C_3
REMARK    2  A    between atoms: C_3  and  C_13
REMARK    3  A    between atoms: C_4  and  C_5
REMARK    4  A    between atoms: C_8  and  O_9
REMARK    5  A    between atoms: C_10  and  O_11
REMARK                            x       y       z     vdW  Elec       q    Type
REMARK                         _______ _______ _______ _____ _____    ______ ____
ROOT
ATOM      1  C   UNL     1       2.792   4.437  18.497  0.00  0.00    +0.000 C 
ATOM      2  C   UNL     1       4.063   4.104  18.177  0.00  0.00    +0.000 C 
ENDROOT
BRANCH   1   3
ATOM      3  C   UNL     1       2.466   5.751  18.952  0.00  0.00    +0.000 A 
ATOM      4  N   UNL     1       2.190   6.185  20.169  0.00  0.00    +0.000 NA
ATOM      5  C   UNL     1       1.817   7.494  20.038  0.00  0.00    +0.000 A 
ATOM      6  C   UNL     1       1.358   8.393  21.011  0.00  0.00    +0.000 A 
ATOM      7  C   UNL     1       1.011   9.689  20.613  0.00  0.00    +0.000 A 
ATOM      8  C   UNL     1       1.131  10.080  19.277  0.00  0.00    +0.000 A 
ATOM      9  C   UNL     1       1.594   9.195  18.294  0.00  0.00    +0.000 A 
ATOM     10  C   UNL     1       1.920   7.906  18.716  0.00  0.00    +0.000 A 
ATOM     11  N   UNL     1       2.366   6.789  18.049  0.00  0.00    +0.000 N 
ATOM     12  H   UNL     1       2.527   6.736  17.054  0.00  0.00    +0.000 HD
ENDBRANCH   1   3
BRANCH   2  13
ATOM     13  C   UNL     1       5.248   4.976  18.284  0.00  0.00    +0.000 A 
ATOM     14  C   UNL     1       5.510   5.941  17.296  0.00  0.00    +0.000 A 
ATOM     15  C   UNL     1       6.628   6.778  17.389  0.00  0.00    +0.000 A 
ATOM     16  C   UNL     1       7.484   6.644  18.474  0.00  0.00    +0.000 A 
ATOM     17  C   UNL     1       7.220   5.700  19.464  0.00  0.00    +0.000 A 
ATOM     18  C   UNL     1       6.110   4.866  19.382  0.00  0.00    +0.000 A 
BRANCH  16  19
ATOM     19  O   UNL     1       8.602   7.419  18.617  0.00  0.00    +0.000 OA
ATOM     20  H   UNL     1       9.294   6.878  19.031  0.00  0.00    +0.000 HD
ENDBRANCH  16  19
BRANCH  17  21
ATOM     21  O   UNL     1       8.067   5.589  20.532  0.00  0.00    +0.000 OA
ATOM     22  H   UNL     1       8.946   5.814  20.171  0.00  0.00    +0.000 HD
ENDBRANCH  17  21
ENDBRANCH   2  13
BRANCH   1  24
ATOM     23  N   UNL     1       0.776   2.552  18.154  0.00  0.00    +0.000 NA
ATOM     24  C   UNL     1       1.690   3.407  18.310  0.00  0.00    +0.000 C 
ENDBRANCH   1  24
TORSDOF 5
ENDMDL
