MODEL 1
REMARK VINA RESULT:      -7.3      0.000      0.000
REMARK  Name = 
REMARK  4 active torsions:
REMARK  status: ('A' for Active; 'I' for Inactive)
REMARK    1  A    between atoms: C_2  and  C_3
REMARK    2  A    between atoms: C_2  and  C_4
REMARK    3  A    between atoms: C_8  and  C_9
REMARK    4  A    between atoms: C_17  and  C_18
REMARK                            x       y       z     vdW  Elec       q    Type
REMARK                         _______ _______ _______ _____ _____    ______ ____
ROOT
ATOM      1  C   UNL     1       4.974   4.216  17.354  0.00  0.00    +0.000 C 
ATOM      2  O   UNL     1       5.149   3.141  16.778  0.00  0.00    +0.000 OA
ATOM      3  N   UNL     1       4.468   4.256  18.667  0.00  0.00    +0.000 N 
ATOM      4  C   UNL     1       4.462   3.003  19.446  0.00  0.00    +0.000 C 
ATOM      5  C   UNL     1       3.103   2.510  19.949  0.00  0.00    +0.000 C 
ATOM      6  S   UNL     1       2.496   3.523  21.323  0.00  0.00    +0.000 S 
ATOM      7  O   UNL     1       1.423   2.693  22.113  0.00  0.00    +0.000 OA
ATOM      8  C   UNL     1       1.600   4.784  20.382  0.00  0.00    +0.000 C 
ATOM      9  C   UNL     1       2.315   5.426  19.190  0.00  0.00    +0.000 C 
ATOM     10  C   UNL     1       1.765   4.898  17.856  0.00  0.00    +0.000 C 
ATOM     11  C   UNL     1       3.850   5.428  19.293  0.00  0.00    +0.000 C 
ENDROOT
BRANCH   1  16
ATOM     12  C   UNL     1       6.697   6.078  16.769  0.00  0.00    +0.000 C 
ATOM     13  O   UNL     1       7.401   5.815  15.543  0.00  0.00    +0.000 OA
ATOM     14  C   UNL     1       6.517   5.144  14.645  0.00  0.00    +0.000 C 
ATOM     15  C   UNL     1       5.110   5.401  15.131  0.00  0.00    +0.000 C 
ATOM     16  C   UNL     1       5.267   5.542  16.632  0.00  0.00    +0.000 C 
BRANCH  12  18
ATOM     17  C   UNL     1       7.698   6.476  19.018  0.00  0.00    +0.000 C 
ATOM     18  C   UNL     1       7.513   5.655  17.969  0.00  0.00    +0.000 C 
ATOM     19  C   UNL     1       8.155   4.294  17.928  0.00  0.00    +0.000 C 
ENDBRANCH  12  18
ENDBRANCH   1  16
TORSDOF 2
ENDMDL
MODEL 2
REMARK VINA RESULT:      -7.1      1.521      2.110
REMARK  Name = 
REMARK  4 active torsions:
REMARK  status: ('A' for Active; 'I' for Inactive)
REMARK    1  A    between atoms: C_2  and  C_3
REMARK    2  A    between atoms: C_2  and  C_4
REMARK    3  A    between atoms: C_8  and  C_9
REMARK    4  A    between atoms: C_17  and  C_18
REMARK                            x       y       z     vdW  Elec       q    Type
REMARK                         _______ _______ _______ _____ _____    ______ ____
ROOT
ATOM      1  C   UNL     1       5.024   4.207  17.751  0.00  0.00    +0.000 C 
ATOM      2  O   UNL     1       6.111   3.839  18.200  0.00  0.00    +0.000 OA
ATOM      3  N   UNL     1       3.892   4.292  18.583  0.00  0.00    +0.000 N 
ATOM      4  C   UNL     1       4.099   4.250  20.043  0.00  0.00    +0.000 C 
ATOM      5  C   UNL     1       3.403   3.121  20.807  0.00  0.00    +0.000 C 
ATOM      6  S   UNL     1       1.619   3.407  20.936  0.00  0.00    +0.000 S 
ATOM      7  O   UNL     1       1.065   2.549  22.127  0.00  0.00    +0.000 OA
ATOM      8  C   UNL     1       1.083   2.596  19.407  0.00  0.00    +0.000 C 
ATOM      9  C   UNL     1       1.840   2.930  18.120  0.00  0.00    +0.000 C 
ATOM     10  C   UNL     1       2.764   1.778  17.698  0.00  0.00    +0.000 C 
ATOM     11  C   UNL     1       2.505   4.318  18.112  0.00  0.00    +0.000 C 
ENDROOT
BRANCH   1  16
ATOM     12  C   UNL     1       5.299   5.958  15.844  0.00  0.00    +0.000 C 
ATOM     13  O   UNL     1       6.581   5.877  15.198  0.00  0.00    +0.000 OA
ATOM     14  C   UNL     1       6.999   4.512  15.184  0.00  0.00    +0.000 C 
ATOM     15  C   UNL     1       5.765   3.667  15.400  0.00  0.00    +0.000 C 
ATOM     16  C   UNL     1       4.874   4.544  16.258  0.00  0.00    +0.000 C 
BRANCH  12  18
ATOM     17  C   UNL     1       4.129   7.611  17.299  0.00  0.00    +0.000 C 
ATOM     18  C   UNL     1       5.281   7.051  16.887  0.00  0.00    +0.000 C 
ATOM     19  C   UNL     1       6.606   7.526  17.419  0.00  0.00    +0.000 C 
ENDBRANCH  12  18
ENDBRANCH   1  16
TORSDOF 2
ENDMDL
MODEL 3
REMARK VINA RESULT:      -6.7      1.797      3.231
REMARK  Name = 
REMARK  4 active torsions:
REMARK  status: ('A' for Active; 'I' for Inactive)
REMARK    1  A    between atoms: C_2  and  C_3
REMARK    2  A    between atoms: C_2  and  C_4
REMARK    3  A    between atoms: C_8  and  C_9
REMARK    4  A    between atoms: C_17  and  C_18
REMARK                            x       y       z     vdW  Elec       q    Type
REMARK                         _______ _______ _______ _____ _____    ______ ____
ROOT
ATOM      1  C   UNL     1       5.001   5.415  18.333  0.00  0.00    +0.000 C 
ATOM      2  O   UNL     1       4.764   6.453  18.953  0.00  0.00    +0.000 OA
ATOM      3  N   UNL     1       3.965   4.522  18.001  0.00  0.00    +0.000 N 
ATOM      4  C   UNL     1       2.573   4.999  18.120  0.00  0.00    +0.000 C 
ATOM      5  C   UNL     1       1.657   4.224  19.069  0.00  0.00    +0.000 C 
ATOM      6  S   UNL     1       1.187   2.618  18.375  0.00  0.00    +0.000 S 
ATOM      7  O   UNL     1      -0.114   2.126  19.103  0.00  0.00    +0.000 OA
ATOM      8  C   UNL     1       2.556   1.615  19.008  0.00  0.00    +0.000 C 
ATOM      9  C   UNL     1       3.977   2.159  18.836  0.00  0.00    +0.000 C 
ATOM     10  C   UNL     1       4.540   2.687  20.164  0.00  0.00    +0.000 C 
ATOM     11  C   UNL     1       4.154   3.114  17.642  0.00  0.00    +0.000 C 
ENDROOT
BRANCH   1  16
ATOM     12  C   UNL     1       6.869   5.444  16.520  0.00  0.00    +0.000 C 
ATOM     13  O   UNL     1       7.699   6.616  16.599  0.00  0.00    +0.000 OA
ATOM     14  C   UNL     1       7.819   6.998  17.969  0.00  0.00    +0.000 C 
ATOM     15  C   UNL     1       7.451   5.792  18.801  0.00  0.00    +0.000 C 
ATOM     16  C   UNL     1       6.444   5.055  17.941  0.00  0.00    +0.000 C 
BRANCH  12  18
ATOM     17  C   UNL     1       5.070   6.728  15.366  0.00  0.00    +0.000 C 
ATOM     18  C   UNL     1       5.799   5.602  15.465  0.00  0.00    +0.000 C 
ATOM     19  C   UNL     1       5.545   4.432  14.552  0.00  0.00    +0.000 C 
ENDBRANCH  12  18
ENDBRANCH   1  16
TORSDOF 2
ENDMDL
MODEL 4
REMARK VINA RESULT:      -6.5      1.191      1.481
REMARK  Name = 
REMARK  4 active torsions:
REMARK  status: ('A' for Active; 'I' for Inactive)
REMARK    1  A    between atoms: C_2  and  C_3
REMARK    2  A    between atoms: C_2  and  C_4
REMARK    3  A    between atoms: C_8  and  C_9
REMARK    4  A    between atoms: C_17  and  C_18
REMARK                            x       y       z     vdW  Elec       q    Type
REMARK                         _______ _______ _______ _____ _____    ______ ____
ROOT
ATOM      1  C   UNL     1       5.437   4.680  17.812  0.00  0.00    +0.000 C 
ATOM      2  O   UNL     1       6.364   3.904  18.049  0.00  0.00    +0.000 OA
ATOM      3  N   UNL     1       4.337   4.777  18.685  0.00  0.00    +0.000 N 
ATOM      4  C   UNL     1       4.465   4.184  20.031  0.00  0.00    +0.000 C 
ATOM      5  C   UNL     1       3.458   3.094  20.403  0.00  0.00    +0.000 C 
ATOM      6  S   UNL     1       1.815   3.788  20.720  0.00  0.00    +0.000 S 
ATOM      7  O   UNL     1       1.000   2.756  21.578  0.00  0.00    +0.000 OA
ATOM      8  C   UNL     1       1.142   3.723  19.039  0.00  0.00    +0.000 C 
ATOM      9  C   UNL     1       2.014   4.260  17.902  0.00  0.00    +0.000 C 
ATOM     10  C   UNL     1       2.608   3.117  17.064  0.00  0.00    +0.000 C 
ATOM     11  C   UNL     1       3.030   5.334  18.329  0.00  0.00    +0.000 C 
ENDROOT
BRANCH   1  16
ATOM     12  C   UNL     1       6.648   6.470  16.361  0.00  0.00    +0.000 C 
ATOM     13  O   UNL     1       7.543   5.889  15.397  0.00  0.00    +0.000 OA
ATOM     14  C   UNL     1       6.994   4.647  14.957  0.00  0.00    +0.000 C 
ATOM     15  C   UNL     1       5.521   4.668  15.291  0.00  0.00    +0.000 C 
ATOM     16  C   UNL     1       5.446   5.533  16.533  0.00  0.00    +0.000 C 
BRANCH  12  18
ATOM     17  C   UNL     1       7.747   6.055  18.560  0.00  0.00    +0.000 C 
ATOM     18  C   UNL     1       7.393   6.923  17.595  0.00  0.00    +0.000 C 
ATOM     19  C   UNL     1       7.685   8.393  17.731  0.00  0.00    +0.000 C 
ENDBRANCH  12  18
ENDBRANCH   1  16
TORSDOF 2
ENDMDL
MODEL 5
REMARK VINA RESULT:      -5.6      1.747      2.980
REMARK  Name = 
REMARK  4 active torsions:
REMARK  status: ('A' for Active; 'I' for Inactive)
REMARK    1  A    between atoms: C_2  and  C_3
REMARK    2  A    between atoms: C_2  and  C_4
REMARK    3  A    between atoms: C_8  and  C_9
REMARK    4  A    between atoms: C_17  and  C_18
REMARK                            x       y       z     vdW  Elec       q    Type
REMARK                         _______ _______ _______ _____ _____    ______ ____
ROOT
ATOM      1  C   UNL     1       4.849   5.052  17.123  0.00  0.00    +0.000 C 
ATOM      2  O   UNL     1       4.380   6.029  16.537  0.00  0.00    +0.000 OA
ATOM      3  N   UNL     1       4.027   3.970  17.490  0.00  0.00    +0.000 N 
ATOM      4  C   UNL     1       2.685   3.880  16.882  0.00  0.00    +0.000 C 
ATOM      5  C   UNL     1       1.492   3.885  17.840  0.00  0.00    +0.000 C 
ATOM      6  S   UNL     1       1.342   2.309  18.722  0.00  0.00    +0.000 S 
ATOM      7  O   UNL     1      -0.129   2.179  19.255  0.00  0.00    +0.000 OA
ATOM      8  C   UNL     1       2.390   2.677  20.153  0.00  0.00    +0.000 C 
ATOM      9  C   UNL     1       3.763   3.301  19.891  0.00  0.00    +0.000 C 
ATOM     10  C   UNL     1       3.778   4.794  20.253  0.00  0.00    +0.000 C 
ATOM     11  C   UNL     1       4.359   2.972  18.510  0.00  0.00    +0.000 C 
ENDROOT
BRANCH   1  16
ATOM     12  C   UNL     1       7.329   5.075  16.333  0.00  0.00    +0.000 C 
ATOM     13  O   UNL     1       7.878   6.402  16.271  0.00  0.00    +0.000 OA
ATOM     14  C   UNL     1       7.297   7.185  17.314  0.00  0.00    +0.000 C 
ATOM     15  C   UNL     1       6.731   6.221  18.330  0.00  0.00    +0.000 C 
ATOM     16  C   UNL     1       6.339   5.014  17.502  0.00  0.00    +0.000 C 
BRANCH  12  18
ATOM     17  C   UNL     1       6.040   3.559  14.829  0.00  0.00    +0.000 C 
ATOM     18  C   UNL     1       6.866   4.611  14.971  0.00  0.00    +0.000 C 
ATOM     19  C   UNL     1       7.402   5.343  13.769  0.00  0.00    +0.000 C 
ENDBRANCH  12  18
ENDBRANCH   1  16
TORSDOF 2
ENDMDL
MODEL 6
REMARK VINA RESULT:      -5.5      2.316      6.118
REMARK  Name = 
REMARK  4 active torsions:
REMARK  status: ('A' for Active; 'I' for Inactive)
REMARK    1  A    between atoms: C_2  and  C_3
REMARK    2  A    between atoms: C_2  and  C_4
REMARK    3  A    between atoms: C_8  and  C_9
REMARK    4  A    between atoms: C_17  and  C_18
REMARK                            x       y       z     vdW  Elec       q    Type
REMARK                         _______ _______ _______ _____ _____    ______ ____
ROOT
ATOM      1  C   UNL     1       3.894   3.511  18.848  0.00  0.00    +0.000 C 
ATOM      2  O   UNL     1       4.200   2.327  18.997  0.00  0.00    +0.000 OA
ATOM      3  N   UNL     1       4.364   4.243  17.741  0.00  0.00    +0.000 N 
ATOM      4  C   UNL     1       4.949   3.494  16.612  0.00  0.00    +0.000 C 
ATOM      5  C   UNL     1       6.399   3.820  16.245  0.00  0.00    +0.000 C 
ATOM      6  S   UNL     1       6.529   5.427  15.418  0.00  0.00    +0.000 S 
ATOM      7  O   UNL     1       7.881   5.465  14.621  0.00  0.00    +0.000 OA
ATOM      8  C   UNL     1       6.744   6.485  16.872  0.00  0.00    +0.000 C 
ATOM      9  C   UNL     1       5.786   6.284  18.049  0.00  0.00    +0.000 C 
ATOM     10  C   UNL     1       6.476   5.563  19.217  0.00  0.00    +0.000 C 
ATOM     11  C   UNL     1       4.413   5.705  17.662  0.00  0.00    +0.000 C 
ENDROOT
BRANCH   1  16
ATOM     12  C   UNL     1       1.526   3.890  19.861  0.00  0.00    +0.000 C 
ATOM     13  O   UNL     1       1.239   2.992  20.947  0.00  0.00    +0.000 OA
ATOM     14  C   UNL     1       2.450   2.733  21.657  0.00  0.00    +0.000 C 
ATOM     15  C   UNL     1       3.417   3.838  21.304  0.00  0.00    +0.000 C 
ATOM     16  C   UNL     1       3.022   4.226  19.893  0.00  0.00    +0.000 C 
BRANCH  12  18
ATOM     17  C   UNL     1       0.430   2.145  18.457  0.00  0.00    +0.000 C 
ATOM     18  C   UNL     1       0.927   3.390  18.567  0.00  0.00    +0.000 C 
ATOM     19  C   UNL     1       0.947   4.322  17.385  0.00  0.00    +0.000 C 
ENDBRANCH  12  18
ENDBRANCH   1  16
TORSDOF 2
ENDMDL
MODEL 7
REMARK VINA RESULT:      -5.4      2.217      5.934
REMARK  Name = 
REMARK  4 active torsions:
REMARK  status: ('A' for Active; 'I' for Inactive)
REMARK    1  A    between atoms: C_2  and  C_3
REMARK    2  A    between atoms: C_2  and  C_4
REMARK    3  A    between atoms: C_8  and  C_9
REMARK    4  A    between atoms: C_17  and  C_18
REMARK                            x       y       z     vdW  Elec       q    Type
REMARK                         _______ _______ _______ _____ _____    ______ ____
ROOT
ATOM      1  C   UNL     1       4.043   3.420  18.622  0.00  0.00    +0.000 C 
ATOM      2  O   UNL     1       4.070   2.201  18.446  0.00  0.00    +0.000 OA
ATOM      3  N   UNL     1       4.564   4.299  17.654  0.00  0.00    +0.000 N 
ATOM      4  C   UNL     1       4.840   3.763  16.307  0.00  0.00    +0.000 C 
ATOM      5  C   UNL     1       6.282   3.865  15.805  0.00  0.00    +0.000 C 
ATOM      6  S   UNL     1       6.711   5.568  15.360  0.00  0.00    +0.000 S 
ATOM      7  O   UNL     1       7.948   5.530  14.395  0.00  0.00    +0.000 OA
ATOM      8  C   UNL     1       7.314   6.146  16.967  0.00  0.00    +0.000 C 
ATOM      9  C   UNL     1       6.455   5.851  18.199  0.00  0.00    +0.000 C 
ATOM     10  C   UNL     1       7.063   4.725  19.050  0.00  0.00    +0.000 C 
ATOM     11  C   UNL     1       4.953   5.689  17.905  0.00  0.00    +0.000 C 
ENDROOT
BRANCH   1  16
ATOM     12  C   UNL     1       2.097   4.672  19.814  0.00  0.00    +0.000 C 
ATOM     13  O   UNL     1       1.113   3.776  20.357  0.00  0.00    +0.000 OA
ATOM     14  C   UNL     1       1.770   2.587  20.795  0.00  0.00    +0.000 C 
ATOM     15  C   UNL     1       3.234   2.924  20.959  0.00  0.00    +0.000 C 
ATOM     16  C   UNL     1       3.473   4.005  19.925  0.00  0.00    +0.000 C 
BRANCH  12  18
ATOM     17  C   UNL     1       1.141   4.408  17.526  0.00  0.00    +0.000 C 
ATOM     18  C   UNL     1       1.662   5.211  18.470  0.00  0.00    +0.000 C 
ATOM     19  C   UNL     1       1.877   6.678  18.207  0.00  0.00    +0.000 C 
ENDBRANCH  12  18
ENDBRANCH   1  16
TORSDOF 2
ENDMDL
MODEL 8
REMARK VINA RESULT:      -5.4      9.292     11.546
REMARK  Name = 
REMARK  4 active torsions:
REMARK  status: ('A' for Active; 'I' for Inactive)
REMARK    1  A    between atoms: C_2  and  C_3
REMARK    2  A    between atoms: C_2  and  C_4
REMARK    3  A    between atoms: C_8  and  C_9
REMARK    4  A    between atoms: C_17  and  C_18
REMARK                            x       y       z     vdW  Elec       q    Type
REMARK                         _______ _______ _______ _____ _____    ______ ____
ROOT
ATOM      1  C   UNL     1       9.505  13.922  18.980  0.00  0.00    +0.000 C 
ATOM      2  O   UNL     1       9.244  13.555  17.833  0.00  0.00    +0.000 OA
ATOM      3  N   UNL     1       8.606  14.729  19.701  0.00  0.00    +0.000 N 
ATOM      4  C   UNL     1       7.226  14.855  19.193  0.00  0.00    +0.000 C 
ATOM      5  C   UNL     1       6.743  16.266  18.851  0.00  0.00    +0.000 C 
ATOM      6  S   UNL     1       6.422  17.239  20.346  0.00  0.00    +0.000 S 
ATOM      7  O   UNL     1       5.465  18.424  19.968  0.00  0.00    +0.000 OA
ATOM      8  C   UNL     1       8.070  17.949  20.589  0.00  0.00    +0.000 C 
ATOM      9  C   UNL     1       9.272  17.005  20.511  0.00  0.00    +0.000 C 
ATOM     10  C   UNL     1      10.045  17.189  19.196  0.00  0.00    +0.000 C 
ATOM     11  C   UNL     1       8.958  15.541  20.868  0.00  0.00    +0.000 C 
ENDROOT
BRANCH   1  16
ATOM     12  C   UNL     1      10.981  12.069  20.060  0.00  0.00    +0.000 C 
ATOM     13  O   UNL     1      11.811  11.393  19.100  0.00  0.00    +0.000 OA
ATOM     14  C   UNL     1      12.199  12.328  18.093  0.00  0.00    +0.000 C 
ATOM     15  C   UNL     1      12.000  13.710  18.670  0.00  0.00    +0.000 C 
ATOM     16  C   UNL     1      10.843  13.536  19.633  0.00  0.00    +0.000 C 
BRANCH  12  18
ATOM     17  C   UNL     1       9.295  10.314  19.516  0.00  0.00    +0.000 C 
ATOM     18  C   UNL     1       9.725  11.280  20.348  0.00  0.00    +0.000 C 
ATOM     19  C   UNL     1       8.942  11.645  21.580  0.00  0.00    +0.000 C 
ENDBRANCH  12  18
ENDBRANCH   1  16
TORSDOF 2
ENDMDL
MODEL 9
REMARK VINA RESULT:      -5.1      2.374      5.807
REMARK  Name = 
REMARK  4 active torsions:
REMARK  status: ('A' for Active; 'I' for Inactive)
REMARK    1  A    between atoms: C_2  and  C_3
REMARK    2  A    between atoms: C_2  and  C_4
REMARK    3  A    between atoms: C_8  and  C_9
REMARK    4  A    between atoms: C_17  and  C_18
REMARK                            x       y       z     vdW  Elec       q    Type
REMARK                         _______ _______ _______ _____ _____    ______ ____
ROOT
ATOM      1  C   UNL     1       4.571   4.804  19.045  0.00  0.00    +0.000 C 
ATOM      2  O   UNL     1       5.201   5.297  19.983  0.00  0.00    +0.000 OA
ATOM      3  N   UNL     1       5.208   4.509  17.825  0.00  0.00    +0.000 N 
ATOM      4  C   UNL     1       6.684   4.496  17.799  0.00  0.00    +0.000 C 
ATOM      5  C   UNL     1       7.366   5.467  16.833  0.00  0.00    +0.000 C 
ATOM      6  S   UNL     1       7.198   4.920  15.113  0.00  0.00    +0.000 S 
ATOM      7  O   UNL     1       8.316   5.619  14.261  0.00  0.00    +0.000 OA
ATOM      8  C   UNL     1       5.634   5.734  14.701  0.00  0.00    +0.000 C 
ATOM      9  C   UNL     1       4.472   5.588  15.687  0.00  0.00    +0.000 C 
ATOM     10  C   UNL     1       4.245   6.884  16.480  0.00  0.00    +0.000 C 
ATOM     11  C   UNL     1       4.522   4.313  16.546  0.00  0.00    +0.000 C 
ENDROOT
BRANCH   1  16
ATOM     12  C   UNL     1       2.669   3.132  19.647  0.00  0.00    +0.000 C 
ATOM     13  O   UNL     1       2.283   3.207  21.030  0.00  0.00    +0.000 OA
ATOM     14  C   UNL     1       2.415   4.559  21.468  0.00  0.00    +0.000 C 
ATOM     15  C   UNL     1       2.433   5.427  20.232  0.00  0.00    +0.000 C 
ATOM     16  C   UNL     1       3.062   4.538  19.177  0.00  0.00    +0.000 C 
BRANCH  12  18
ATOM     17  C   UNL     1       3.580   1.246  18.294  0.00  0.00    +0.000 C 
ATOM     18  C   UNL     1       3.636   1.995  19.409  0.00  0.00    +0.000 C 
ATOM     19  C   UNL     1       4.639   1.699  20.491  0.00  0.00    +0.000 C 
ENDBRANCH  12  18
ENDBRANCH   1  16
TORSDOF 2
ENDMDL
