MODEL 1
REMARK VINA RESULT:      -5.8      0.000      0.000
REMARK  Name = 
REMARK  10 active torsions:
REMARK  status: ('A' for Active; 'I' for Inactive)
REMARK    1  A    between atoms: C_1  and  C_2
REMARK    2  A    between atoms: N_4  and  C_5
REMARK    3  A    between atoms: C_5  and  C_6
REMARK    4  A    between atoms: C_9  and  C_10
REMARK    5  A    between atoms: N_13  and  C_14
REMARK    6  A    between atoms: C_18  and  O_20
REMARK    7  A    between atoms: O_20  and  C_21
REMARK    8  A    between atoms: C_21  and  C_22
REMARK    9  A    between atoms: C_21  and  C_23
REMARK   10  A    between atoms: C_21  and  C_24
REMARK                            x       y       z     vdW  Elec       q    Type
REMARK                         _______ _______ _______ _____ _____    ______ ____
ROOT
ATOM      1  C   UNL     1      -0.311  10.458  22.270  0.00  0.00    +0.000 C 
ATOM      2  C   UNL     1      -0.058  11.526  21.205  0.00  0.00    +0.000 C 
ATOM      3  C   UNL     1       1.173  11.304  20.296  0.00  0.00    +0.000 C 
ATOM      4  N   UNL     1       1.106  10.213  19.303  0.00  0.00    +0.000 NA
ATOM      5  C   UNL     1      -0.173  10.328  18.547  0.00  0.00    +0.000 C 
ATOM      6  C   UNL     1      -1.459  10.653  19.354  0.00  0.00    +0.000 C 
ATOM      7  N   UNL     1      -1.246  11.696  20.362  0.00  0.00    +0.000 N 
ATOM      8  C   UNL     1      -2.206  12.659  20.602  0.00  0.00    +0.000 C 
ATOM      9  O   UNL     1      -3.259  12.731  19.982  0.00  0.00    +0.000 OA
ENDROOT
BRANCH   4  10
ATOM     10  C   UNL     1       1.306   8.862  19.857  0.00  0.00    +0.000 C 
BRANCH  10  11
ATOM     11  C   UNL     1       2.162   7.937  19.034  0.00  0.00    +0.000 A 
ATOM     12  N   UNL     1       2.825   8.296  17.949  0.00  0.00    +0.000 NA
ATOM     13  N   UNL     1       3.550   7.221  17.497  0.00  0.00    +0.000 NA
ATOM     14  C   UNL     1       3.325   6.210  18.310  0.00  0.00    +0.000 A 
ATOM     15  N   UNL     1       2.441   6.613  19.281  0.00  0.00    +0.000 N 
ATOM     16  C   UNL     1       1.973   5.788  20.364  0.00  0.00    +0.000 C 
BRANCH  14  17
ATOM     17  C   UNL     1       3.963   4.830  18.169  0.00  0.00    +0.000 C 
ATOM     18  C   UNL     1       3.265   3.773  17.336  0.00  0.00    +0.000 C 
ATOM     19  C   UNL     1       4.489   4.434  16.804  0.00  0.00    +0.000 C 
ENDBRANCH  14  17
ENDBRANCH  10  11
ENDBRANCH   4  10
BRANCH   8  20
ATOM     20  O   UNL     1      -1.827  13.529  21.577  0.00  0.00    +0.000 OA
BRANCH  20  21
ATOM     21  C   UNL     1      -2.627  13.729  22.771  0.00  0.00    +0.000 C 
ATOM     22  C   UNL     1      -3.245  12.412  23.245  0.00  0.00    +0.000 C 
ATOM     23  C   UNL     1      -1.643  14.219  23.848  0.00  0.00    +0.000 C 
ATOM     24  C   UNL     1      -3.674  14.827  22.553  0.00  0.00    +0.000 C 
ENDBRANCH  20  21
ENDBRANCH   8  20
TORSDOF 5
ENDMDL
MODEL 2
REMARK VINA RESULT:      -5.5      1.492      2.521
REMARK  Name = 
REMARK  10 active torsions:
REMARK  status: ('A' for Active; 'I' for Inactive)
REMARK    1  A    between atoms: C_1  and  C_2
REMARK    2  A    between atoms: N_4  and  C_5
REMARK    3  A    between atoms: C_5  and  C_6
REMARK    4  A    between atoms: C_9  and  C_10
REMARK    5  A    between atoms: N_13  and  C_14
REMARK    6  A    between atoms: C_18  and  O_20
REMARK    7  A    between atoms: O_20  and  C_21
REMARK    8  A    between atoms: C_21  and  C_22
REMARK    9  A    between atoms: C_21  and  C_23
REMARK   10  A    between atoms: C_21  and  C_24
REMARK                            x       y       z     vdW  Elec       q    Type
REMARK                         _______ _______ _______ _____ _____    ______ ____
ROOT
ATOM      1  C   UNL     1       1.192  11.934  20.659  0.00  0.00    +0.000 C 
ATOM      2  C   UNL     1      -0.253  11.437  20.603  0.00  0.00    +0.000 C 
ATOM      3  C   UNL     1      -0.467  10.031  19.995  0.00  0.00    +0.000 C 
ATOM      4  N   UNL     1      -0.011   8.867  20.781  0.00  0.00    +0.000 NA
ATOM      5  C   UNL     1      -0.527   8.992  22.173  0.00  0.00    +0.000 C 
ATOM      6  C   UNL     1      -0.455  10.391  22.843  0.00  0.00    +0.000 C 
ATOM      7  N   UNL     1      -0.857  11.473  21.939  0.00  0.00    +0.000 N 
ATOM      8  C   UNL     1      -1.608  12.538  22.396  0.00  0.00    +0.000 C 
ATOM      9  O   UNL     1      -2.011  12.634  23.548  0.00  0.00    +0.000 OA
ENDROOT
BRANCH   4  10
ATOM     10  C   UNL     1       1.443   8.630  20.745  0.00  0.00    +0.000 C 
BRANCH  10  11
ATOM     11  C   UNL     1       1.879   7.313  20.161  0.00  0.00    +0.000 A 
ATOM     12  N   UNL     1       1.727   6.142  20.756  0.00  0.00    +0.000 NA
ATOM     13  N   UNL     1       2.174   5.155  19.913  0.00  0.00    +0.000 NA
ATOM     14  C   UNL     1       2.596   5.729  18.806  0.00  0.00    +0.000 A 
ATOM     15  N   UNL     1       2.446   7.089  18.928  0.00  0.00    +0.000 N 
ATOM     16  C   UNL     1       2.777   8.051  17.909  0.00  0.00    +0.000 C 
BRANCH  14  17
ATOM     17  C   UNL     1       3.152   4.976  17.599  0.00  0.00    +0.000 C 
ATOM     18  C   UNL     1       4.645   4.735  17.501  0.00  0.00    +0.000 C 
ATOM     19  C   UNL     1       3.741   3.601  17.841  0.00  0.00    +0.000 C 
ENDBRANCH  14  17
ENDBRANCH  10  11
ENDBRANCH   4  10
BRANCH   8  20
ATOM     20  O   UNL     1      -1.871  13.439  21.411  0.00  0.00    +0.000 OA
BRANCH  20  21
ATOM     21  C   UNL     1      -1.439  14.822  21.511  0.00  0.00    +0.000 C 
ATOM     22  C   UNL     1      -0.161  14.940  22.345  0.00  0.00    +0.000 C 
ATOM     23  C   UNL     1      -1.121  15.258  20.070  0.00  0.00    +0.000 C 
ATOM     24  C   UNL     1      -2.570  15.713  22.036  0.00  0.00    +0.000 C 
ENDBRANCH  20  21
ENDBRANCH   8  20
TORSDOF 5
ENDMDL
MODEL 3
REMARK VINA RESULT:      -5.4      1.473      2.206
REMARK  Name = 
REMARK  10 active torsions:
REMARK  status: ('A' for Active; 'I' for Inactive)
REMARK    1  A    between atoms: C_1  and  C_2
REMARK    2  A    between atoms: N_4  and  C_5
REMARK    3  A    between atoms: C_5  and  C_6
REMARK    4  A    between atoms: C_9  and  C_10
REMARK    5  A    between atoms: N_13  and  C_14
REMARK    6  A    between atoms: C_18  and  O_20
REMARK    7  A    between atoms: O_20  and  C_21
REMARK    8  A    between atoms: C_21  and  C_22
REMARK    9  A    between atoms: C_21  and  C_23
REMARK   10  A    between atoms: C_21  and  C_24
REMARK                            x       y       z     vdW  Elec       q    Type
REMARK                         _______ _______ _______ _____ _____    ______ ____
ROOT
ATOM      1  C   UNL     1       1.299  11.680  20.766  0.00  0.00    +0.000 C 
ATOM      2  C   UNL     1      -0.148  11.205  20.630  0.00  0.00    +0.000 C 
ATOM      3  C   UNL     1      -0.349   9.784  20.055  0.00  0.00    +0.000 C 
ATOM      4  N   UNL     1       0.032   8.639  20.906  0.00  0.00    +0.000 NA
ATOM      5  C   UNL     1      -0.571   8.819  22.256  0.00  0.00    +0.000 C 
ATOM      6  C   UNL     1      -0.517  10.238  22.884  0.00  0.00    +0.000 C 
ATOM      7  N   UNL     1      -0.838  11.297  21.921  0.00  0.00    +0.000 N 
ATOM      8  C   UNL     1      -1.597  12.389  22.293  0.00  0.00    +0.000 C 
ATOM      9  O   UNL     1      -2.074  12.529  23.412  0.00  0.00    +0.000 OA
ENDROOT
BRANCH   4  10
ATOM     10  C   UNL     1       1.481   8.377  20.974  0.00  0.00    +0.000 C 
BRANCH  10  11
ATOM     11  C   UNL     1       2.036   7.481  19.899  0.00  0.00    +0.000 A 
ATOM     12  N   UNL     1       2.500   7.904  18.736  0.00  0.00    +0.000 NA
ATOM     13  N   UNL     1       2.985   6.828  18.035  0.00  0.00    +0.000 NA
ATOM     14  C   UNL     1       2.814   5.752  18.774  0.00  0.00    +0.000 A 
ATOM     15  N   UNL     1       2.201   6.117  19.949  0.00  0.00    +0.000 N 
ATOM     16  C   UNL     1       1.871   5.215  21.021  0.00  0.00    +0.000 C 
BRANCH  14  17
ATOM     17  C   UNL     1       3.242   4.345  18.365  0.00  0.00    +0.000 C 
ATOM     18  C   UNL     1       2.281   3.480  17.574  0.00  0.00    +0.000 C 
ATOM     19  C   UNL     1       3.461   4.078  16.889  0.00  0.00    +0.000 C 
ENDBRANCH  14  17
ENDBRANCH  10  11
ENDBRANCH   4  10
BRANCH   8  20
ATOM     20  O   UNL     1      -1.778  13.261  21.265  0.00  0.00    +0.000 OA
BRANCH  20  21
ATOM     21  C   UNL     1      -1.313  14.634  21.342  0.00  0.00    +0.000 C 
ATOM     22  C   UNL     1      -0.068  14.744  22.225  0.00  0.00    +0.000 C 
ATOM     23  C   UNL     1      -0.924  15.018  19.904  0.00  0.00    +0.000 C 
ATOM     24  C   UNL     1      -2.440  15.570  21.793  0.00  0.00    +0.000 C 
ENDBRANCH  20  21
ENDBRANCH   8  20
TORSDOF 5
ENDMDL
MODEL 4
REMARK VINA RESULT:      -5.4      2.385      4.335
REMARK  Name = 
REMARK  10 active torsions:
REMARK  status: ('A' for Active; 'I' for Inactive)
REMARK    1  A    between atoms: C_1  and  C_2
REMARK    2  A    between atoms: N_4  and  C_5
REMARK    3  A    between atoms: C_5  and  C_6
REMARK    4  A    between atoms: C_9  and  C_10
REMARK    5  A    between atoms: N_13  and  C_14
REMARK    6  A    between atoms: C_18  and  O_20
REMARK    7  A    between atoms: O_20  and  C_21
REMARK    8  A    between atoms: C_21  and  C_22
REMARK    9  A    between atoms: C_21  and  C_23
REMARK   10  A    between atoms: C_21  and  C_24
REMARK                            x       y       z     vdW  Elec       q    Type
REMARK                         _______ _______ _______ _____ _____    ______ ____
ROOT
ATOM      1  C   UNL     1       2.623   9.876  17.977  0.00  0.00    +0.000 C 
ATOM      2  C   UNL     1       1.452   8.905  18.137  0.00  0.00    +0.000 C 
ATOM      3  C   UNL     1       1.697   7.455  17.658  0.00  0.00    +0.000 C 
ATOM      4  N   UNL     1       2.611   6.614  18.458  0.00  0.00    +0.000 NA
ATOM      5  C   UNL     1       2.216   6.703  19.892  0.00  0.00    +0.000 C 
ATOM      6  C   UNL     1       1.846   8.104  20.451  0.00  0.00    +0.000 C 
ATOM      7  N   UNL     1       1.002   8.875  19.532  0.00  0.00    +0.000 N 
ATOM      8  C   UNL     1      -0.033   9.656  20.006  0.00  0.00    +0.000 C 
ATOM      9  O   UNL     1      -0.336   9.730  21.190  0.00  0.00    +0.000 OA
ENDROOT
BRANCH   4  10
ATOM     10  C   UNL     1       4.043   6.894  18.256  0.00  0.00    +0.000 C 
BRANCH  10  11
ATOM     11  C   UNL     1       4.636   6.380  16.971  0.00  0.00    +0.000 A 
ATOM     12  N   UNL     1       5.148   7.145  16.023  0.00  0.00    +0.000 NA
ATOM     13  N   UNL     1       5.656   6.342  15.032  0.00  0.00    +0.000 NA
ATOM     14  C   UNL     1       5.450   5.090  15.380  0.00  0.00    +0.000 A 
ATOM     15  N   UNL     1       4.792   5.069  16.586  0.00  0.00    +0.000 N 
ATOM     16  C   UNL     1       4.415   3.877  17.300  0.00  0.00    +0.000 C 
BRANCH  14  17
ATOM     17  C   UNL     1       5.887   3.880  14.557  0.00  0.00    +0.000 C 
ATOM     18  C   UNL     1       5.271   3.653  13.191  0.00  0.00    +0.000 C 
ATOM     19  C   UNL     1       6.674   4.142  13.289  0.00  0.00    +0.000 C 
ENDBRANCH  14  17
ENDBRANCH  10  11
ENDBRANCH   4  10
BRANCH   8  20
ATOM     20  O   UNL     1      -0.691  10.298  19.002  0.00  0.00    +0.000 OA
BRANCH  20  21
ATOM     21  C   UNL     1      -0.918  11.731  19.037  0.00  0.00    +0.000 C 
ATOM     22  C   UNL     1       0.400  12.493  19.199  0.00  0.00    +0.000 C 
ATOM     23  C   UNL     1      -1.518  12.085  17.664  0.00  0.00    +0.000 C 
ATOM     24  C   UNL     1      -1.947  12.099  20.111  0.00  0.00    +0.000 C 
ENDBRANCH  20  21
ENDBRANCH   8  20
TORSDOF 5
ENDMDL
MODEL 5
REMARK VINA RESULT:      -5.3      3.009      8.759
REMARK  Name = 
REMARK  10 active torsions:
REMARK  status: ('A' for Active; 'I' for Inactive)
REMARK    1  A    between atoms: C_1  and  C_2
REMARK    2  A    between atoms: N_4  and  C_5
REMARK    3  A    between atoms: C_5  and  C_6
REMARK    4  A    between atoms: C_9  and  C_10
REMARK    5  A    between atoms: N_13  and  C_14
REMARK    6  A    between atoms: C_18  and  O_20
REMARK    7  A    between atoms: O_20  and  C_21
REMARK    8  A    between atoms: C_21  and  C_22
REMARK    9  A    between atoms: C_21  and  C_23
REMARK   10  A    between atoms: C_21  and  C_24
REMARK                            x       y       z     vdW  Elec       q    Type
REMARK                         _______ _______ _______ _____ _____    ______ ____
ROOT
ATOM      1  C   UNL     1       1.505   9.281  22.044  0.00  0.00    +0.000 C 
ATOM      2  C   UNL     1       0.731   8.603  20.912  0.00  0.00    +0.000 C 
ATOM      3  C   UNL     1      -0.714   9.103  20.678  0.00  0.00    +0.000 C 
ATOM      4  N   UNL     1      -0.889  10.451  20.102  0.00  0.00    +0.000 NA
ATOM      5  C   UNL     1      -0.021  10.577  18.898  0.00  0.00    +0.000 C 
ATOM      6  C   UNL     1       1.422  10.012  18.990  0.00  0.00    +0.000 C 
ATOM      7  N   UNL     1       1.477   8.704  19.653  0.00  0.00    +0.000 N 
ATOM      8  C   UNL     1       2.325   7.713  19.199  0.00  0.00    +0.000 C 
ATOM      9  O   UNL     1       3.044   7.839  18.216  0.00  0.00    +0.000 OA
ENDROOT
BRANCH   4  10
ATOM     10  C   UNL     1      -0.689  11.559  21.053  0.00  0.00    +0.000 C 
BRANCH  10  11
ATOM     11  C   UNL     1      -1.854  11.866  21.956  0.00  0.00    +0.000 A 
ATOM     12  N   UNL     1      -1.957  11.461  23.210  0.00  0.00    +0.000 NA
ATOM     13  N   UNL     1      -3.110  11.978  23.748  0.00  0.00    +0.000 NA
ATOM     14  C   UNL     1      -3.705  12.695  22.819  0.00  0.00    +0.000 A 
ATOM     15  N   UNL     1      -2.957  12.635  21.668  0.00  0.00    +0.000 N 
ATOM     16  C   UNL     1      -3.276  13.315  20.440  0.00  0.00    +0.000 C 
BRANCH  14  17
ATOM     17  C   UNL     1      -5.011  13.461  23.021  0.00  0.00    +0.000 C 
ATOM     18  C   UNL     1      -6.309  12.852  22.531  0.00  0.00    +0.000 C 
ATOM     19  C   UNL     1      -6.021  12.882  23.992  0.00  0.00    +0.000 C 
ENDBRANCH  14  17
ENDBRANCH  10  11
ENDBRANCH   4  10
BRANCH   8  20
ATOM     20  O   UNL     1       2.236   6.581  19.948  0.00  0.00    +0.000 OA
BRANCH  20  21
ATOM     21  C   UNL     1       2.692   5.299  19.444  0.00  0.00    +0.000 C 
ATOM     22  C   UNL     1       4.220   5.239  19.394  0.00  0.00    +0.000 C 
ATOM     23  C   UNL     1       2.198   4.257  20.464  0.00  0.00    +0.000 C 
ATOM     24  C   UNL     1       2.045   4.979  18.092  0.00  0.00    +0.000 C 
ENDBRANCH  20  21
ENDBRANCH   8  20
TORSDOF 5
ENDMDL
MODEL 6
REMARK VINA RESULT:      -5.3      7.915     11.288
REMARK  Name = 
REMARK  10 active torsions:
REMARK  status: ('A' for Active; 'I' for Inactive)
REMARK    1  A    between atoms: C_1  and  C_2
REMARK    2  A    between atoms: N_4  and  C_5
REMARK    3  A    between atoms: C_5  and  C_6
REMARK    4  A    between atoms: C_9  and  C_10
REMARK    5  A    between atoms: N_13  and  C_14
REMARK    6  A    between atoms: C_18  and  O_20
REMARK    7  A    between atoms: O_20  and  C_21
REMARK    8  A    between atoms: C_21  and  C_22
REMARK    9  A    between atoms: C_21  and  C_23
REMARK   10  A    between atoms: C_21  and  C_24
REMARK                            x       y       z     vdW  Elec       q    Type
REMARK                         _______ _______ _______ _____ _____    ______ ____
ROOT
ATOM      1  C   UNL     1       7.603  13.278  17.575  0.00  0.00    +0.000 C 
ATOM      2  C   UNL     1       8.270  14.451  18.295  0.00  0.00    +0.000 C 
ATOM      3  C   UNL     1       7.604  15.834  18.110  0.00  0.00    +0.000 C 
ATOM      4  N   UNL     1       6.303  16.063  18.769  0.00  0.00    +0.000 NA
ATOM      5  C   UNL     1       6.405  15.645  20.195  0.00  0.00    +0.000 C 
ATOM      6  C   UNL     1       7.149  14.317  20.504  0.00  0.00    +0.000 C 
ATOM      7  N   UNL     1       8.386  14.169  19.730  0.00  0.00    +0.000 N 
ATOM      8  C   UNL     1       9.520  13.624  20.300  0.00  0.00    +0.000 C 
ATOM      9  O   UNL     1       9.583  13.271  21.471  0.00  0.00    +0.000 OA
ENDROOT
BRANCH   4  10
ATOM     10  C   UNL     1       5.150  15.447  18.089  0.00  0.00    +0.000 C 
BRANCH  10  11
ATOM     11  C   UNL     1       3.854  16.207  18.179  0.00  0.00    +0.000 A 
ATOM     12  N   UNL     1       3.493  17.174  17.354  0.00  0.00    +0.000 NA
ATOM     13  N   UNL     1       2.229  17.594  17.688  0.00  0.00    +0.000 NA
ATOM     14  C   UNL     1       1.825  16.880  18.718  0.00  0.00    +0.000 A 
ATOM     15  N   UNL     1       2.826  16.008  19.071  0.00  0.00    +0.000 N 
ATOM     16  C   UNL     1       2.743  15.046  20.139  0.00  0.00    +0.000 C 
BRANCH  14  17
ATOM     17  C   UNL     1       0.458  17.020  19.383  0.00  0.00    +0.000 C 
ATOM     18  C   UNL     1      -0.765  17.259  18.520  0.00  0.00    +0.000 C 
ATOM     19  C   UNL     1      -0.558  15.922  19.142  0.00  0.00    +0.000 C 
ENDBRANCH  14  17
ENDBRANCH  10  11
ENDBRANCH   4  10
BRANCH   8  20
ATOM     20  O   UNL     1      10.557  13.563  19.421  0.00  0.00    +0.000 OA
BRANCH  20  21
ATOM     21  C   UNL     1      11.090  12.294  18.962  0.00  0.00    +0.000 C 
ATOM     22  C   UNL     1      11.539  12.382  17.501  0.00  0.00    +0.000 C 
ATOM     23  C   UNL     1      12.330  12.030  19.835  0.00  0.00    +0.000 C 
ATOM     24  C   UNL     1      10.090  11.158  19.205  0.00  0.00    +0.000 C 
ENDBRANCH  20  21
ENDBRANCH   8  20
TORSDOF 5
ENDMDL
MODEL 7
REMARK VINA RESULT:      -5.2      2.245      2.874
REMARK  Name = 
REMARK  10 active torsions:
REMARK  status: ('A' for Active; 'I' for Inactive)
REMARK    1  A    between atoms: C_1  and  C_2
REMARK    2  A    between atoms: N_4  and  C_5
REMARK    3  A    between atoms: C_5  and  C_6
REMARK    4  A    between atoms: C_9  and  C_10
REMARK    5  A    between atoms: N_13  and  C_14
REMARK    6  A    between atoms: C_18  and  O_20
REMARK    7  A    between atoms: O_20  and  C_21
REMARK    8  A    between atoms: C_21  and  C_22
REMARK    9  A    between atoms: C_21  and  C_23
REMARK   10  A    between atoms: C_21  and  C_24
REMARK                            x       y       z     vdW  Elec       q    Type
REMARK                         _______ _______ _______ _____ _____    ______ ____
ROOT
ATOM      1  C   UNL     1      -2.042  11.949  20.979  0.00  0.00    +0.000 C 
ATOM      2  C   UNL     1      -2.295  12.467  19.562  0.00  0.00    +0.000 C 
ATOM      3  C   UNL     1      -1.044  12.671  18.676  0.00  0.00    +0.000 C 
ATOM      4  N   UNL     1      -0.338  11.466  18.197  0.00  0.00    +0.000 NA
ATOM      5  C   UNL     1      -1.333  10.528  17.605  0.00  0.00    +0.000 C 
ATOM      6  C   UNL     1      -2.673  10.329  18.364  0.00  0.00    +0.000 C 
ATOM      7  N   UNL     1      -3.236  11.589  18.860  0.00  0.00    +0.000 N 
ATOM      8  C   UNL     1      -4.596  11.825  18.815  0.00  0.00    +0.000 C 
ATOM      9  O   UNL     1      -5.403  11.037  18.339  0.00  0.00    +0.000 OA
ENDROOT
BRANCH   4  10
ATOM     10  C   UNL     1       0.515  10.811  19.204  0.00  0.00    +0.000 C 
BRANCH  10  11
ATOM     11  C   UNL     1       1.328   9.643  18.713  0.00  0.00    +0.000 A 
ATOM     12  N   UNL     1       1.933   9.591  17.539  0.00  0.00    +0.000 NA
ATOM     13  N   UNL     1       2.635   8.413  17.454  0.00  0.00    +0.000 NA
ATOM     14  C   UNL     1       2.453   7.752  18.578  0.00  0.00    +0.000 A 
ATOM     15  N   UNL     1       1.621   8.482  19.391  0.00  0.00    +0.000 N 
ATOM     16  C   UNL     1       1.212   8.093  20.715  0.00  0.00    +0.000 C 
BRANCH  14  17
ATOM     17  C   UNL     1       3.085   6.398  18.894  0.00  0.00    +0.000 C 
ATOM     18  C   UNL     1       2.370   5.131  18.469  0.00  0.00    +0.000 C 
ATOM     19  C   UNL     1       3.588   5.568  17.731  0.00  0.00    +0.000 C 
ENDBRANCH  14  17
ENDBRANCH  10  11
ENDBRANCH   4  10
BRANCH   8  20
ATOM     20  O   UNL     1      -4.921  13.043  19.328  0.00  0.00    +0.000 OA
BRANCH  20  21
ATOM     21  C   UNL     1      -6.095  13.228  20.162  0.00  0.00    +0.000 C 
ATOM     22  C   UNL     1      -6.187  12.136  21.231  0.00  0.00    +0.000 C 
ATOM     23  C   UNL     1      -5.889  14.581  20.866  0.00  0.00    +0.000 C 
ATOM     24  C   UNL     1      -7.365  13.327  19.309  0.00  0.00    +0.000 C 
ENDBRANCH  20  21
ENDBRANCH   8  20
TORSDOF 5
ENDMDL
MODEL 8
REMARK VINA RESULT:      -5.2      5.842      8.018
REMARK  Name = 
REMARK  10 active torsions:
REMARK  status: ('A' for Active; 'I' for Inactive)
REMARK    1  A    between atoms: C_1  and  C_2
REMARK    2  A    between atoms: N_4  and  C_5
REMARK    3  A    between atoms: C_5  and  C_6
REMARK    4  A    between atoms: C_9  and  C_10
REMARK    5  A    between atoms: N_13  and  C_14
REMARK    6  A    between atoms: C_18  and  O_20
REMARK    7  A    between atoms: O_20  and  C_21
REMARK    8  A    between atoms: C_21  and  C_22
REMARK    9  A    between atoms: C_21  and  C_23
REMARK   10  A    between atoms: C_21  and  C_24
REMARK                            x       y       z     vdW  Elec       q    Type
REMARK                         _______ _______ _______ _____ _____    ______ ____
ROOT
ATOM      1  C   UNL     1       4.828   3.592  18.578  0.00  0.00    +0.000 C 
ATOM      2  C   UNL     1       5.032   4.984  19.178  0.00  0.00    +0.000 C 
ATOM      3  C   UNL     1       6.492   5.488  19.253  0.00  0.00    +0.000 C 
ATOM      4  N   UNL     1       7.160   5.847  17.985  0.00  0.00    +0.000 NA
ATOM      5  C   UNL     1       6.265   6.748  17.207  0.00  0.00    +0.000 C 
ATOM      6  C   UNL     1       4.755   6.391  17.154  0.00  0.00    +0.000 C 
ATOM      7  N   UNL     1       4.225   5.974  18.457  0.00  0.00    +0.000 N 
ATOM      8  C   UNL     1       2.965   6.362  18.868  0.00  0.00    +0.000 C 
ATOM      9  O   UNL     1       2.235   7.091  18.210  0.00  0.00    +0.000 OA
ENDROOT
BRANCH   4  10
ATOM     10  C   UNL     1       7.625   4.699  17.188  0.00  0.00    +0.000 C 
BRANCH  10  11
ATOM     11  C   UNL     1       7.296   4.745  15.719  0.00  0.00    +0.000 A 
ATOM     12  N   UNL     1       7.921   5.502  14.834  0.00  0.00    +0.000 NA
ATOM     13  N   UNL     1       7.408   5.242  13.587  0.00  0.00    +0.000 NA
ATOM     14  C   UNL     1       6.470   4.327  13.719  0.00  0.00    +0.000 A 
ATOM     15  N   UNL     1       6.354   4.001  15.048  0.00  0.00    +0.000 N 
ATOM     16  C   UNL     1       5.447   3.017  15.580  0.00  0.00    +0.000 C 
BRANCH  14  17
ATOM     17  C   UNL     1       5.666   3.742  12.560  0.00  0.00    +0.000 C 
ATOM     18  C   UNL     1       6.340   3.541  11.218  0.00  0.00    +0.000 C 
ATOM     19  C   UNL     1       6.041   2.358  12.071  0.00  0.00    +0.000 C 
ENDBRANCH  14  17
ENDBRANCH  10  11
ENDBRANCH   4  10
BRANCH   8  20
ATOM     20  O   UNL     1       2.653   5.868  20.097  0.00  0.00    +0.000 OA
BRANCH  20  21
ATOM     21  C   UNL     1       1.619   4.866  20.274  0.00  0.00    +0.000 C 
ATOM     22  C   UNL     1       1.455   4.016  19.011  0.00  0.00    +0.000 C 
ATOM     23  C   UNL     1       2.118   3.956  21.410  0.00  0.00    +0.000 C 
ATOM     24  C   UNL     1       0.303   5.509  20.726  0.00  0.00    +0.000 C 
ENDBRANCH  20  21
ENDBRANCH   8  20
TORSDOF 5
ENDMDL
MODEL 9
REMARK VINA RESULT:      -5.2      1.468      2.353
REMARK  Name = 
REMARK  10 active torsions:
REMARK  status: ('A' for Active; 'I' for Inactive)
REMARK    1  A    between atoms: C_1  and  C_2
REMARK    2  A    between atoms: N_4  and  C_5
REMARK    3  A    between atoms: C_5  and  C_6
REMARK    4  A    between atoms: C_9  and  C_10
REMARK    5  A    between atoms: N_13  and  C_14
REMARK    6  A    between atoms: C_18  and  O_20
REMARK    7  A    between atoms: O_20  and  C_21
REMARK    8  A    between atoms: C_21  and  C_22
REMARK    9  A    between atoms: C_21  and  C_23
REMARK   10  A    between atoms: C_21  and  C_24
REMARK                            x       y       z     vdW  Elec       q    Type
REMARK                         _______ _______ _______ _____ _____    ______ ____
ROOT
ATOM      1  C   UNL     1       1.230  11.739  20.652  0.00  0.00    +0.000 C 
ATOM      2  C   UNL     1      -0.226  11.272  20.624  0.00  0.00    +0.000 C 
ATOM      3  C   UNL     1      -0.468   9.819  20.154  0.00  0.00    +0.000 C 
ATOM      4  N   UNL     1      -0.050   8.727  21.057  0.00  0.00    +0.000 NA
ATOM      5  C   UNL     1      -0.579   9.001  22.422  0.00  0.00    +0.000 C 
ATOM      6  C   UNL     1      -0.481  10.457  22.953  0.00  0.00    +0.000 C 
ATOM      7  N   UNL     1      -0.845  11.454  21.941  0.00  0.00    +0.000 N 
ATOM      8  C   UNL     1      -1.575  12.576  22.281  0.00  0.00    +0.000 C 
ATOM      9  O   UNL     1      -1.990  12.794  23.412  0.00  0.00    +0.000 OA
ENDROOT
BRANCH   4  10
ATOM     10  C   UNL     1       1.398   8.455  21.065  0.00  0.00    +0.000 C 
BRANCH  10  11
ATOM     11  C   UNL     1       1.939   7.754  19.847  0.00  0.00    +0.000 A 
ATOM     12  N   UNL     1       2.285   8.359  18.724  0.00  0.00    +0.000 NA
ATOM     13  N   UNL     1       2.797   7.426  17.857  0.00  0.00    +0.000 NA
ATOM     14  C   UNL     1       2.761   6.254  18.456  0.00  0.00    +0.000 A 
ATOM     15  N   UNL     1       2.210   6.413  19.704  0.00  0.00    +0.000 N 
ATOM     16  C   UNL     1       2.028   5.357  20.666  0.00  0.00    +0.000 C 
BRANCH  14  17
ATOM     17  C   UNL     1       3.263   4.952  17.837  0.00  0.00    +0.000 C 
ATOM     18  C   UNL     1       4.451   4.990  16.895  0.00  0.00    +0.000 C 
ATOM     19  C   UNL     1       4.625   4.446  18.271  0.00  0.00    +0.000 C 
ENDBRANCH  14  17
ENDBRANCH  10  11
ENDBRANCH   4  10
BRANCH   8  20
ATOM     20  O   UNL     1      -1.804  13.382  21.209  0.00  0.00    +0.000 OA
BRANCH  20  21
ATOM     21  C   UNL     1      -1.191  14.693  21.099  0.00  0.00    +0.000 C 
ATOM     22  C   UNL     1      -0.674  14.941  19.680  0.00  0.00    +0.000 C 
ATOM     23  C   UNL     1      -2.319  15.700  21.387  0.00  0.00    +0.000 C 
ATOM     24  C   UNL     1      -0.105  14.883  22.163  0.00  0.00    +0.000 C 
ENDBRANCH  20  21
ENDBRANCH   8  20
TORSDOF 5
ENDMDL
