MODEL 1
REMARK VINA RESULT:      -7.8      0.000      0.000
REMARK  Name = 
REMARK  12 active torsions:
REMARK  status: ('A' for Active; 'I' for Inactive)
REMARK    1  A    between atoms: C_2  and  C_32
REMARK    2  A    between atoms: N_3  and  C_4
REMARK    3  A    between atoms: C_4  and  C_5
REMARK    4  A    between atoms: C_4  and  C_25
REMARK    5  A    between atoms: C_5  and  O_6
REMARK    6  A    between atoms: O_6  and  C_7
REMARK    7  A    between atoms: C_7  and  C_9
REMARK    8  A    between atoms: C_9  and  C_10
REMARK    9  A    between atoms: C_9  and  N_17
REMARK   10  A    between atoms: C_10  and  C_11
REMARK   11  A    between atoms: C_18  and  C_20
REMARK   12  A    between atoms: C_25  and  C_26
REMARK                            x       y       z     vdW  Elec       q    Type
REMARK                         _______ _______ _______ _____ _____    ______ ____
ROOT
ATOM      1  O   UNL     1       4.790   6.722  18.071  0.00  0.00    +0.000 OA
ENDROOT
BRANCH   1   2
ATOM      2  C   UNL     1       5.833   6.655  17.195  0.00  0.00    +0.000 C 
ATOM      3  O   UNL     1       6.326   7.606  16.614  0.00  0.00    +0.000 OA
BRANCH   2   4
ATOM      4  C   UNL     1       6.374   5.212  17.132  0.00  0.00    +0.000 C 
BRANCH   4   5
ATOM      5  N   UNL     1       5.999   4.628  15.854  0.00  0.00    +0.000 N 
ATOM      6  C   UNL     1       6.796   4.742  14.739  0.00  0.00    +0.000 C 
ATOM      7  O   UNL     1       7.856   5.364  14.759  0.00  0.00    +0.000 OA
ATOM      8  H   UNL     1       5.131   4.111  15.765  0.00  0.00    +0.000 HD
BRANCH   6   9
ATOM      9  C   UNL     1       6.280   4.075  13.567  0.00  0.00    +0.000 A 
ATOM     10  C   UNL     1       4.988   3.725  13.227  0.00  0.00    +0.000 A 
ATOM     11  C   UNL     1       5.058   3.087  11.968  0.00  0.00    +0.000 A 
ATOM     12  C   UNL     1       6.385   3.089  11.611  0.00  0.00    +0.000 A 
ATOM     13  O   UNL     1       7.138   3.683  12.572  0.00  0.00    +0.000 OA
ENDBRANCH   6   9
ENDBRANCH   4   5
BRANCH   4  14
ATOM     14  C   UNL     1       5.991   4.379  18.377  0.00  0.00    +0.000 C 
BRANCH  14  15
ATOM     15  C   UNL     1       4.793   3.488  18.174  0.00  0.00    +0.000 A 
ATOM     16  C   UNL     1       4.544   2.409  19.033  0.00  0.00    +0.000 A 
ATOM     17  C   UNL     1       3.470   1.551  18.790  0.00  0.00    +0.000 A 
ATOM     18  C   UNL     1       2.643   1.763  17.688  0.00  0.00    +0.000 A 
ATOM     19  C   UNL     1       2.862   2.855  16.852  0.00  0.00    +0.000 A 
ATOM     20  C   UNL     1       3.924   3.721  17.101  0.00  0.00    +0.000 A 
ENDBRANCH  14  15
ENDBRANCH   4  14
ENDBRANCH   2   4
ENDBRANCH   1   2
BRANCH   1  21
ATOM     21  C   UNL     1       3.651   7.506  17.697  0.00  0.00    +0.000 C 
BRANCH  21  22
ATOM     22  C   UNL     1       2.549   7.260  18.760  0.00  0.00    +0.000 C 
BRANCH  22  25
ATOM     23  O   UNL     1       1.285   8.318  21.098  0.00  0.00    +0.000 OA
ATOM     24  C   UNL     1       1.179   8.923  20.039  0.00  0.00    +0.000 C 
ATOM     25  N   UNL     1       1.692   8.458  18.845  0.00  0.00    +0.000 N 
ATOM     26  H   UNL     1       1.807   9.138  18.102  0.00  0.00    +0.000 HD
BRANCH  24  27
ATOM     27  C   UNL     1       0.521  10.263  19.994  0.00  0.00    +0.000 A 
ATOM     28  C   UNL     1       0.562  10.985  18.793  0.00  0.00    +0.000 A 
ATOM     29  C   UNL     1      -0.073  12.225  18.694  0.00  0.00    +0.000 A 
ATOM     30  C   UNL     1      -0.744  12.754  19.796  0.00  0.00    +0.000 A 
ATOM     31  C   UNL     1      -0.768  12.054  21.002  0.00  0.00    +0.000 A 
ATOM     32  C   UNL     1      -0.133  10.813  21.106  0.00  0.00    +0.000 A 
ENDBRANCH  24  27
ENDBRANCH  22  25
BRANCH  22  33
ATOM     33  C   UNL     1       1.736   5.967  18.463  0.00  0.00    +0.000 C 
BRANCH  33  34
ATOM     34  C   UNL     1       1.676   5.006  19.635  0.00  0.00    +0.000 A 
ATOM     35  C   UNL     1       2.603   5.093  20.686  0.00  0.00    +0.000 A 
ATOM     36  C   UNL     1       2.679   4.092  21.652  0.00  0.00    +0.000 A 
ATOM     37  C   UNL     1       1.788   3.025  21.620  0.00  0.00    +0.000 A 
ATOM     38  C   UNL     1       0.797   2.979  20.644  0.00  0.00    +0.000 A 
ATOM     39  C   UNL     1       0.731   3.968  19.661  0.00  0.00    +0.000 A 
ENDBRANCH  33  34
ENDBRANCH  22  33
ENDBRANCH  21  22
ENDBRANCH   1  21
TORSDOF 12
ENDMDL
MODEL 2
REMARK VINA RESULT:      -7.7      1.020      1.492
REMARK  Name = 
REMARK  12 active torsions:
REMARK  status: ('A' for Active; 'I' for Inactive)
REMARK    1  A    between atoms: C_2  and  C_32
REMARK    2  A    between atoms: N_3  and  C_4
REMARK    3  A    between atoms: C_4  and  C_5
REMARK    4  A    between atoms: C_4  and  C_25
REMARK    5  A    between atoms: C_5  and  O_6
REMARK    6  A    between atoms: O_6  and  C_7
REMARK    7  A    between atoms: C_7  and  C_9
REMARK    8  A    between atoms: C_9  and  C_10
REMARK    9  A    between atoms: C_9  and  N_17
REMARK   10  A    between atoms: C_10  and  C_11
REMARK   11  A    between atoms: C_18  and  C_20
REMARK   12  A    between atoms: C_25  and  C_26
REMARK                            x       y       z     vdW  Elec       q    Type
REMARK                         _______ _______ _______ _____ _____    ______ ____
ROOT
ATOM      1  O   UNL     1       4.343   6.736  17.030  0.00  0.00    +0.000 OA
ENDROOT
BRANCH   1   2
ATOM      2  C   UNL     1       5.700   6.863  16.998  0.00  0.00    +0.000 C 
ATOM      3  O   UNL     1       6.311   7.916  17.075  0.00  0.00    +0.000 OA
BRANCH   2   4
ATOM      4  C   UNL     1       6.358   5.469  16.966  0.00  0.00    +0.000 C 
BRANCH   4   5
ATOM      5  N   UNL     1       5.962   4.794  15.739  0.00  0.00    +0.000 N 
ATOM      6  C   UNL     1       6.741   4.824  14.606  0.00  0.00    +0.000 C 
ATOM      7  O   UNL     1       7.802   5.444  14.563  0.00  0.00    +0.000 OA
ATOM      8  H   UNL     1       5.092   4.273  15.702  0.00  0.00    +0.000 HD
BRANCH   6   9
ATOM      9  C   UNL     1       6.205   4.076  13.494  0.00  0.00    +0.000 A 
ATOM     10  C   UNL     1       6.845   3.379  12.487  0.00  0.00    +0.000 A 
ATOM     11  C   UNL     1       5.833   2.840  11.660  0.00  0.00    +0.000 A 
ATOM     12  C   UNL     1       4.638   3.233  12.213  0.00  0.00    +0.000 A 
ATOM     13  O   UNL     1       4.849   3.983  13.324  0.00  0.00    +0.000 OA
ENDBRANCH   6   9
ENDBRANCH   4   5
BRANCH   4  14
ATOM     14  C   UNL     1       6.119   4.668  18.266  0.00  0.00    +0.000 C 
BRANCH  14  15
ATOM     15  C   UNL     1       5.007   3.655  18.168  0.00  0.00    +0.000 A 
ATOM     16  C   UNL     1       4.804   2.708  19.182  0.00  0.00    +0.000 A 
ATOM     17  C   UNL     1       3.817   1.732  19.043  0.00  0.00    +0.000 A 
ATOM     18  C   UNL     1       3.030   1.694  17.893  0.00  0.00    +0.000 A 
ATOM     19  C   UNL     1       3.201   2.654  16.899  0.00  0.00    +0.000 A 
ATOM     20  C   UNL     1       4.176   3.638  17.042  0.00  0.00    +0.000 A 
ENDBRANCH  14  15
ENDBRANCH   4  14
ENDBRANCH   2   4
ENDBRANCH   1   2
BRANCH   1  21
ATOM     21  C   UNL     1       3.602   7.662  17.832  0.00  0.00    +0.000 C 
BRANCH  21  22
ATOM     22  C   UNL     1       3.007   6.871  19.026  0.00  0.00    +0.000 C 
BRANCH  22  25
ATOM     23  O   UNL     1       1.195   8.975  18.340  0.00  0.00    +0.000 OA
ATOM     24  C   UNL     1       1.440   8.762  19.520  0.00  0.00    +0.000 C 
ATOM     25  N   UNL     1       2.352   7.818  19.948  0.00  0.00    +0.000 N 
ATOM     26  H   UNL     1       2.279   7.517  20.912  0.00  0.00    +0.000 HD
BRANCH  24  27
ATOM     27  C   UNL     1       0.699   9.493  20.592  0.00  0.00    +0.000 A 
ATOM     28  C   UNL     1       0.299   8.778  21.730  0.00  0.00    +0.000 A 
ATOM     29  C   UNL     1      -0.362   9.429  22.773  0.00  0.00    +0.000 A 
ATOM     30  C   UNL     1      -0.634  10.794  22.682  0.00  0.00    +0.000 A 
ATOM     31  C   UNL     1      -0.262  11.506  21.543  0.00  0.00    +0.000 A 
ATOM     32  C   UNL     1       0.398  10.858  20.495  0.00  0.00    +0.000 A 
ENDBRANCH  24  27
ENDBRANCH  22  25
BRANCH  22  33
ATOM     33  C   UNL     1       2.046   5.743  18.550  0.00  0.00    +0.000 C 
BRANCH  33  34
ATOM     34  C   UNL     1       1.717   4.731  19.631  0.00  0.00    +0.000 A 
ATOM     35  C   UNL     1       2.429   4.711  20.840  0.00  0.00    +0.000 A 
ATOM     36  C   UNL     1       2.271   3.662  21.743  0.00  0.00    +0.000 A 
ATOM     37  C   UNL     1       1.351   2.652  21.481  0.00  0.00    +0.000 A 
ATOM     38  C   UNL     1       0.564   2.712  20.335  0.00  0.00    +0.000 A 
ATOM     39  C   UNL     1       0.734   3.750  19.417  0.00  0.00    +0.000 A 
ENDBRANCH  33  34
ENDBRANCH  22  33
ENDBRANCH  21  22
ENDBRANCH   1  21
TORSDOF 12
ENDMDL
MODEL 3
REMARK VINA RESULT:      -7.7      0.902      1.314
REMARK  Name = 
REMARK  12 active torsions:
REMARK  status: ('A' for Active; 'I' for Inactive)
REMARK    1  A    between atoms: C_2  and  C_32
REMARK    2  A    between atoms: N_3  and  C_4
REMARK    3  A    between atoms: C_4  and  C_5
REMARK    4  A    between atoms: C_4  and  C_25
REMARK    5  A    between atoms: C_5  and  O_6
REMARK    6  A    between atoms: O_6  and  C_7
REMARK    7  A    between atoms: C_7  and  C_9
REMARK    8  A    between atoms: C_9  and  C_10
REMARK    9  A    between atoms: C_9  and  N_17
REMARK   10  A    between atoms: C_10  and  C_11
REMARK   11  A    between atoms: C_18  and  C_20
REMARK   12  A    between atoms: C_25  and  C_26
REMARK                            x       y       z     vdW  Elec       q    Type
REMARK                         _______ _______ _______ _____ _____    ______ ____
ROOT
ATOM      1  O   UNL     1       4.920   6.887  17.907  0.00  0.00    +0.000 OA
ENDROOT
BRANCH   1   2
ATOM      2  C   UNL     1       6.086   6.796  17.206  0.00  0.00    +0.000 C 
ATOM      3  O   UNL     1       6.711   7.740  16.753  0.00  0.00    +0.000 OA
BRANCH   2   4
ATOM      4  C   UNL     1       6.562   5.330  17.167  0.00  0.00    +0.000 C 
BRANCH   4   5
ATOM      5  N   UNL     1       6.128   4.731  15.913  0.00  0.00    +0.000 N 
ATOM      6  C   UNL     1       6.868   4.840  14.759  0.00  0.00    +0.000 C 
ATOM      7  O   UNL     1       7.924   5.469  14.721  0.00  0.00    +0.000 OA
ATOM      8  H   UNL     1       5.260   4.208  15.872  0.00  0.00    +0.000 HD
BRANCH   6   9
ATOM      9  C   UNL     1       6.300   4.159  13.621  0.00  0.00    +0.000 A 
ATOM     10  C   UNL     1       6.899   3.655  12.482  0.00  0.00    +0.000 A 
ATOM     11  C   UNL     1       5.867   3.096  11.694  0.00  0.00    +0.000 A 
ATOM     12  C   UNL     1       4.702   3.285  12.398  0.00  0.00    +0.000 A 
ATOM     13  O   UNL     1       4.949   3.930  13.567  0.00  0.00    +0.000 OA
ENDBRANCH   6   9
ENDBRANCH   4   5
BRANCH   4  14
ATOM     14  C   UNL     1       6.177   4.545  18.441  0.00  0.00    +0.000 C 
BRANCH  14  15
ATOM     15  C   UNL     1       5.038   3.576  18.245  0.00  0.00    +0.000 A 
ATOM     16  C   UNL     1       4.782   2.567  19.183  0.00  0.00    +0.000 A 
ATOM     17  C   UNL     1       3.769   1.635  18.952  0.00  0.00    +0.000 A 
ATOM     18  C   UNL     1       3.012   1.702  17.784  0.00  0.00    +0.000 A 
ATOM     19  C   UNL     1       3.236   2.725  16.865  0.00  0.00    +0.000 A 
ATOM     20  C   UNL     1       4.236   3.665  17.102  0.00  0.00    +0.000 A 
ENDBRANCH  14  15
ENDBRANCH   4  14
ENDBRANCH   2   4
ENDBRANCH   1   2
BRANCH   1  21
ATOM     21  C   UNL     1       3.791   7.479  17.254  0.00  0.00    +0.000 C 
BRANCH  21  22
ATOM     22  C   UNL     1       2.586   7.376  18.226  0.00  0.00    +0.000 C 
BRANCH  22  25
ATOM     23  O   UNL     1       1.313   8.818  20.342  0.00  0.00    +0.000 OA
ATOM     24  C   UNL     1       1.248   9.257  19.201  0.00  0.00    +0.000 C 
ATOM     25  N   UNL     1       1.769   8.599  18.105  0.00  0.00    +0.000 N 
ATOM     26  H   UNL     1       1.923   9.152  17.271  0.00  0.00    +0.000 HD
BRANCH  24  27
ATOM     27  C   UNL     1       0.638  10.594  18.936  0.00  0.00    +0.000 A 
ATOM     28  C   UNL     1      -0.666  10.640  18.424  0.00  0.00    +0.000 A 
ATOM     29  C   UNL     1      -1.291  11.868  18.197  0.00  0.00    +0.000 A 
ATOM     30  C   UNL     1      -0.613  13.056  18.471  0.00  0.00    +0.000 A 
ATOM     31  C   UNL     1       0.694  13.018  18.956  0.00  0.00    +0.000 A 
ATOM     32  C   UNL     1       1.323  11.791  19.184  0.00  0.00    +0.000 A 
ENDBRANCH  24  27
ENDBRANCH  22  25
BRANCH  22  33
ATOM     33  C   UNL     1       1.758   6.081  17.984  0.00  0.00    +0.000 C 
BRANCH  33  34
ATOM     34  C   UNL     1       1.803   5.107  19.146  0.00  0.00    +0.000 A 
ATOM     35  C   UNL     1       0.947   3.997  19.190  0.00  0.00    +0.000 A 
ATOM     36  C   UNL     1       0.842   3.223  20.344  0.00  0.00    +0.000 A 
ATOM     37  C   UNL     1       1.640   3.508  21.447  0.00  0.00    +0.000 A 
ATOM     38  C   UNL     1       2.568   4.543  21.382  0.00  0.00    +0.000 A 
ATOM     39  C   UNL     1       2.660   5.335  20.235  0.00  0.00    +0.000 A 
ENDBRANCH  33  34
ENDBRANCH  22  33
ENDBRANCH  21  22
ENDBRANCH   1  21
TORSDOF 12
ENDMDL
MODEL 4
REMARK VINA RESULT:      -7.7      2.882      6.338
REMARK  Name = 
REMARK  12 active torsions:
REMARK  status: ('A' for Active; 'I' for Inactive)
REMARK    1  A    between atoms: C_2  and  C_32
REMARK    2  A    between atoms: N_3  and  C_4
REMARK    3  A    between atoms: C_4  and  C_5
REMARK    4  A    between atoms: C_4  and  C_25
REMARK    5  A    between atoms: C_5  and  O_6
REMARK    6  A    between atoms: O_6  and  C_7
REMARK    7  A    between atoms: C_7  and  C_9
REMARK    8  A    between atoms: C_9  and  C_10
REMARK    9  A    between atoms: C_9  and  N_17
REMARK   10  A    between atoms: C_10  and  C_11
REMARK   11  A    between atoms: C_18  and  C_20
REMARK   12  A    between atoms: C_25  and  C_26
REMARK                            x       y       z     vdW  Elec       q    Type
REMARK                         _______ _______ _______ _____ _____    ______ ____
ROOT
ATOM      1  O   UNL     1       1.287   8.485  18.762  0.00  0.00    +0.000 OA
ENDROOT
BRANCH   1   2
ATOM      2  C   UNL     1       2.351   8.678  17.933  0.00  0.00    +0.000 C 
ATOM      3  O   UNL     1       2.731   9.758  17.513  0.00  0.00    +0.000 OA
BRANCH   2   4
ATOM      4  C   UNL     1       3.077   7.339  17.689  0.00  0.00    +0.000 C 
BRANCH   4   5
ATOM      5  N   UNL     1       2.713   6.411  18.749  0.00  0.00    +0.000 N 
ATOM      6  C   UNL     1       2.257   5.142  18.481  0.00  0.00    +0.000 C 
ATOM      7  O   UNL     1       2.111   4.733  17.331  0.00  0.00    +0.000 OA
ATOM      8  H   UNL     1       2.800   6.689  19.721  0.00  0.00    +0.000 HD
BRANCH   6   9
ATOM      9  C   UNL     1       1.972   4.351  19.655  0.00  0.00    +0.000 A 
ATOM     10  C   UNL     1       1.031   3.362  19.866  0.00  0.00    +0.000 A 
ATOM     11  C   UNL     1       1.190   2.930  21.203  0.00  0.00    +0.000 A 
ATOM     12  C   UNL     1       2.219   3.675  21.726  0.00  0.00    +0.000 A 
ATOM     13  O   UNL     1       2.702   4.541  20.799  0.00  0.00    +0.000 OA
ENDBRANCH   6   9
ENDBRANCH   4   5
BRANCH   4  14
ATOM     14  C   UNL     1       4.595   7.519  17.462  0.00  0.00    +0.000 C 
BRANCH  14  15
ATOM     15  C   UNL     1       5.272   6.317  16.854  0.00  0.00    +0.000 A 
ATOM     16  C   UNL     1       6.027   5.440  17.644  0.00  0.00    +0.000 A 
ATOM     17  C   UNL     1       6.706   4.372  17.054  0.00  0.00    +0.000 A 
ATOM     18  C   UNL     1       6.637   4.177  15.676  0.00  0.00    +0.000 A 
ATOM     19  C   UNL     1       5.858   5.023  14.890  0.00  0.00    +0.000 A 
ATOM     20  C   UNL     1       5.168   6.080  15.478  0.00  0.00    +0.000 A 
ENDBRANCH  14  15
ENDBRANCH   4  14
ENDBRANCH   2   4
ENDBRANCH   1   2
BRANCH   1  21
ATOM     21  C   UNL     1       0.944   9.541  19.667  0.00  0.00    +0.000 C 
BRANCH  21  22
ATOM     22  C   UNL     1      -0.075  10.460  18.944  0.00  0.00    +0.000 C 
BRANCH  22  25
ATOM     23  O   UNL     1       0.321  12.844  20.474  0.00  0.00    +0.000 OA
ATOM     24  C   UNL     1       0.808  12.768  19.354  0.00  0.00    +0.000 C 
ATOM     25  N   UNL     1       0.615  11.691  18.513  0.00  0.00    +0.000 N 
ATOM     26  H   UNL     1       1.271  11.585  17.748  0.00  0.00    +0.000 HD
BRANCH  24  27
ATOM     27  C   UNL     1       1.714  13.843  18.847  0.00  0.00    +0.000 A 
ATOM     28  C   UNL     1       1.248  15.165  18.858  0.00  0.00    +0.000 A 
ATOM     29  C   UNL     1       2.074  16.206  18.430  0.00  0.00    +0.000 A 
ATOM     30  C   UNL     1       3.365  15.931  17.980  0.00  0.00    +0.000 A 
ATOM     31  C   UNL     1       3.826  14.616  17.942  0.00  0.00    +0.000 A 
ATOM     32  C   UNL     1       3.003  13.571  18.368  0.00  0.00    +0.000 A 
ENDBRANCH  24  27
ENDBRANCH  22  25
BRANCH  22  33
ATOM     33  C   UNL     1      -0.778   9.728  17.764  0.00  0.00    +0.000 C 
BRANCH  33  34
ATOM     34  C   UNL     1      -2.074  10.386  17.330  0.00  0.00    +0.000 A 
ATOM     35  C   UNL     1      -2.851  11.119  18.240  0.00  0.00    +0.000 A 
ATOM     36  C   UNL     1      -4.133  11.546  17.900  0.00  0.00    +0.000 A 
ATOM     37  C   UNL     1      -4.631  11.305  16.624  0.00  0.00    +0.000 A 
ATOM     38  C   UNL     1      -3.832  10.670  15.677  0.00  0.00    +0.000 A 
ATOM     39  C   UNL     1      -2.555  10.221  16.021  0.00  0.00    +0.000 A 
ENDBRANCH  33  34
ENDBRANCH  22  33
ENDBRANCH  21  22
ENDBRANCH   1  21
TORSDOF 12
ENDMDL
MODEL 5
REMARK VINA RESULT:      -7.7      1.609      4.229
REMARK  Name = 
REMARK  12 active torsions:
REMARK  status: ('A' for Active; 'I' for Inactive)
REMARK    1  A    between atoms: C_2  and  C_32
REMARK    2  A    between atoms: N_3  and  C_4
REMARK    3  A    between atoms: C_4  and  C_5
REMARK    4  A    between atoms: C_4  and  C_25
REMARK    5  A    between atoms: C_5  and  O_6
REMARK    6  A    between atoms: O_6  and  C_7
REMARK    7  A    between atoms: C_7  and  C_9
REMARK    8  A    between atoms: C_9  and  C_10
REMARK    9  A    between atoms: C_9  and  N_17
REMARK   10  A    between atoms: C_10  and  C_11
REMARK   11  A    between atoms: C_18  and  C_20
REMARK   12  A    between atoms: C_25  and  C_26
REMARK                            x       y       z     vdW  Elec       q    Type
REMARK                         _______ _______ _______ _____ _____    ______ ____
ROOT
ATOM      1  O   UNL     1       3.876   6.996  17.070  0.00  0.00    +0.000 OA
ENDROOT
BRANCH   1   2
ATOM      2  C   UNL     1       5.228   6.851  16.978  0.00  0.00    +0.000 C 
ATOM      3  O   UNL     1       6.054   7.640  17.405  0.00  0.00    +0.000 OA
BRANCH   2   4
ATOM      4  C   UNL     1       5.567   5.482  16.351  0.00  0.00    +0.000 C 
BRANCH   4   5
ATOM      5  N   UNL     1       5.413   4.452  17.367  0.00  0.00    +0.000 N 
ATOM      6  C   UNL     1       4.332   3.603  17.385  0.00  0.00    +0.000 C 
ATOM      7  O   UNL     1       3.426   3.685  16.558  0.00  0.00    +0.000 OA
ATOM      8  H   UNL     1       6.119   4.337  18.087  0.00  0.00    +0.000 HD
BRANCH   6   9
ATOM      9  C   UNL     1       4.360   2.625  18.447  0.00  0.00    +0.000 A 
ATOM     10  C   UNL     1       3.828   1.352  18.512  0.00  0.00    +0.000 A 
ATOM     11  C   UNL     1       4.148   0.843  19.791  0.00  0.00    +0.000 A 
ATOM     12  C   UNL     1       4.860   1.830  20.428  0.00  0.00    +0.000 A 
ATOM     13  O   UNL     1       4.995   2.916  19.626  0.00  0.00    +0.000 OA
ENDBRANCH   6   9
ENDBRANCH   4   5
BRANCH   4  14
ATOM     14  C   UNL     1       6.926   5.486  15.615  0.00  0.00    +0.000 C 
BRANCH  14  15
ATOM     15  C   UNL     1       6.884   4.857  14.246  0.00  0.00    +0.000 A 
ATOM     16  C   UNL     1       7.743   5.291  13.227  0.00  0.00    +0.000 A 
ATOM     17  C   UNL     1       7.643   4.748  11.945  0.00  0.00    +0.000 A 
ATOM     18  C   UNL     1       6.685   3.773  11.673  0.00  0.00    +0.000 A 
ATOM     19  C   UNL     1       5.854   3.310  12.690  0.00  0.00    +0.000 A 
ATOM     20  C   UNL     1       5.962   3.840  13.973  0.00  0.00    +0.000 A 
ENDBRANCH  14  15
ENDBRANCH   4  14
ENDBRANCH   2   4
ENDBRANCH   1   2
BRANCH   1  21
ATOM     21  C   UNL     1       3.367   7.906  18.052  0.00  0.00    +0.000 C 
BRANCH  21  22
ATOM     22  C   UNL     1       2.763   7.057  19.202  0.00  0.00    +0.000 C 
BRANCH  22  25
ATOM     23  O   UNL     1       1.038   9.252  18.578  0.00  0.00    +0.000 OA
ATOM     24  C   UNL     1       1.219   8.952  19.752  0.00  0.00    +0.000 C 
ATOM     25  N   UNL     1       2.086   7.957  20.155  0.00  0.00    +0.000 N 
ATOM     26  H   UNL     1       1.959   7.593  21.092  0.00  0.00    +0.000 HD
BRANCH  24  27
ATOM     27  C   UNL     1       0.445   9.629  20.835  0.00  0.00    +0.000 A 
ATOM     28  C   UNL     1       0.388   9.016  22.094  0.00  0.00    +0.000 A 
ATOM     29  C   UNL     1      -0.293   9.631  23.147  0.00  0.00    +0.000 A 
ATOM     30  C   UNL     1      -0.927  10.857  22.945  0.00  0.00    +0.000 A 
ATOM     31  C   UNL     1      -0.896  11.460  21.689  0.00  0.00    +0.000 A 
ATOM     32  C   UNL     1      -0.217  10.847  20.632  0.00  0.00    +0.000 A 
ENDBRANCH  24  27
ENDBRANCH  22  25
BRANCH  22  33
ATOM     33  C   UNL     1       1.819   5.943  18.664  0.00  0.00    +0.000 C 
BRANCH  33  34
ATOM     34  C   UNL     1       1.745   4.725  19.565  0.00  0.00    +0.000 A 
ATOM     35  C   UNL     1       0.985   3.603  19.201  0.00  0.00    +0.000 A 
ATOM     36  C   UNL     1       0.749   2.576  20.112  0.00  0.00    +0.000 A 
ATOM     37  C   UNL     1       1.322   2.624  21.378  0.00  0.00    +0.000 A 
ATOM     38  C   UNL     1       2.162   3.680  21.718  0.00  0.00    +0.000 A 
ATOM     39  C   UNL     1       2.384   4.722  20.816  0.00  0.00    +0.000 A 
ENDBRANCH  33  34
ENDBRANCH  22  33
ENDBRANCH  21  22
ENDBRANCH   1  21
TORSDOF 12
ENDMDL
MODEL 6
REMARK VINA RESULT:      -7.6      0.852      1.516
REMARK  Name = 
REMARK  12 active torsions:
REMARK  status: ('A' for Active; 'I' for Inactive)
REMARK    1  A    between atoms: C_2  and  C_32
REMARK    2  A    between atoms: N_3  and  C_4
REMARK    3  A    between atoms: C_4  and  C_5
REMARK    4  A    between atoms: C_4  and  C_25
REMARK    5  A    between atoms: C_5  and  O_6
REMARK    6  A    between atoms: O_6  and  C_7
REMARK    7  A    between atoms: C_7  and  C_9
REMARK    8  A    between atoms: C_9  and  C_10
REMARK    9  A    between atoms: C_9  and  N_17
REMARK   10  A    between atoms: C_10  and  C_11
REMARK   11  A    between atoms: C_18  and  C_20
REMARK   12  A    between atoms: C_25  and  C_26
REMARK                            x       y       z     vdW  Elec       q    Type
REMARK                         _______ _______ _______ _____ _____    ______ ____
ROOT
ATOM      1  O   UNL     1       4.507   6.999  17.664  0.00  0.00    +0.000 OA
ENDROOT
BRANCH   1   2
ATOM      2  C   UNL     1       4.961   6.768  16.399  0.00  0.00    +0.000 C 
ATOM      3  O   UNL     1       4.691   7.442  15.420  0.00  0.00    +0.000 OA
BRANCH   2   4
ATOM      4  C   UNL     1       5.959   5.592  16.406  0.00  0.00    +0.000 C 
BRANCH   4   5
ATOM      5  N   UNL     1       5.734   4.781  15.220  0.00  0.00    +0.000 N 
ATOM      6  C   UNL     1       6.631   4.748  14.179  0.00  0.00    +0.000 C 
ATOM      7  O   UNL     1       7.660   5.421  14.185  0.00  0.00    +0.000 OA
ATOM      8  H   UNL     1       4.899   4.209  15.145  0.00  0.00    +0.000 HD
BRANCH   6   9
ATOM      9  C   UNL     1       6.259   3.866  13.098  0.00  0.00    +0.000 A 
ATOM     10  C   UNL     1       7.039   3.125  12.232  0.00  0.00    +0.000 A 
ATOM     11  C   UNL     1       6.151   2.445  11.367  0.00  0.00    +0.000 A 
ATOM     12  C   UNL     1       4.884   2.805  11.759  0.00  0.00    +0.000 A 
ATOM     13  O   UNL     1       4.934   3.667  12.806  0.00  0.00    +0.000 OA
ENDBRANCH   6   9
ENDBRANCH   4   5
BRANCH   4  14
ATOM     14  C   UNL     1       5.958   4.819  17.745  0.00  0.00    +0.000 C 
BRANCH  14  15
ATOM     15  C   UNL     1       4.881   3.769  17.847  0.00  0.00    +0.000 A 
ATOM     16  C   UNL     1       4.851   2.870  18.921  0.00  0.00    +0.000 A 
ATOM     17  C   UNL     1       3.890   1.859  18.964  0.00  0.00    +0.000 A 
ATOM     18  C   UNL     1       2.959   1.737  17.934  0.00  0.00    +0.000 A 
ATOM     19  C   UNL     1       2.959   2.650  16.882  0.00  0.00    +0.000 A 
ATOM     20  C   UNL     1       3.908   3.669  16.846  0.00  0.00    +0.000 A 
ENDBRANCH  14  15
ENDBRANCH   4  14
ENDBRANCH   2   4
ENDBRANCH   1   2
BRANCH   1  21
ATOM     21  C   UNL     1       3.416   7.912  17.827  0.00  0.00    +0.000 C 
BRANCH  21  22
ATOM     22  C   UNL     1       2.480   7.328  18.918  0.00  0.00    +0.000 C 
BRANCH  22  25
ATOM     23  O   UNL     1       1.478   7.851  21.545  0.00  0.00    +0.000 OA
ATOM     24  C   UNL     1       1.128   8.573  20.620  0.00  0.00    +0.000 C 
ATOM     25  N   UNL     1       1.501   8.360  19.309  0.00  0.00    +0.000 N 
ATOM     26  H   UNL     1       1.409   9.145  18.675  0.00  0.00    +0.000 HD
BRANCH  24  27
ATOM     27  C   UNL     1       0.304   9.791  20.880  0.00  0.00    +0.000 A 
ATOM     28  C   UNL     1       0.009  10.124  22.209  0.00  0.00    +0.000 A 
ATOM     29  C   UNL     1      -0.726  11.275  22.500  0.00  0.00    +0.000 A 
ATOM     30  C   UNL     1      -1.177  12.095  21.465  0.00  0.00    +0.000 A 
ATOM     31  C   UNL     1      -0.909  11.757  20.140  0.00  0.00    +0.000 A 
ATOM     32  C   UNL     1      -0.175  10.605  19.844  0.00  0.00    +0.000 A 
ENDBRANCH  24  27
ENDBRANCH  22  25
BRANCH  22  33
ATOM     33  C   UNL     1       1.801   6.009  18.450  0.00  0.00    +0.000 C 
BRANCH  33  34
ATOM     34  C   UNL     1       1.796   4.922  19.508  0.00  0.00    +0.000 A 
ATOM     35  C   UNL     1       0.850   3.886  19.474  0.00  0.00    +0.000 A 
ATOM     36  C   UNL     1       0.713   3.011  20.549  0.00  0.00    +0.000 A 
ATOM     37  C   UNL     1       1.562   3.117  21.645  0.00  0.00    +0.000 A 
ATOM     38  C   UNL     1       2.572   4.074  21.648  0.00  0.00    +0.000 A 
ATOM     39  C   UNL     1       2.700   4.968  20.583  0.00  0.00    +0.000 A 
ENDBRANCH  33  34
ENDBRANCH  22  33
ENDBRANCH  21  22
ENDBRANCH   1  21
TORSDOF 12
ENDMDL
MODEL 7
REMARK VINA RESULT:      -7.6      2.860      6.321
REMARK  Name = 
REMARK  12 active torsions:
REMARK  status: ('A' for Active; 'I' for Inactive)
REMARK    1  A    between atoms: C_2  and  C_32
REMARK    2  A    between atoms: N_3  and  C_4
REMARK    3  A    between atoms: C_4  and  C_5
REMARK    4  A    between atoms: C_4  and  C_25
REMARK    5  A    between atoms: C_5  and  O_6
REMARK    6  A    between atoms: O_6  and  C_7
REMARK    7  A    between atoms: C_7  and  C_9
REMARK    8  A    between atoms: C_9  and  C_10
REMARK    9  A    between atoms: C_9  and  N_17
REMARK   10  A    between atoms: C_10  and  C_11
REMARK   11  A    between atoms: C_18  and  C_20
REMARK   12  A    between atoms: C_25  and  C_26
REMARK                            x       y       z     vdW  Elec       q    Type
REMARK                         _______ _______ _______ _____ _____    ______ ____
ROOT
ATOM      1  O   UNL     1       1.323   8.459  18.832  0.00  0.00    +0.000 OA
ENDROOT
BRANCH   1   2
ATOM      2  C   UNL     1       2.404   8.656  18.026  0.00  0.00    +0.000 C 
ATOM      3  O   UNL     1       2.820   9.741  17.656  0.00  0.00    +0.000 OA
BRANCH   2   4
ATOM      4  C   UNL     1       3.098   7.308  17.739  0.00  0.00    +0.000 C 
BRANCH   4   5
ATOM      5  N   UNL     1       2.758   6.373  18.800  0.00  0.00    +0.000 N 
ATOM      6  C   UNL     1       2.183   5.151  18.538  0.00  0.00    +0.000 C 
ATOM      7  O   UNL     1       1.904   4.796  17.395  0.00  0.00    +0.000 OA
ATOM      8  H   UNL     1       2.951   6.608  19.768  0.00  0.00    +0.000 HD
BRANCH   6   9
ATOM      9  C   UNL     1       1.942   4.343  19.709  0.00  0.00    +0.000 A 
ATOM     10  C   UNL     1       1.011   3.348  19.940  0.00  0.00    +0.000 A 
ATOM     11  C   UNL     1       1.219   2.897  21.263  0.00  0.00    +0.000 A 
ATOM     12  C   UNL     1       2.265   3.636  21.760  0.00  0.00    +0.000 A 
ATOM     13  O   UNL     1       2.713   4.517  20.829  0.00  0.00    +0.000 OA
ENDBRANCH   6   9
ENDBRANCH   4   5
BRANCH   4  14
ATOM     14  C   UNL     1       4.610   7.466  17.457  0.00  0.00    +0.000 C 
BRANCH  14  15
ATOM     15  C   UNL     1       5.244   6.260  16.813  0.00  0.00    +0.000 A 
ATOM     16  C   UNL     1       5.916   5.301  17.583  0.00  0.00    +0.000 A 
ATOM     17  C   UNL     1       6.558   4.228  16.965  0.00  0.00    +0.000 A 
ATOM     18  C   UNL     1       6.536   4.108  15.576  0.00  0.00    +0.000 A 
ATOM     19  C   UNL     1       5.839   5.036  14.807  0.00  0.00    +0.000 A 
ATOM     20  C   UNL     1       5.184   6.100  15.424  0.00  0.00    +0.000 A 
ENDBRANCH  14  15
ENDBRANCH   4  14
ENDBRANCH   2   4
ENDBRANCH   1   2
BRANCH   1  21
ATOM     21  C   UNL     1       0.941   9.522  19.711  0.00  0.00    +0.000 C 
BRANCH  21  22
ATOM     22  C   UNL     1      -0.088  10.404  18.956  0.00  0.00    +0.000 C 
BRANCH  22  25
ATOM     23  O   UNL     1       0.278  12.775  20.512  0.00  0.00    +0.000 OA
ATOM     24  C   UNL     1       0.754  12.724  19.386  0.00  0.00    +0.000 C 
ATOM     25  N   UNL     1       0.572  11.653  18.533  0.00  0.00    +0.000 N 
ATOM     26  H   UNL     1       1.221  11.570  17.760  0.00  0.00    +0.000 HD
BRANCH  24  27
ATOM     27  C   UNL     1       1.632  13.822  18.883  0.00  0.00    +0.000 A 
ATOM     28  C   UNL     1       2.909  13.491  18.411  0.00  0.00    +0.000 A 
ATOM     29  C   UNL     1       3.749  14.480  17.897  0.00  0.00    +0.000 A 
ATOM     30  C   UNL     1       3.321  15.807  17.859  0.00  0.00    +0.000 A 
ATOM     31  C   UNL     1       2.062  16.149  18.350  0.00  0.00    +0.000 A 
ATOM     32  C   UNL     1       1.219  15.162  18.867  0.00  0.00    +0.000 A 
ENDBRANCH  24  27
ENDBRANCH  22  25
BRANCH  22  33
ATOM     33  C   UNL     1      -0.737   9.641  17.764  0.00  0.00    +0.000 C 
BRANCH  33  34
ATOM     34  C   UNL     1      -2.102  10.176  17.375  0.00  0.00    +0.000 A 
ATOM     35  C   UNL     1      -2.596  10.013  16.072  0.00  0.00    +0.000 A 
ATOM     36  C   UNL     1      -3.748  10.677  15.658  0.00  0.00    +0.000 A 
ATOM     37  C   UNL     1      -4.460  11.462  16.559  0.00  0.00    +0.000 A 
ATOM     38  C   UNL     1      -4.040  11.550  17.883  0.00  0.00    +0.000 A 
ATOM     39  C   UNL     1      -2.873  10.904  18.296  0.00  0.00    +0.000 A 
ENDBRANCH  33  34
ENDBRANCH  22  33
ENDBRANCH  21  22
ENDBRANCH   1  21
TORSDOF 12
ENDMDL
MODEL 8
REMARK VINA RESULT:      -7.6      2.849      5.390
REMARK  Name = 
REMARK  12 active torsions:
REMARK  status: ('A' for Active; 'I' for Inactive)
REMARK    1  A    between atoms: C_2  and  C_32
REMARK    2  A    between atoms: N_3  and  C_4
REMARK    3  A    between atoms: C_4  and  C_5
REMARK    4  A    between atoms: C_4  and  C_25
REMARK    5  A    between atoms: C_5  and  O_6
REMARK    6  A    between atoms: O_6  and  C_7
REMARK    7  A    between atoms: C_7  and  C_9
REMARK    8  A    between atoms: C_9  and  C_10
REMARK    9  A    between atoms: C_9  and  N_17
REMARK   10  A    between atoms: C_10  and  C_11
REMARK   11  A    between atoms: C_18  and  C_20
REMARK   12  A    between atoms: C_25  and  C_26
REMARK                            x       y       z     vdW  Elec       q    Type
REMARK                         _______ _______ _______ _____ _____    ______ ____
ROOT
ATOM      1  O   UNL     1       1.130   8.658  19.130  0.00  0.00    +0.000 OA
ENDROOT
BRANCH   1   2
ATOM      2  C   UNL     1       2.201   8.345  18.347  0.00  0.00    +0.000 C 
ATOM      3  O   UNL     1       2.631   9.029  17.434  0.00  0.00    +0.000 OA
BRANCH   2   4
ATOM      4  C   UNL     1       2.862   7.048  18.856  0.00  0.00    +0.000 C 
BRANCH   4   5
ATOM      5  N   UNL     1       3.549   6.406  17.745  0.00  0.00    +0.000 N 
ATOM      6  C   UNL     1       4.819   5.893  17.872  0.00  0.00    +0.000 C 
ATOM      7  O   UNL     1       5.449   5.971  18.924  0.00  0.00    +0.000 OA
ATOM      8  H   UNL     1       3.090   6.318  16.845  0.00  0.00    +0.000 HD
BRANCH   6   9
ATOM      9  C   UNL     1       5.330   5.267  16.676  0.00  0.00    +0.000 A 
ATOM     10  C   UNL     1       5.215   3.968  16.221  0.00  0.00    +0.000 A 
ATOM     11  C   UNL     1       5.916   3.904  14.995  0.00  0.00    +0.000 A 
ATOM     12  C   UNL     1       6.411   5.166  14.771  0.00  0.00    +0.000 A 
ATOM     13  O   UNL     1       6.065   6.002  15.782  0.00  0.00    +0.000 OA
ENDBRANCH   6   9
ENDBRANCH   4   5
BRANCH   4  14
ATOM     14  C   UNL     1       1.879   6.145  19.635  0.00  0.00    +0.000 C 
BRANCH  14  15
ATOM     15  C   UNL     1       2.098   4.669  19.419  0.00  0.00    +0.000 A 
ATOM     16  C   UNL     1       1.489   3.999  18.350  0.00  0.00    +0.000 A 
ATOM     17  C   UNL     1       1.645   2.620  18.205  0.00  0.00    +0.000 A 
ATOM     18  C   UNL     1       2.404   1.902  19.128  0.00  0.00    +0.000 A 
ATOM     19  C   UNL     1       3.043   2.567  20.172  0.00  0.00    +0.000 A 
ATOM     20  C   UNL     1       2.902   3.946  20.309  0.00  0.00    +0.000 A 
ENDBRANCH  14  15
ENDBRANCH   4  14
ENDBRANCH   2   4
ENDBRANCH   1   2
BRANCH   1  21
ATOM     21  C   UNL     1       1.113   9.946  19.756  0.00  0.00    +0.000 C 
BRANCH  21  22
ATOM     22  C   UNL     1       0.055  10.807  19.018  0.00  0.00    +0.000 C 
BRANCH  22  25
ATOM     23  O   UNL     1      -0.420  13.470  19.948  0.00  0.00    +0.000 OA
ATOM     24  C   UNL     1       0.443  13.281  19.100  0.00  0.00    +0.000 C 
ATOM     25  N   UNL     1       0.697  12.046  18.539  0.00  0.00    +0.000 N 
ATOM     26  H   UNL     1       1.591  11.929  18.077  0.00  0.00    +0.000 HD
BRANCH  24  27
ATOM     27  C   UNL     1       1.331  14.398  18.660  0.00  0.00    +0.000 A 
ATOM     28  C   UNL     1       2.573  14.078  18.097  0.00  0.00    +0.000 A 
ATOM     29  C   UNL     1       3.420  15.089  17.636  0.00  0.00    +0.000 A 
ATOM     30  C   UNL     1       3.033  16.424  17.744  0.00  0.00    +0.000 A 
ATOM     31  C   UNL     1       1.809  16.752  18.327  0.00  0.00    +0.000 A 
ATOM     32  C   UNL     1       0.960  15.743  18.790  0.00  0.00    +0.000 A 
ENDBRANCH  24  27
ENDBRANCH  22  25
BRANCH  22  33
ATOM     33  C   UNL     1      -0.638  10.014  17.871  0.00  0.00    +0.000 C 
BRANCH  33  34
ATOM     34  C   UNL     1      -1.977  10.594  17.458  0.00  0.00    +0.000 A 
ATOM     35  C   UNL     1      -2.791  11.262  18.385  0.00  0.00    +0.000 A 
ATOM     36  C   UNL     1      -4.101  11.611  18.063  0.00  0.00    +0.000 A 
ATOM     37  C   UNL     1      -4.595  11.355  16.789  0.00  0.00    +0.000 A 
ATOM     38  C   UNL     1      -3.766  10.786  15.826  0.00  0.00    +0.000 A 
ATOM     39  C   UNL     1      -2.460  10.415  16.151  0.00  0.00    +0.000 A 
ENDBRANCH  33  34
ENDBRANCH  22  33
ENDBRANCH  21  22
ENDBRANCH   1  21
TORSDOF 12
ENDMDL
MODEL 9
REMARK VINA RESULT:      -7.5      1.423      3.954
REMARK  Name = 
REMARK  12 active torsions:
REMARK  status: ('A' for Active; 'I' for Inactive)
REMARK    1  A    between atoms: C_2  and  C_32
REMARK    2  A    between atoms: N_3  and  C_4
REMARK    3  A    between atoms: C_4  and  C_5
REMARK    4  A    between atoms: C_4  and  C_25
REMARK    5  A    between atoms: C_5  and  O_6
REMARK    6  A    between atoms: O_6  and  C_7
REMARK    7  A    between atoms: C_7  and  C_9
REMARK    8  A    between atoms: C_9  and  C_10
REMARK    9  A    between atoms: C_9  and  N_17
REMARK   10  A    between atoms: C_10  and  C_11
REMARK   11  A    between atoms: C_18  and  C_20
REMARK   12  A    between atoms: C_25  and  C_26
REMARK                            x       y       z     vdW  Elec       q    Type
REMARK                         _______ _______ _______ _____ _____    ______ ____
ROOT
ATOM      1  O   UNL     1       5.029   7.200  17.925  0.00  0.00    +0.000 OA
ENDROOT
BRANCH   1   2
ATOM      2  C   UNL     1       6.120   7.060  17.121  0.00  0.00    +0.000 C 
ATOM      3  O   UNL     1       7.153   7.702  17.216  0.00  0.00    +0.000 OA
BRANCH   2   4
ATOM      4  C   UNL     1       5.903   5.890  16.140  0.00  0.00    +0.000 C 
BRANCH   4   5
ATOM      5  N   UNL     1       5.252   4.799  16.851  0.00  0.00    +0.000 N 
ATOM      6  C   UNL     1       5.855   4.153  17.903  0.00  0.00    +0.000 C 
ATOM      7  O   UNL     1       6.986   4.446  18.285  0.00  0.00    +0.000 OA
ATOM      8  H   UNL     1       4.321   4.499  16.580  0.00  0.00    +0.000 HD
BRANCH   6   9
ATOM      9  C   UNL     1       5.050   3.117  18.506  0.00  0.00    +0.000 A 
ATOM     10  C   UNL     1       4.094   2.286  17.956  0.00  0.00    +0.000 A 
ATOM     11  C   UNL     1       3.617   1.465  19.004  0.00  0.00    +0.000 A 
ATOM     12  C   UNL     1       4.313   1.839  20.129  0.00  0.00    +0.000 A 
ATOM     13  O   UNL     1       5.184   2.840  19.842  0.00  0.00    +0.000 OA
ENDBRANCH   6   9
ENDBRANCH   4   5
BRANCH   4  14
ATOM     14  C   UNL     1       7.192   5.505  15.379  0.00  0.00    +0.000 C 
BRANCH  14  15
ATOM     15  C   UNL     1       6.945   4.802  14.069  0.00  0.00    +0.000 A 
ATOM     16  C   UNL     1       7.724   5.089  12.939  0.00  0.00    +0.000 A 
ATOM     17  C   UNL     1       7.436   4.482  11.716  0.00  0.00    +0.000 A 
ATOM     18  C   UNL     1       6.370   3.590  11.613  0.00  0.00    +0.000 A 
ATOM     19  C   UNL     1       5.616   3.271  12.740  0.00  0.00    +0.000 A 
ATOM     20  C   UNL     1       5.911   3.864  13.965  0.00  0.00    +0.000 A 
ENDBRANCH  14  15
ENDBRANCH   4  14
ENDBRANCH   2   4
ENDBRANCH   1   2
BRANCH   1  21
ATOM     21  C   UNL     1       3.840   7.754  17.350  0.00  0.00    +0.000 C 
BRANCH  21  22
ATOM     22  C   UNL     1       2.651   7.346  18.258  0.00  0.00    +0.000 C 
BRANCH  22  25
ATOM     23  O   UNL     1       1.428   8.591  20.525  0.00  0.00    +0.000 OA
ATOM     24  C   UNL     1       1.164   9.006  19.403  0.00  0.00    +0.000 C 
ATOM     25  N   UNL     1       1.647   8.427  18.247  0.00  0.00    +0.000 N 
ATOM     26  H   UNL     1       1.616   8.992  17.407  0.00  0.00    +0.000 HD
BRANCH  24  27
ATOM     27  C   UNL     1       0.329  10.231  19.225  0.00  0.00    +0.000 A 
ATOM     28  C   UNL     1       0.597  11.342  20.036  0.00  0.00    +0.000 A 
ATOM     29  C   UNL     1      -0.134  12.522  19.879  0.00  0.00    +0.000 A 
ATOM     30  C   UNL     1      -1.141  12.594  18.916  0.00  0.00    +0.000 A 
ATOM     31  C   UNL     1      -1.431  11.485  18.124  0.00  0.00    +0.000 A 
ATOM     32  C   UNL     1      -0.703  10.302  18.279  0.00  0.00    +0.000 A 
ENDBRANCH  24  27
ENDBRANCH  22  25
BRANCH  22  33
ATOM     33  C   UNL     1       2.050   5.972  17.840  0.00  0.00    +0.000 C 
BRANCH  33  34
ATOM     34  C   UNL     1       1.894   5.002  18.996  0.00  0.00    +0.000 A 
ATOM     35  C   UNL     1       1.051   3.886  18.892  0.00  0.00    +0.000 A 
ATOM     36  C   UNL     1       0.748   3.115  20.012  0.00  0.00    +0.000 A 
ATOM     37  C   UNL     1       1.334   3.410  21.239  0.00  0.00    +0.000 A 
ATOM     38  C   UNL     1       2.252   4.451  21.335  0.00  0.00    +0.000 A 
ATOM     39  C   UNL     1       2.542   5.240  20.220  0.00  0.00    +0.000 A 
ENDBRANCH  33  34
ENDBRANCH  22  33
ENDBRANCH  21  22
ENDBRANCH   1  21
TORSDOF 12
ENDMDL
