MODEL 1
REMARK VINA RESULT:      -8.5      0.000      0.000
REMARK  Name = 
REMARK  7 active torsions:
REMARK  status: ('A' for Active; 'I' for Inactive)
REMARK    1  A    between atoms: C_1  and  C_2
REMARK    2  A    between atoms: C_2  and  O_3
REMARK    3  A    between atoms: O_3  and  C_4
REMARK    4  A    between atoms: C_7  and  C_8
REMARK    5  A    between atoms: N_13  and  S_14
REMARK    6  A    between atoms: S_14  and  C_17
REMARK    7  A    between atoms: C_20  and  C_21
REMARK                            x       y       z     vdW  Elec       q    Type
REMARK                         _______ _______ _______ _____ _____    ______ ____
ROOT
ATOM      1  C   UNL     1       2.967   5.143  17.960  0.00  0.00    +0.000 C 
ATOM      2  C   UNL     1       1.782   4.237  17.694  0.00  0.00    +0.000 C 
ATOM      3  C   UNL     1       1.657   2.973  18.113  0.00  0.00    +0.000 C 
ATOM      4  C   UNL     1       2.764   2.318  18.867  0.00  0.00    +0.000 C 
ATOM      5  C   UNL     1       4.115   2.958  18.543  0.00  0.00    +0.000 C 
ATOM      6  N   UNL     1       4.103   4.447  18.648  0.00  0.00    +0.000 NA
ENDROOT
BRANCH   1  10
ATOM      7  C   UNL     1       1.464   8.562  20.173  0.00  0.00    +0.000 A 
ATOM      8  C   UNL     1       1.635   7.338  20.819  0.00  0.00    +0.000 A 
ATOM      9  C   UNL     1       2.140   6.237  20.120  0.00  0.00    +0.000 A 
ATOM     10  C   UNL     1       2.473   6.346  18.763  0.00  0.00    +0.000 A 
ATOM     11  C   UNL     1       2.275   7.579  18.119  0.00  0.00    +0.000 A 
ATOM     12  C   UNL     1       1.767   8.676  18.817  0.00  0.00    +0.000 A 
BRANCH   7  13
ATOM     13  O   UNL     1       0.976   9.569  20.956  0.00  0.00    +0.000 OA
BRANCH  13  15
ATOM     14  C   UNL     1      -0.379   9.672  22.905  0.00  0.00    +0.000 C 
ATOM     15  C   UNL     1       0.994   9.325  22.362  0.00  0.00    +0.000 C 
ENDBRANCH  13  15
ENDBRANCH   7  13
ENDBRANCH   1  10
BRANCH   6  16
ATOM     16  S   UNL     1       5.620   5.176  18.274  0.00  0.00    +0.000 S 
ATOM     17  O   UNL     1       5.435   6.614  18.272  0.00  0.00    +0.000 OA
ATOM     18  O   UNL     1       6.658   4.576  19.081  0.00  0.00    +0.000 OA
BRANCH  16  19
ATOM     19  C   UNL     1       5.926   4.668  16.593  0.00  0.00    +0.000 A 
ATOM     20  C   UNL     1       4.913   4.058  15.849  0.00  0.00    +0.000 A 
ATOM     21  C   UNL     1       5.127   3.768  14.497  0.00  0.00    +0.000 A 
ATOM     22  C   UNL     1       6.335   4.113  13.876  0.00  0.00    +0.000 A 
ATOM     23  C   UNL     1       6.559   3.838  12.417  0.00  0.00    +0.000 C 
ATOM     24  C   UNL     1       7.332   4.750  14.627  0.00  0.00    +0.000 A 
ATOM     25  C   UNL     1       7.133   5.026  15.982  0.00  0.00    +0.000 A 
ENDBRANCH  16  19
ENDBRANCH   6  16
TORSDOF 5
ENDMDL
MODEL 2
REMARK VINA RESULT:      -8.4      2.324      3.074
REMARK  Name = 
REMARK  7 active torsions:
REMARK  status: ('A' for Active; 'I' for Inactive)
REMARK    1  A    between atoms: C_1  and  C_2
REMARK    2  A    between atoms: C_2  and  O_3
REMARK    3  A    between atoms: O_3  and  C_4
REMARK    4  A    between atoms: C_7  and  C_8
REMARK    5  A    between atoms: N_13  and  S_14
REMARK    6  A    between atoms: S_14  and  C_17
REMARK    7  A    between atoms: C_20  and  C_21
REMARK                            x       y       z     vdW  Elec       q    Type
REMARK                         _______ _______ _______ _____ _____    ______ ____
ROOT
ATOM      1  C   UNL     1       1.814   4.125  19.277  0.00  0.00    +0.000 C 
ATOM      2  C   UNL     1       0.949   3.747  20.462  0.00  0.00    +0.000 C 
ATOM      3  C   UNL     1       1.346   3.034  21.522  0.00  0.00    +0.000 C 
ATOM      4  C   UNL     1       2.732   2.487  21.583  0.00  0.00    +0.000 C 
ATOM      5  C   UNL     1       3.320   2.296  20.184  0.00  0.00    +0.000 C 
ATOM      6  N   UNL     1       3.177   3.502  19.315  0.00  0.00    +0.000 NA
ENDROOT
BRANCH   1  10
ATOM      7  C   UNL     1       1.933   8.457  19.036  0.00  0.00    +0.000 A 
ATOM      8  C   UNL     1       1.775   7.835  20.275  0.00  0.00    +0.000 A 
ATOM      9  C   UNL     1       1.758   6.440  20.365  0.00  0.00    +0.000 A 
ATOM     10  C   UNL     1       1.892   5.650  19.214  0.00  0.00    +0.000 A 
ATOM     11  C   UNL     1       2.029   6.289  17.972  0.00  0.00    +0.000 A 
ATOM     12  C   UNL     1       2.041   7.683  17.882  0.00  0.00    +0.000 A 
BRANCH   7  13
ATOM     13  O   UNL     1       1.947   9.823  19.069  0.00  0.00    +0.000 OA
BRANCH  13  15
ATOM     14  C   UNL     1      -0.294  10.457  18.599  0.00  0.00    +0.000 C 
ATOM     15  C   UNL     1       0.798  10.440  19.651  0.00  0.00    +0.000 C 
ENDBRANCH  13  15
ENDBRANCH   7  13
ENDBRANCH   1  10
BRANCH   6  16
ATOM     16  S   UNL     1       3.828   3.290  17.732  0.00  0.00    +0.000 S 
ATOM     17  O   UNL     1       4.506   2.010  17.697  0.00  0.00    +0.000 OA
ATOM     18  O   UNL     1       2.820   3.609  16.747  0.00  0.00    +0.000 OA
BRANCH  16  19
ATOM     19  C   UNL     1       5.071   4.563  17.616  0.00  0.00    +0.000 A 
ATOM     20  C   UNL     1       5.088   5.430  16.521  0.00  0.00    +0.000 A 
ATOM     21  C   UNL     1       5.995   6.495  16.496  0.00  0.00    +0.000 A 
ATOM     22  C   UNL     1       6.863   6.718  17.574  0.00  0.00    +0.000 A 
ATOM     23  C   UNL     1       7.814   7.880  17.572  0.00  0.00    +0.000 C 
ATOM     24  C   UNL     1       6.816   5.858  18.679  0.00  0.00    +0.000 A 
ATOM     25  C   UNL     1       5.926   4.780  18.702  0.00  0.00    +0.000 A 
ENDBRANCH  16  19
ENDBRANCH   6  16
TORSDOF 5
ENDMDL
MODEL 3
REMARK VINA RESULT:      -8.3      0.377      1.038
REMARK  Name = 
REMARK  7 active torsions:
REMARK  status: ('A' for Active; 'I' for Inactive)
REMARK    1  A    between atoms: C_1  and  C_2
REMARK    2  A    between atoms: C_2  and  O_3
REMARK    3  A    between atoms: O_3  and  C_4
REMARK    4  A    between atoms: C_7  and  C_8
REMARK    5  A    between atoms: N_13  and  S_14
REMARK    6  A    between atoms: S_14  and  C_17
REMARK    7  A    between atoms: C_20  and  C_21
REMARK                            x       y       z     vdW  Elec       q    Type
REMARK                         _______ _______ _______ _____ _____    ______ ____
ROOT
ATOM      1  C   UNL     1       2.934   5.078  17.954  0.00  0.00    +0.000 C 
ATOM      2  C   UNL     1       1.774   4.137  17.701  0.00  0.00    +0.000 C 
ATOM      3  C   UNL     1       1.660   2.893  18.179  0.00  0.00    +0.000 C 
ATOM      4  C   UNL     1       2.757   2.298  18.994  0.00  0.00    +0.000 C 
ATOM      5  C   UNL     1       4.105   2.947  18.677  0.00  0.00    +0.000 C 
ATOM      6  N   UNL     1       4.062   4.440  18.707  0.00  0.00    +0.000 NA
ENDROOT
BRANCH   1  10
ATOM      7  C   UNL     1       1.504   8.576  20.090  0.00  0.00    +0.000 A 
ATOM      8  C   UNL     1       1.816   8.670  18.734  0.00  0.00    +0.000 A 
ATOM      9  C   UNL     1       2.256   7.544  18.033  0.00  0.00    +0.000 A 
ATOM     10  C   UNL     1       2.396   6.309  18.682  0.00  0.00    +0.000 A 
ATOM     11  C   UNL     1       2.099   6.233  20.053  0.00  0.00    +0.000 A 
ATOM     12  C   UNL     1       1.664   7.360  20.753  0.00  0.00    +0.000 A 
BRANCH   7  13
ATOM     13  O   UNL     1       1.073   9.735  20.670  0.00  0.00    +0.000 OA
BRANCH  13  15
ATOM     14  C   UNL     1      -0.225   9.919  22.652  0.00  0.00    +0.000 C 
ATOM     15  C   UNL     1      -0.272   9.727  21.148  0.00  0.00    +0.000 C 
ENDBRANCH  13  15
ENDBRANCH   7  13
ENDBRANCH   1  10
BRANCH   6  16
ATOM     16  S   UNL     1       5.577   5.179  18.339  0.00  0.00    +0.000 S 
ATOM     17  O   UNL     1       5.382   6.615  18.339  0.00  0.00    +0.000 OA
ATOM     18  O   UNL     1       6.616   4.584  19.149  0.00  0.00    +0.000 OA
BRANCH  16  19
ATOM     19  C   UNL     1       5.892   4.675  16.659  0.00  0.00    +0.000 A 
ATOM     20  C   UNL     1       4.874   4.093  15.898  0.00  0.00    +0.000 A 
ATOM     21  C   UNL     1       5.098   3.807  14.548  0.00  0.00    +0.000 A 
ATOM     22  C   UNL     1       6.322   4.128  13.943  0.00  0.00    +0.000 A 
ATOM     23  C   UNL     1       6.558   3.857  12.485  0.00  0.00    +0.000 C 
ATOM     24  C   UNL     1       7.324   4.737  14.711  0.00  0.00    +0.000 A 
ATOM     25  C   UNL     1       7.114   5.009  16.065  0.00  0.00    +0.000 A 
ENDBRANCH  16  19
ENDBRANCH   6  16
TORSDOF 5
ENDMDL
MODEL 4
REMARK VINA RESULT:      -8.3      0.921      1.404
REMARK  Name = 
REMARK  7 active torsions:
REMARK  status: ('A' for Active; 'I' for Inactive)
REMARK    1  A    between atoms: C_1  and  C_2
REMARK    2  A    between atoms: C_2  and  O_3
REMARK    3  A    between atoms: O_3  and  C_4
REMARK    4  A    between atoms: C_7  and  C_8
REMARK    5  A    between atoms: N_13  and  S_14
REMARK    6  A    between atoms: S_14  and  C_17
REMARK    7  A    between atoms: C_20  and  C_21
REMARK                            x       y       z     vdW  Elec       q    Type
REMARK                         _______ _______ _______ _____ _____    ______ ____
ROOT
ATOM      1  C   UNL     1       3.086   5.178  17.852  0.00  0.00    +0.000 C 
ATOM      2  C   UNL     1       1.888   4.268  17.669  0.00  0.00    +0.000 C 
ATOM      3  C   UNL     1       1.703   3.091  18.275  0.00  0.00    +0.000 C 
ATOM      4  C   UNL     1       2.750   2.539  19.182  0.00  0.00    +0.000 C 
ATOM      5  C   UNL     1       4.135   3.088  18.835  0.00  0.00    +0.000 C 
ATOM      6  N   UNL     1       4.164   4.576  18.702  0.00  0.00    +0.000 NA
ENDROOT
BRANCH   1  10
ATOM      7  C   UNL     1       1.579   8.937  19.414  0.00  0.00    +0.000 A 
ATOM      8  C   UNL     1       1.728   7.842  20.265  0.00  0.00    +0.000 A 
ATOM      9  C   UNL     1       2.234   6.634  19.776  0.00  0.00    +0.000 A 
ATOM     10  C   UNL     1       2.590   6.505  18.426  0.00  0.00    +0.000 A 
ATOM     11  C   UNL     1       2.414   7.609  17.576  0.00  0.00    +0.000 A 
ATOM     12  C   UNL     1       1.905   8.813  18.064  0.00  0.00    +0.000 A 
BRANCH   7  13
ATOM     13  O   UNL     1       1.088  10.068  20.002  0.00  0.00    +0.000 OA
BRANCH  13  15
ATOM     14  C   UNL     1      -1.076  10.478  19.110  0.00  0.00    +0.000 C 
ATOM     15  C   UNL     1      -0.300  10.039  20.337  0.00  0.00    +0.000 C 
ENDBRANCH  13  15
ENDBRANCH   7  13
ENDBRANCH   1  10
BRANCH   6  16
ATOM     16  S   UNL     1       5.720   5.200  18.300  0.00  0.00    +0.000 S 
ATOM     17  O   UNL     1       5.674   6.641  18.453  0.00  0.00    +0.000 OA
ATOM     18  O   UNL     1       6.741   4.428  18.972  0.00  0.00    +0.000 OA
BRANCH  16  19
ATOM     19  C   UNL     1       5.877   4.846  16.560  0.00  0.00    +0.000 A 
ATOM     20  C   UNL     1       6.932   5.393  15.825  0.00  0.00    +0.000 A 
ATOM     21  C   UNL     1       7.112   5.018  14.490  0.00  0.00    +0.000 A 
ATOM     22  C   UNL     1       6.263   4.075  13.893  0.00  0.00    +0.000 A 
ATOM     23  C   UNL     1       6.471   3.639  12.471  0.00  0.00    +0.000 C 
ATOM     24  C   UNL     1       5.226   3.513  14.650  0.00  0.00    +0.000 A 
ATOM     25  C   UNL     1       5.029   3.897  15.979  0.00  0.00    +0.000 A 
ENDBRANCH  16  19
ENDBRANCH   6  16
TORSDOF 5
ENDMDL
MODEL 5
REMARK VINA RESULT:      -8.2      2.326      3.199
REMARK  Name = 
REMARK  7 active torsions:
REMARK  status: ('A' for Active; 'I' for Inactive)
REMARK    1  A    between atoms: C_1  and  C_2
REMARK    2  A    between atoms: C_2  and  O_3
REMARK    3  A    between atoms: O_3  and  C_4
REMARK    4  A    between atoms: C_7  and  C_8
REMARK    5  A    between atoms: N_13  and  S_14
REMARK    6  A    between atoms: S_14  and  C_17
REMARK    7  A    between atoms: C_20  and  C_21
REMARK                            x       y       z     vdW  Elec       q    Type
REMARK                         _______ _______ _______ _____ _____    ______ ____
ROOT
ATOM      1  C   UNL     1       1.773   4.029  19.301  0.00  0.00    +0.000 C 
ATOM      2  C   UNL     1       0.938   3.634  20.501  0.00  0.00    +0.000 C 
ATOM      3  C   UNL     1       1.372   2.942  21.561  0.00  0.00    +0.000 C 
ATOM      4  C   UNL     1       2.774   2.438  21.606  0.00  0.00    +0.000 C 
ATOM      5  C   UNL     1       3.347   2.254  20.200  0.00  0.00    +0.000 C 
ATOM      6  N   UNL     1       3.155   3.448  19.324  0.00  0.00    +0.000 NA
ENDROOT
BRANCH   1  10
ATOM      7  C   UNL     1       1.963   8.362  19.149  0.00  0.00    +0.000 A 
ATOM      8  C   UNL     1       2.065   7.621  17.971  0.00  0.00    +0.000 A 
ATOM      9  C   UNL     1       1.982   6.227  18.008  0.00  0.00    +0.000 A 
ATOM     10  C   UNL     1       1.804   5.554  19.225  0.00  0.00    +0.000 A 
ATOM     11  C   UNL     1       1.725   6.312  20.406  0.00  0.00    +0.000 A 
ATOM     12  C   UNL     1       1.812   7.705  20.368  0.00  0.00    +0.000 A 
BRANCH   7  13
ATOM     13  O   UNL     1       2.046   9.717  18.992  0.00  0.00    +0.000 OA
BRANCH  13  15
ATOM     14  C   UNL     1       0.197  10.986  19.776  0.00  0.00    +0.000 C 
ATOM     15  C   UNL     1       0.850  10.364  18.557  0.00  0.00    +0.000 C 
ENDBRANCH  13  15
ENDBRANCH   7  13
ENDBRANCH   1  10
BRANCH   6  16
ATOM     16  S   UNL     1       3.789   3.243  17.733  0.00  0.00    +0.000 S 
ATOM     17  O   UNL     1       4.470   1.964  17.687  0.00  0.00    +0.000 OA
ATOM     18  O   UNL     1       2.769   3.562  16.760  0.00  0.00    +0.000 OA
BRANCH  16  19
ATOM     19  C   UNL     1       5.027   4.519  17.608  0.00  0.00    +0.000 A 
ATOM     20  C   UNL     1       5.050   5.369  16.499  0.00  0.00    +0.000 A 
ATOM     21  C   UNL     1       5.952   6.438  16.465  0.00  0.00    +0.000 A 
ATOM     22  C   UNL     1       6.809   6.682  17.546  0.00  0.00    +0.000 A 
ATOM     23  C   UNL     1       7.755   7.849  17.534  0.00  0.00    +0.000 C 
ATOM     24  C   UNL     1       6.757   5.839  18.665  0.00  0.00    +0.000 A 
ATOM     25  C   UNL     1       5.872   4.758  18.698  0.00  0.00    +0.000 A 
ENDBRANCH  16  19
ENDBRANCH   6  16
TORSDOF 5
ENDMDL
MODEL 6
REMARK VINA RESULT:      -8.2      2.960      6.413
REMARK  Name = 
REMARK  7 active torsions:
REMARK  status: ('A' for Active; 'I' for Inactive)
REMARK    1  A    between atoms: C_1  and  C_2
REMARK    2  A    between atoms: C_2  and  O_3
REMARK    3  A    between atoms: O_3  and  C_4
REMARK    4  A    between atoms: C_7  and  C_8
REMARK    5  A    between atoms: N_13  and  S_14
REMARK    6  A    between atoms: S_14  and  C_17
REMARK    7  A    between atoms: C_20  and  C_21
REMARK                            x       y       z     vdW  Elec       q    Type
REMARK                         _______ _______ _______ _____ _____    ______ ____
ROOT
ATOM      1  C   UNL     1       6.465   4.748  17.165  0.00  0.00    +0.000 C 
ATOM      2  C   UNL     1       7.232   4.315  15.933  0.00  0.00    +0.000 C 
ATOM      3  C   UNL     1       6.727   4.199  14.700  0.00  0.00    +0.000 C 
ATOM      4  C   UNL     1       5.278   4.451  14.454  0.00  0.00    +0.000 C 
ATOM      5  C   UNL     1       4.449   4.220  15.719  0.00  0.00    +0.000 C 
ATOM      6  N   UNL     1       4.996   4.921  16.919  0.00  0.00    +0.000 NA
ENDROOT
BRANCH   1  10
ATOM      7  C   UNL     1       8.385   8.348  18.646  0.00  0.00    +0.000 A 
ATOM      8  C   UNL     1       7.623   8.398  17.479  0.00  0.00    +0.000 A 
ATOM      9  C   UNL     1       6.982   7.249  17.007  0.00  0.00    +0.000 A 
ATOM     10  C   UNL     1       7.103   6.032  17.693  0.00  0.00    +0.000 A 
ATOM     11  C   UNL     1       7.891   5.991  18.855  0.00  0.00    +0.000 A 
ATOM     12  C   UNL     1       8.535   7.139  19.323  0.00  0.00    +0.000 A 
BRANCH   7  13
ATOM     13  O   UNL     1       8.955   9.532  19.019  0.00  0.00    +0.000 OA
BRANCH  13  15
ATOM     14  C   UNL     1      10.186  11.440  18.317  0.00  0.00    +0.000 C 
ATOM     15  C   UNL     1       9.002  10.542  18.011  0.00  0.00    +0.000 C 
ENDBRANCH  13  15
ENDBRANCH   7  13
ENDBRANCH   1  10
BRANCH   6  16
ATOM     16  S   UNL     1       4.072   4.656  18.351  0.00  0.00    +0.000 S 
ATOM     17  O   UNL     1       3.022   3.708  18.034  0.00  0.00    +0.000 OA
ATOM     18  O   UNL     1       4.962   4.414  19.464  0.00  0.00    +0.000 OA
BRANCH  16  19
ATOM     19  C   UNL     1       3.301   6.235  18.650  0.00  0.00    +0.000 A 
ATOM     20  C   UNL     1       3.292   7.212  17.652  0.00  0.00    +0.000 A 
ATOM     21  C   UNL     1       2.587   8.403  17.856  0.00  0.00    +0.000 A 
ATOM     22  C   UNL     1       1.863   8.610  19.038  0.00  0.00    +0.000 A 
ATOM     23  C   UNL     1       1.074   9.870  19.251  0.00  0.00    +0.000 C 
ATOM     24  C   UNL     1       1.858   7.610  20.020  0.00  0.00    +0.000 A 
ATOM     25  C   UNL     1       2.576   6.426  19.831  0.00  0.00    +0.000 A 
ENDBRANCH  16  19
ENDBRANCH   6  16
TORSDOF 5
ENDMDL
MODEL 7
REMARK VINA RESULT:      -8.2      3.136      6.351
REMARK  Name = 
REMARK  7 active torsions:
REMARK  status: ('A' for Active; 'I' for Inactive)
REMARK    1  A    between atoms: C_1  and  C_2
REMARK    2  A    between atoms: C_2  and  O_3
REMARK    3  A    between atoms: O_3  and  C_4
REMARK    4  A    between atoms: C_7  and  C_8
REMARK    5  A    between atoms: N_13  and  S_14
REMARK    6  A    between atoms: S_14  and  C_17
REMARK    7  A    between atoms: C_20  and  C_21
REMARK                            x       y       z     vdW  Elec       q    Type
REMARK                         _______ _______ _______ _____ _____    ______ ____
ROOT
ATOM      1  C   UNL     1       6.530   5.042  17.518  0.00  0.00    +0.000 C 
ATOM      2  C   UNL     1       7.276   4.461  16.335  0.00  0.00    +0.000 C 
ATOM      3  C   UNL     1       6.730   4.102  15.167  0.00  0.00    +0.000 C 
ATOM      4  C   UNL     1       5.257   4.205  14.964  0.00  0.00    +0.000 C 
ATOM      5  C   UNL     1       4.502   4.134  16.293  0.00  0.00    +0.000 C 
ATOM      6  N   UNL     1       5.043   5.065  17.328  0.00  0.00    +0.000 NA
ENDROOT
BRANCH   1  10
ATOM      7  C   UNL     1       8.216   8.973  18.251  0.00  0.00    +0.000 A 
ATOM      8  C   UNL     1       7.228   8.812  17.281  0.00  0.00    +0.000 A 
ATOM      9  C   UNL     1       6.663   7.554  17.053  0.00  0.00    +0.000 A 
ATOM     10  C   UNL     1       7.086   6.439  17.790  0.00  0.00    +0.000 A 
ATOM     11  C   UNL     1       8.097   6.611  18.749  0.00  0.00    +0.000 A 
ATOM     12  C   UNL     1       8.664   7.868  18.972  0.00  0.00    +0.000 A 
BRANCH   7  13
ATOM     13  O   UNL     1       8.688  10.248  18.396  0.00  0.00    +0.000 OA
BRANCH  13  15
ATOM     14  C   UNL     1      10.670  11.307  19.164  0.00  0.00    +0.000 C 
ATOM     15  C   UNL     1       9.457  10.494  19.573  0.00  0.00    +0.000 C 
ENDBRANCH  13  15
ENDBRANCH   7  13
ENDBRANCH   1  10
BRANCH   6  16
ATOM     16  S   UNL     1       4.204   4.982  18.833  0.00  0.00    +0.000 S 
ATOM     17  O   UNL     1       3.349   3.812  18.802  0.00  0.00    +0.000 OA
ATOM     18  O   UNL     1       5.138   5.174  19.919  0.00  0.00    +0.000 OA
BRANCH  16  19
ATOM     19  C   UNL     1       3.153   6.421  18.807  0.00  0.00    +0.000 A 
ATOM     20  C   UNL     1       2.406   6.765  19.936  0.00  0.00    +0.000 A 
ATOM     21  C   UNL     1       1.674   7.957  19.944  0.00  0.00    +0.000 A 
ATOM     22  C   UNL     1       1.709   8.823  18.843  0.00  0.00    +0.000 A 
ATOM     23  C   UNL     1       0.956  10.122  18.857  0.00  0.00    +0.000 C 
ATOM     24  C   UNL     1       2.485   8.480  17.727  0.00  0.00    +0.000 A 
ATOM     25  C   UNL     1       3.204   7.281  17.705  0.00  0.00    +0.000 A 
ENDBRANCH  16  19
ENDBRANCH   6  16
TORSDOF 5
ENDMDL
MODEL 8
REMARK VINA RESULT:      -8.2      0.205      1.381
REMARK  Name = 
REMARK  7 active torsions:
REMARK  status: ('A' for Active; 'I' for Inactive)
REMARK    1  A    between atoms: C_1  and  C_2
REMARK    2  A    between atoms: C_2  and  O_3
REMARK    3  A    between atoms: O_3  and  C_4
REMARK    4  A    between atoms: C_7  and  C_8
REMARK    5  A    between atoms: N_13  and  S_14
REMARK    6  A    between atoms: S_14  and  C_17
REMARK    7  A    between atoms: C_20  and  C_21
REMARK                            x       y       z     vdW  Elec       q    Type
REMARK                         _______ _______ _______ _____ _____    ______ ____
ROOT
ATOM      1  C   UNL     1       3.001   4.955  17.907  0.00  0.00    +0.000 C 
ATOM      2  C   UNL     1       1.856   4.002  17.631  0.00  0.00    +0.000 C 
ATOM      3  C   UNL     1       1.780   2.732  18.045  0.00  0.00    +0.000 C 
ATOM      4  C   UNL     1       2.909   2.120  18.802  0.00  0.00    +0.000 C 
ATOM      5  C   UNL     1       4.234   2.815  18.489  0.00  0.00    +0.000 C 
ATOM      6  N   UNL     1       4.160   4.303  18.599  0.00  0.00    +0.000 NA
ENDROOT
BRANCH   1  10
ATOM      7  C   UNL     1       1.544   8.296  20.262  0.00  0.00    +0.000 A 
ATOM      8  C   UNL     1       1.903   8.492  18.929  0.00  0.00    +0.000 A 
ATOM      9  C   UNL     1       2.352   7.417  18.156  0.00  0.00    +0.000 A 
ATOM     10  C   UNL     1       2.454   6.133  18.711  0.00  0.00    +0.000 A 
ATOM     11  C   UNL     1       2.109   5.955  20.060  0.00  0.00    +0.000 A 
ATOM     12  C   UNL     1       1.665   7.030  20.833  0.00  0.00    +0.000 A 
BRANCH   7  13
ATOM     13  O   UNL     1       1.108   9.413  20.917  0.00  0.00    +0.000 OA
BRANCH  13  15
ATOM     14  C   UNL     1      -0.412   9.501  22.741  0.00  0.00    +0.000 C 
ATOM     15  C   UNL     1       1.038   9.310  22.339  0.00  0.00    +0.000 C 
ENDBRANCH  13  15
ENDBRANCH   7  13
ENDBRANCH   1  10
BRANCH   6  16
ATOM     16  S   UNL     1       5.649   5.095  18.236  0.00  0.00    +0.000 S 
ATOM     17  O   UNL     1       5.452   6.519  18.420  0.00  0.00    +0.000 OA
ATOM     18  O   UNL     1       6.735   4.416  18.906  0.00  0.00    +0.000 OA
BRANCH  16  19
ATOM     19  C   UNL     1       5.865   4.800  16.491  0.00  0.00    +0.000 A 
ATOM     20  C   UNL     1       7.064   5.150  15.863  0.00  0.00    +0.000 A 
ATOM     21  C   UNL     1       7.266   4.811  14.522  0.00  0.00    +0.000 A 
ATOM     22  C   UNL     1       6.292   4.096  13.812  0.00  0.00    +0.000 A 
ATOM     23  C   UNL     1       6.516   3.696  12.382  0.00  0.00    +0.000 C 
ATOM     24  C   UNL     1       5.107   3.726  14.461  0.00  0.00    +0.000 A 
ATOM     25  C   UNL     1       4.889   4.078  15.796  0.00  0.00    +0.000 A 
ENDBRANCH  16  19
ENDBRANCH   6  16
TORSDOF 5
ENDMDL
MODEL 9
REMARK VINA RESULT:      -8.2      1.183      1.707
REMARK  Name = 
REMARK  7 active torsions:
REMARK  status: ('A' for Active; 'I' for Inactive)
REMARK    1  A    between atoms: C_1  and  C_2
REMARK    2  A    between atoms: C_2  and  O_3
REMARK    3  A    between atoms: O_3  and  C_4
REMARK    4  A    between atoms: C_7  and  C_8
REMARK    5  A    between atoms: N_13  and  S_14
REMARK    6  A    between atoms: S_14  and  C_17
REMARK    7  A    between atoms: C_20  and  C_21
REMARK                            x       y       z     vdW  Elec       q    Type
REMARK                         _______ _______ _______ _____ _____    ______ ____
ROOT
ATOM      1  C   UNL     1       2.772   5.153  18.177  0.00  0.00    +0.000 C 
ATOM      2  C   UNL     1       1.570   4.234  18.105  0.00  0.00    +0.000 C 
ATOM      3  C   UNL     1       1.380   3.137  18.847  0.00  0.00    +0.000 C 
ATOM      4  C   UNL     1       2.427   2.691  19.809  0.00  0.00    +0.000 C 
ATOM      5  C   UNL     1       3.814   3.187  19.397  0.00  0.00    +0.000 C 
ATOM      6  N   UNL     1       3.850   4.648  19.090  0.00  0.00    +0.000 NA
ENDROOT
BRANCH   1  10
ATOM      7  C   UNL     1       1.489   9.107  19.423  0.00  0.00    +0.000 A 
ATOM      8  C   UNL     1       1.791   8.866  18.082  0.00  0.00    +0.000 A 
ATOM      9  C   UNL     1       2.184   7.590  17.668  0.00  0.00    +0.000 A 
ATOM     10  C   UNL     1       2.285   6.540  18.592  0.00  0.00    +0.000 A 
ATOM     11  C   UNL     1       1.999   6.803  19.942  0.00  0.00    +0.000 A 
ATOM     12  C   UNL     1       1.612   8.079  20.355  0.00  0.00    +0.000 A 
BRANCH   7  13
ATOM     13  O   UNL     1       1.106  10.387  19.711  0.00  0.00    +0.000 OA
BRANCH  13  15
ATOM     14  C   UNL     1      -1.163  10.390  19.006  0.00  0.00    +0.000 C 
ATOM     15  C   UNL     1      -0.230  10.540  20.192  0.00  0.00    +0.000 C 
ENDBRANCH  13  15
ENDBRANCH   7  13
ENDBRANCH   1  10
BRANCH   6  16
ATOM     16  S   UNL     1       5.408   5.213  18.613  0.00  0.00    +0.000 S 
ATOM     17  O   UNL     1       5.415   6.657  18.737  0.00  0.00    +0.000 OA
ATOM     18  O   UNL     1       6.429   4.420  19.260  0.00  0.00    +0.000 OA
BRANCH  16  19
ATOM     19  C   UNL     1       5.483   4.819  16.876  0.00  0.00    +0.000 A 
ATOM     20  C   UNL     1       5.505   5.842  15.925  0.00  0.00    +0.000 A 
ATOM     21  C   UNL     1       5.679   5.526  14.574  0.00  0.00    +0.000 A 
ATOM     22  C   UNL     1       5.864   4.197  14.170  0.00  0.00    +0.000 A 
ATOM     23  C   UNL     1       6.088   3.851  12.725  0.00  0.00    +0.000 C 
ATOM     24  C   UNL     1       5.869   3.183  15.137  0.00  0.00    +0.000 A 
ATOM     25  C   UNL     1       5.676   3.489  16.487  0.00  0.00    +0.000 A 
ENDBRANCH  16  19
ENDBRANCH   6  16
TORSDOF 5
ENDMDL
