MODEL 1
REMARK VINA RESULT:      -7.5      0.000      0.000
REMARK  Name = 
REMARK  4 active torsions:
REMARK  status: ('A' for Active; 'I' for Inactive)
REMARK    1  A    between atoms: C_1  and  C_2
REMARK    2  A    between atoms: C_5  and  S_6
REMARK    3  A    between atoms: S_6  and  C_7
REMARK    4  A    between atoms: C_7  and  C_8
REMARK                            x       y       z     vdW  Elec       q    Type
REMARK                         _______ _______ _______ _____ _____    ______ ____
ROOT
ATOM      1  C   UNL     1       5.123   4.890  18.592  0.00  0.00    +0.000 C 
ATOM      2  O   UNL     1       5.730   3.873  18.942  0.00  0.00    +0.000 OA
ATOM      3  N   UNL     1       3.799   5.165  18.972  0.00  0.00    +0.000 N 
ATOM      4  C   UNL     1       3.106   6.418  18.630  0.00  0.00    +0.000 C 
ATOM      5  C   UNL     1       2.280   7.016  19.758  0.00  0.00    +0.000 C 
ATOM      6  O   UNL     1       1.989   8.211  19.800  0.00  0.00    +0.000 OA
ATOM      7  N   UNL     1       1.725   6.127  20.631  0.00  0.00    +0.000 N 
ATOM      8  C   UNL     1       1.992   4.756  20.584  0.00  0.00    +0.000 A 
ATOM      9  C   UNL     1       1.251   3.914  21.418  0.00  0.00    +0.000 A 
ATOM     10  C   UNL     1       1.489   2.542  21.409  0.00  0.00    +0.000 A 
ATOM     11  C   UNL     1       2.477   2.019  20.578  0.00  0.00    +0.000 A 
ATOM     12  C   UNL     1       3.240   2.865  19.767  0.00  0.00    +0.000 A 
ATOM     13  C   UNL     1       3.018   4.247  19.758  0.00  0.00    +0.000 A 
ATOM     14  H   UNL     1       1.082   6.506  21.312  0.00  0.00    +0.000 HD
ENDROOT
BRANCH   1  15
ATOM     15  C   UNL     1       5.850   5.982  17.804  0.00  0.00    +0.000 C 
BRANCH  15  16
ATOM     16  S   UNL     1       7.511   5.480  17.265  0.00  0.00    +0.000 S 
BRANCH  16  21
ATOM     17  C   UNL     1       5.726   3.350  12.488  0.00  0.00    +0.000 C 
ATOM     18  C   UNL     1       6.407   4.105  13.568  0.00  0.00    +0.000 A 
ATOM     19  N   UNL     1       7.338   5.019  13.388  0.00  0.00    +0.000 NA
ATOM     20  N   UNL     1       7.780   5.549  14.585  0.00  0.00    +0.000 NA
ATOM     21  C   UNL     1       7.160   5.017  15.617  0.00  0.00    +0.000 A 
ATOM     22  S   UNL     1       6.009   3.820  15.215  0.00  0.00    +0.000 S 
ENDBRANCH  16  21
ENDBRANCH  15  16
ENDBRANCH   1  15
TORSDOF 3
ENDMDL
MODEL 2
REMARK VINA RESULT:      -7.1      1.438      1.508
REMARK  Name = 
REMARK  4 active torsions:
REMARK  status: ('A' for Active; 'I' for Inactive)
REMARK    1  A    between atoms: C_1  and  C_2
REMARK    2  A    between atoms: C_5  and  S_6
REMARK    3  A    between atoms: S_6  and  C_7
REMARK    4  A    between atoms: C_7  and  C_8
REMARK                            x       y       z     vdW  Elec       q    Type
REMARK                         _______ _______ _______ _____ _____    ______ ____
ROOT
ATOM      1  C   UNL     1       5.311   4.728  19.201  0.00  0.00    +0.000 C 
ATOM      2  O   UNL     1       5.750   3.574  19.230  0.00  0.00    +0.000 OA
ATOM      3  N   UNL     1       3.941   5.029  19.123  0.00  0.00    +0.000 N 
ATOM      4  C   UNL     1       3.413   6.402  19.180  0.00  0.00    +0.000 C 
ATOM      5  C   UNL     1       2.170   6.570  20.038  0.00  0.00    +0.000 C 
ATOM      6  O   UNL     1       1.847   7.652  20.526  0.00  0.00    +0.000 OA
ATOM      7  N   UNL     1       1.331   5.495  20.095  0.00  0.00    +0.000 N 
ATOM      8  C   UNL     1       1.640   4.264  19.512  0.00  0.00    +0.000 A 
ATOM      9  C   UNL     1       0.647   3.281  19.488  0.00  0.00    +0.000 A 
ATOM     10  C   UNL     1       0.914   2.037  18.923  0.00  0.00    +0.000 A 
ATOM     11  C   UNL     1       2.177   1.775  18.397  0.00  0.00    +0.000 A 
ATOM     12  C   UNL     1       3.180   2.749  18.448  0.00  0.00    +0.000 A 
ATOM     13  C   UNL     1       2.935   4.006  19.011  0.00  0.00    +0.000 A 
ATOM     14  H   UNL     1       0.449   5.638  20.568  0.00  0.00    +0.000 HD
ENDROOT
BRANCH   1  15
ATOM     15  C   UNL     1       6.264   5.914  19.373  0.00  0.00    +0.000 C 
BRANCH  15  16
ATOM     16  S   UNL     1       7.654   5.881  18.205  0.00  0.00    +0.000 S 
BRANCH  16  21
ATOM     17  C   UNL     1       5.387   4.083  13.498  0.00  0.00    +0.000 C 
ATOM     18  C   UNL     1       5.815   4.846  14.695  0.00  0.00    +0.000 A 
ATOM     19  N   UNL     1       5.417   6.062  15.006  0.00  0.00    +0.000 NA
ATOM     20  N   UNL     1       5.985   6.506  16.184  0.00  0.00    +0.000 NA
ATOM     21  C   UNL     1       6.784   5.605  16.716  0.00  0.00    +0.000 A 
ATOM     22  S   UNL     1       6.920   4.159  15.816  0.00  0.00    +0.000 S 
ENDBRANCH  16  21
ENDBRANCH  15  16
ENDBRANCH   1  15
TORSDOF 3
ENDMDL
MODEL 3
REMARK VINA RESULT:      -6.9      1.155      1.200
REMARK  Name = 
REMARK  4 active torsions:
REMARK  status: ('A' for Active; 'I' for Inactive)
REMARK    1  A    between atoms: C_1  and  C_2
REMARK    2  A    between atoms: C_5  and  S_6
REMARK    3  A    between atoms: S_6  and  C_7
REMARK    4  A    between atoms: C_7  and  C_8
REMARK                            x       y       z     vdW  Elec       q    Type
REMARK                         _______ _______ _______ _____ _____    ______ ____
ROOT
ATOM      1  C   UNL     1       5.275   4.700  18.899  0.00  0.00    +0.000 C 
ATOM      2  O   UNL     1       5.705   3.544  18.961  0.00  0.00    +0.000 OA
ATOM      3  N   UNL     1       3.910   5.020  18.989  0.00  0.00    +0.000 N 
ATOM      4  C   UNL     1       3.406   6.403  19.006  0.00  0.00    +0.000 C 
ATOM      5  C   UNL     1       2.297   6.663  20.014  0.00  0.00    +0.000 C 
ATOM      6  O   UNL     1       2.055   7.787  20.452  0.00  0.00    +0.000 OA
ATOM      7  N   UNL     1       1.466   5.613  20.274  0.00  0.00    +0.000 N 
ATOM      8  C   UNL     1       1.680   4.334  19.756  0.00  0.00    +0.000 A 
ATOM      9  C   UNL     1       0.686   3.372  19.952  0.00  0.00    +0.000 A 
ATOM     10  C   UNL     1       0.862   2.081  19.458  0.00  0.00    +0.000 A 
ATOM     11  C   UNL     1       2.035   1.754  18.784  0.00  0.00    +0.000 A 
ATOM     12  C   UNL     1       3.044   2.709  18.615  0.00  0.00    +0.000 A 
ATOM     13  C   UNL     1       2.890   4.011  19.102  0.00  0.00    +0.000 A 
ATOM     14  H   UNL     1       0.661   5.810  20.853  0.00  0.00    +0.000 HD
ENDROOT
BRANCH   1  15
ATOM     15  C   UNL     1       6.252   5.877  18.839  0.00  0.00    +0.000 C 
BRANCH  15  16
ATOM     16  S   UNL     1       5.891   7.030  17.483  0.00  0.00    +0.000 S 
BRANCH  16  21
ATOM     17  C   UNL     1       6.258   3.606  13.161  0.00  0.00    +0.000 C 
ATOM     18  C   UNL     1       6.494   4.558  14.273  0.00  0.00    +0.000 A 
ATOM     19  N   UNL     1       7.659   5.082  14.593  0.00  0.00    +0.000 NA
ATOM     20  N   UNL     1       7.562   5.937  15.673  0.00  0.00    +0.000 NA
ATOM     21  C   UNL     1       6.327   6.029  16.119  0.00  0.00    +0.000 A 
ATOM     22  S   UNL     1       5.194   5.068  15.274  0.00  0.00    +0.000 S 
ENDBRANCH  16  21
ENDBRANCH  15  16
ENDBRANCH   1  15
TORSDOF 3
ENDMDL
MODEL 4
REMARK VINA RESULT:      -6.8      2.784      6.588
REMARK  Name = 
REMARK  4 active torsions:
REMARK  status: ('A' for Active; 'I' for Inactive)
REMARK    1  A    between atoms: C_1  and  C_2
REMARK    2  A    between atoms: C_5  and  S_6
REMARK    3  A    between atoms: S_6  and  C_7
REMARK    4  A    between atoms: C_7  and  C_8
REMARK                            x       y       z     vdW  Elec       q    Type
REMARK                         _______ _______ _______ _____ _____    ______ ____
ROOT
ATOM      1  C   UNL     1       4.592   3.938  17.987  0.00  0.00    +0.000 C 
ATOM      2  O   UNL     1       3.706   3.469  17.266  0.00  0.00    +0.000 OA
ATOM      3  N   UNL     1       5.808   4.434  17.488  0.00  0.00    +0.000 N 
ATOM      4  C   UNL     1       6.826   5.076  18.337  0.00  0.00    +0.000 C 
ATOM      5  C   UNL     1       7.460   6.321  17.738  0.00  0.00    +0.000 C 
ATOM      6  O   UNL     1       7.990   7.188  18.430  0.00  0.00    +0.000 OA
ATOM      7  N   UNL     1       7.569   6.343  16.378  0.00  0.00    +0.000 N 
ATOM      8  C   UNL     1       7.022   5.351  15.560  0.00  0.00    +0.000 A 
ATOM      9  C   UNL     1       7.327   5.383  14.197  0.00  0.00    +0.000 A 
ATOM     10  C   UNL     1       6.798   4.417  13.344  0.00  0.00    +0.000 A 
ATOM     11  C   UNL     1       5.955   3.433  13.855  0.00  0.00    +0.000 A 
ATOM     12  C   UNL     1       5.625   3.420  15.214  0.00  0.00    +0.000 A 
ATOM     13  C   UNL     1       6.145   4.379  16.090  0.00  0.00    +0.000 A 
ATOM     14  H   UNL     1       8.091   7.112  15.981  0.00  0.00    +0.000 HD
ENDROOT
BRANCH   1  15
ATOM     15  C   UNL     1       4.345   4.114  19.488  0.00  0.00    +0.000 C 
BRANCH  15  16
ATOM     16  S   UNL     1       2.581   4.219  19.908  0.00  0.00    +0.000 S 
BRANCH  16  21
ATOM     17  C   UNL     1       2.059   9.385  18.017  0.00  0.00    +0.000 C 
ATOM     18  C   UNL     1       2.090   8.136  18.815  0.00  0.00    +0.000 A 
ATOM     19  N   UNL     1       1.742   8.032  20.081  0.00  0.00    +0.000 NA
ATOM     20  N   UNL     1       1.873   6.739  20.548  0.00  0.00    +0.000 NA
ATOM     21  C   UNL     1       2.308   5.920  19.614  0.00  0.00    +0.000 A 
ATOM     22  S   UNL     1       2.610   6.661  18.105  0.00  0.00    +0.000 S 
ENDBRANCH  16  21
ENDBRANCH  15  16
ENDBRANCH   1  15
TORSDOF 3
ENDMDL
MODEL 5
REMARK VINA RESULT:      -6.8      1.671      2.916
REMARK  Name = 
REMARK  4 active torsions:
REMARK  status: ('A' for Active; 'I' for Inactive)
REMARK    1  A    between atoms: C_1  and  C_2
REMARK    2  A    between atoms: C_5  and  S_6
REMARK    3  A    between atoms: S_6  and  C_7
REMARK    4  A    between atoms: C_7  and  C_8
REMARK                            x       y       z     vdW  Elec       q    Type
REMARK                         _______ _______ _______ _____ _____    ______ ____
ROOT
ATOM      1  C   UNL     1       5.209   5.192  18.193  0.00  0.00    +0.000 C 
ATOM      2  O   UNL     1       4.860   6.361  17.996  0.00  0.00    +0.000 OA
ATOM      3  N   UNL     1       4.429   4.266  18.905  0.00  0.00    +0.000 N 
ATOM      4  C   UNL     1       4.803   2.851  19.062  0.00  0.00    +0.000 C 
ATOM      5  C   UNL     1       3.655   1.868  18.896  0.00  0.00    +0.000 C 
ATOM      6  O   UNL     1       3.835   0.691  18.587  0.00  0.00    +0.000 OA
ATOM      7  N   UNL     1       2.425   2.313  19.283  0.00  0.00    +0.000 N 
ATOM      8  C   UNL     1       2.191   3.629  19.688  0.00  0.00    +0.000 A 
ATOM      9  C   UNL     1       0.934   3.940  20.215  0.00  0.00    +0.000 A 
ATOM     10  C   UNL     1       0.656   5.241  20.625  0.00  0.00    +0.000 A 
ATOM     11  C   UNL     1       1.628   6.230  20.493  0.00  0.00    +0.000 A 
ATOM     12  C   UNL     1       2.875   5.925  19.937  0.00  0.00    +0.000 A 
ATOM     13  C   UNL     1       3.178   4.625  19.518  0.00  0.00    +0.000 A 
ATOM     14  H   UNL     1       1.679   1.630  19.284  0.00  0.00    +0.000 HD
ENDROOT
BRANCH   1  15
ATOM     15  C   UNL     1       6.490   4.657  17.547  0.00  0.00    +0.000 C 
BRANCH  15  16
ATOM     16  S   UNL     1       7.313   5.880  16.487  0.00  0.00    +0.000 S 
BRANCH  16  21
ATOM     17  C   UNL     1       5.772   2.980  12.043  0.00  0.00    +0.000 C 
ATOM     18  C   UNL     1       6.409   3.895  13.020  0.00  0.00    +0.000 A 
ATOM     19  N   UNL     1       7.390   4.733  12.752  0.00  0.00    +0.000 NA
ATOM     20  N   UNL     1       7.770   5.456  13.865  0.00  0.00    +0.000 NA
ATOM     21  C   UNL     1       7.058   5.139  14.926  0.00  0.00    +0.000 A 
ATOM     22  S   UNL     1       5.886   3.925  14.656  0.00  0.00    +0.000 S 
ENDBRANCH  16  21
ENDBRANCH  15  16
ENDBRANCH   1  15
TORSDOF 3
ENDMDL
MODEL 6
REMARK VINA RESULT:      -6.8      3.085      6.874
REMARK  Name = 
REMARK  4 active torsions:
REMARK  status: ('A' for Active; 'I' for Inactive)
REMARK    1  A    between atoms: C_1  and  C_2
REMARK    2  A    between atoms: C_5  and  S_6
REMARK    3  A    between atoms: S_6  and  C_7
REMARK    4  A    between atoms: C_7  and  C_8
REMARK                            x       y       z     vdW  Elec       q    Type
REMARK                         _______ _______ _______ _____ _____    ______ ____
ROOT
ATOM      1  C   UNL     1       4.243   4.918  18.310  0.00  0.00    +0.000 C 
ATOM      2  O   UNL     1       3.293   4.521  17.628  0.00  0.00    +0.000 OA
ATOM      3  N   UNL     1       5.538   5.098  17.795  0.00  0.00    +0.000 N 
ATOM      4  C   UNL     1       6.648   5.657  18.585  0.00  0.00    +0.000 C 
ATOM      5  C   UNL     1       7.516   6.658  17.841  0.00  0.00    +0.000 C 
ATOM      6  O   UNL     1       8.194   7.504  18.423  0.00  0.00    +0.000 OA
ATOM      7  N   UNL     1       7.645   6.458  16.497  0.00  0.00    +0.000 N 
ATOM      8  C   UNL     1       6.931   5.475  15.808  0.00  0.00    +0.000 A 
ATOM      9  C   UNL     1       7.253   5.246  14.468  0.00  0.00    +0.000 A 
ATOM     10  C   UNL     1       6.561   4.281  13.741  0.00  0.00    +0.000 A 
ATOM     11  C   UNL     1       5.539   3.559  14.352  0.00  0.00    +0.000 A 
ATOM     12  C   UNL     1       5.195   3.809  15.685  0.00  0.00    +0.000 A 
ATOM     13  C   UNL     1       5.877   4.774  16.435  0.00  0.00    +0.000 A 
ATOM     14  H   UNL     1       8.310   7.048  16.016  0.00  0.00    +0.000 HD
ENDROOT
BRANCH   1  15
ATOM     15  C   UNL     1       4.014   5.357  19.758  0.00  0.00    +0.000 C 
BRANCH  15  16
ATOM     16  S   UNL     1       2.258   5.395  20.218  0.00  0.00    +0.000 S 
BRANCH  16  21
ATOM     17  C   UNL     1       0.755  10.712  20.148  0.00  0.00    +0.000 C 
ATOM     18  C   UNL     1       1.253   9.348  19.847  0.00  0.00    +0.000 A 
ATOM     19  N   UNL     1       1.781   8.966  18.703  0.00  0.00    +0.000 NA
ATOM     20  N   UNL     1       2.156   7.636  18.726  0.00  0.00    +0.000 NA
ATOM     21  C   UNL     1       1.901   7.073  19.888  0.00  0.00    +0.000 A 
ATOM     22  S   UNL     1       1.169   8.109  21.033  0.00  0.00    +0.000 S 
ENDBRANCH  16  21
ENDBRANCH  15  16
ENDBRANCH   1  15
TORSDOF 3
ENDMDL
MODEL 7
REMARK VINA RESULT:      -6.8      3.454      4.996
REMARK  Name = 
REMARK  4 active torsions:
REMARK  status: ('A' for Active; 'I' for Inactive)
REMARK    1  A    between atoms: C_1  and  C_2
REMARK    2  A    between atoms: C_5  and  S_6
REMARK    3  A    between atoms: S_6  and  C_7
REMARK    4  A    between atoms: C_7  and  C_8
REMARK                            x       y       z     vdW  Elec       q    Type
REMARK                         _______ _______ _______ _____ _____    ______ ____
ROOT
ATOM      1  C   UNL     1       2.018   7.619  19.552  0.00  0.00    +0.000 C 
ATOM      2  O   UNL     1       1.973   6.900  20.556  0.00  0.00    +0.000 OA
ATOM      3  N   UNL     1       1.437   8.897  19.495  0.00  0.00    +0.000 N 
ATOM      4  C   UNL     1       1.569   9.789  18.331  0.00  0.00    +0.000 C 
ATOM      5  C   UNL     1       1.835  11.246  18.674  0.00  0.00    +0.000 C 
ATOM      6  O   UNL     1       2.367  12.023  17.882  0.00  0.00    +0.000 OA
ATOM      7  N   UNL     1       1.292  11.696  19.842  0.00  0.00    +0.000 N 
ATOM      8  C   UNL     1       0.637  10.854  20.743  0.00  0.00    +0.000 A 
ATOM      9  C   UNL     1      -0.021  11.439  21.828  0.00  0.00    +0.000 A 
ATOM     10  C   UNL     1      -0.682  10.636  22.755  0.00  0.00    +0.000 A 
ATOM     11  C   UNL     1      -0.669   9.252  22.603  0.00  0.00    +0.000 A 
ATOM     12  C   UNL     1       0.016   8.665  21.534  0.00  0.00    +0.000 A 
ATOM     13  C   UNL     1       0.686   9.451  20.590  0.00  0.00    +0.000 A 
ATOM     14  H   UNL     1       1.366  12.688  20.020  0.00  0.00    +0.000 HD
ENDROOT
BRANCH   1  15
ATOM     15  C   UNL     1       2.835   7.182  18.335  0.00  0.00    +0.000 C 
BRANCH  15  16
ATOM     16  S   UNL     1       4.092   5.933  18.735  0.00  0.00    +0.000 S 
BRANCH  16  21
ATOM     17  C   UNL     1       6.020   4.002  13.930  0.00  0.00    +0.000 C 
ATOM     18  C   UNL     1       5.574   4.822  15.083  0.00  0.00    +0.000 A 
ATOM     19  N   UNL     1       5.600   6.138  15.137  0.00  0.00    +0.000 NA
ATOM     20  N   UNL     1       5.116   6.615  16.339  0.00  0.00    +0.000 NA
ATOM     21  C   UNL     1       4.739   5.641  17.140  0.00  0.00    +0.000 A 
ATOM     22  S   UNL     1       4.963   4.072  16.501  0.00  0.00    +0.000 S 
ENDBRANCH  16  21
ENDBRANCH  15  16
ENDBRANCH   1  15
TORSDOF 3
ENDMDL
MODEL 8
REMARK VINA RESULT:      -6.8      1.080      1.080
REMARK  Name = 
REMARK  4 active torsions:
REMARK  status: ('A' for Active; 'I' for Inactive)
REMARK    1  A    between atoms: C_1  and  C_2
REMARK    2  A    between atoms: C_5  and  S_6
REMARK    3  A    between atoms: S_6  and  C_7
REMARK    4  A    between atoms: C_7  and  C_8
REMARK                            x       y       z     vdW  Elec       q    Type
REMARK                         _______ _______ _______ _____ _____    ______ ____
ROOT
ATOM      1  C   UNL     1       5.408   5.322  18.583  0.00  0.00    +0.000 C 
ATOM      2  O   UNL     1       6.176   4.446  18.994  0.00  0.00    +0.000 OA
ATOM      3  N   UNL     1       4.059   5.405  18.968  0.00  0.00    +0.000 N 
ATOM      4  C   UNL     1       3.168   6.501  18.550  0.00  0.00    +0.000 C 
ATOM      5  C   UNL     1       2.263   7.036  19.648  0.00  0.00    +0.000 C 
ATOM      6  O   UNL     1       1.780   8.167  19.611  0.00  0.00    +0.000 OA
ATOM      7  N   UNL     1       1.866   6.134  20.592  0.00  0.00    +0.000 N 
ATOM      8  C   UNL     1       2.354   4.826  20.638  0.00  0.00    +0.000 A 
ATOM      9  C   UNL     1       1.766   3.938  21.542  0.00  0.00    +0.000 A 
ATOM     10  C   UNL     1       2.226   2.626  21.626  0.00  0.00    +0.000 A 
ATOM     11  C   UNL     1       3.280   2.211  20.817  0.00  0.00    +0.000 A 
ATOM     12  C   UNL     1       3.889   3.109  19.933  0.00  0.00    +0.000 A 
ATOM     13  C   UNL     1       3.444   4.431  19.831  0.00  0.00    +0.000 A 
ATOM     14  H   UNL     1       1.175   6.453  21.256  0.00  0.00    +0.000 HD
ENDROOT
BRANCH   1  15
ATOM     15  C   UNL     1       5.941   6.458  17.707  0.00  0.00    +0.000 C 
BRANCH  15  16
ATOM     16  S   UNL     1       7.420   5.989  16.762  0.00  0.00    +0.000 S 
BRANCH  16  21
ATOM     17  C   UNL     1       5.900   3.322  12.167  0.00  0.00    +0.000 C 
ATOM     18  C   UNL     1       6.011   3.923  13.518  0.00  0.00    +0.000 A 
ATOM     19  N   UNL     1       5.118   3.806  14.479  0.00  0.00    +0.000 NA
ATOM     20  N   UNL     1       5.503   4.474  15.625  0.00  0.00    +0.000 NA
ATOM     21  C   UNL     1       6.673   5.060  15.484  0.00  0.00    +0.000 A 
ATOM     22  S   UNL     1       7.384   4.863  13.943  0.00  0.00    +0.000 S 
ENDBRANCH  16  21
ENDBRANCH  15  16
ENDBRANCH   1  15
TORSDOF 3
ENDMDL
MODEL 9
REMARK VINA RESULT:      -6.8      3.837      6.634
REMARK  Name = 
REMARK  4 active torsions:
REMARK  status: ('A' for Active; 'I' for Inactive)
REMARK    1  A    between atoms: C_1  and  C_2
REMARK    2  A    between atoms: C_5  and  S_6
REMARK    3  A    between atoms: S_6  and  C_7
REMARK    4  A    between atoms: C_7  and  C_8
REMARK                            x       y       z     vdW  Elec       q    Type
REMARK                         _______ _______ _______ _____ _____    ______ ____
ROOT
ATOM      1  C   UNL     1       2.480   6.468  18.124  0.00  0.00    +0.000 C 
ATOM      2  O   UNL     1       1.435   6.210  17.518  0.00  0.00    +0.000 OA
ATOM      3  N   UNL     1       3.273   5.486  18.742  0.00  0.00    +0.000 N 
ATOM      4  C   UNL     1       4.564   5.782  19.385  0.00  0.00    +0.000 C 
ATOM      5  C   UNL     1       5.663   4.771  19.099  0.00  0.00    +0.000 C 
ATOM      6  O   UNL     1       6.857   5.051  19.192  0.00  0.00    +0.000 OA
ATOM      7  N   UNL     1       5.257   3.483  18.907  0.00  0.00    +0.000 N 
ATOM      8  C   UNL     1       3.910   3.117  18.845  0.00  0.00    +0.000 A 
ATOM      9  C   UNL     1       3.601   1.755  18.805  0.00  0.00    +0.000 A 
ATOM     10  C   UNL     1       2.271   1.346  18.736  0.00  0.00    +0.000 A 
ATOM     11  C   UNL     1       1.257   2.299  18.691  0.00  0.00    +0.000 A 
ATOM     12  C   UNL     1       1.568   3.663  18.699  0.00  0.00    +0.000 A 
ATOM     13  C   UNL     1       2.897   4.098  18.769  0.00  0.00    +0.000 A 
ATOM     14  H   UNL     1       5.986   2.787  18.831  0.00  0.00    +0.000 HD
ENDROOT
BRANCH   1  15
ATOM     15  C   UNL     1       3.032   7.895  18.123  0.00  0.00    +0.000 C 
BRANCH  15  16
ATOM     16  S   UNL     1       1.731   9.158  18.009  0.00  0.00    +0.000 S 
BRANCH  16  21
ATOM     17  C   UNL     1      -0.530  10.064  22.969  0.00  0.00    +0.000 C 
ATOM     18  C   UNL     1       0.239   9.571  21.800  0.00  0.00    +0.000 A 
ATOM     19  N   UNL     1       1.076   8.554  21.814  0.00  0.00    +0.000 NA
ATOM     20  N   UNL     1       1.638   8.331  20.571  0.00  0.00    +0.000 NA
ATOM     21  C   UNL     1       1.196   9.184  19.671  0.00  0.00    +0.000 A 
ATOM     22  S   UNL     1       0.082  10.333  20.270  0.00  0.00    +0.000 S 
ENDBRANCH  16  21
ENDBRANCH  15  16
ENDBRANCH   1  15
TORSDOF 3
ENDMDL
