MODEL 1
REMARK VINA RESULT:      -6.8      0.000      0.000
REMARK  Name = 
REMARK  3 active torsions:
REMARK  status: ('A' for Active; 'I' for Inactive)
REMARK    1  A    between atoms: C_1  and  N_2
REMARK    2  A    between atoms: C_13  and  C_14
REMARK    3  A    between atoms: C_14  and  O_16
REMARK                            x       y       z     vdW  Elec       q    Type
REMARK                         _______ _______ _______ _____ _____    ______ ____
ROOT
ATOM      1  C   UNL     1       7.550   8.049  17.367  0.00  0.00    +0.000 C 
ATOM      2  N   UNL     1       6.925   6.758  17.650  0.00  0.00    +0.000 NA
ATOM      3  C   UNL     1       7.169   5.787  16.585  0.00  0.00    +0.000 C 
ATOM      4  C   UNL     1       6.664   4.421  17.038  0.00  0.00    +0.000 C 
ATOM      5  C   UNL     1       5.246   4.476  17.544  0.00  0.00    +0.000 A 
ATOM      6  N   UNL     1       4.598   3.292  17.586  0.00  0.00    +0.000 NA
ATOM      7  C   UNL     1       3.351   3.241  18.062  0.00  0.00    +0.000 A 
ATOM      8  C   UNL     1       2.781   1.977  18.113  0.00  0.00    +0.000 A 
ATOM      9  C   UNL     1       1.491   1.767  18.584  0.00  0.00    +0.000 A 
ATOM     10  C   UNL     1       0.754   2.850  19.038  0.00  0.00    +0.000 A 
ATOM     11  C   UNL     1       1.318   4.135  19.010  0.00  0.00    +0.000 A 
ATOM     12  C   UNL     1       2.633   4.374  18.503  0.00  0.00    +0.000 A 
ATOM     13  C   UNL     1       3.327   5.627  18.410  0.00  0.00    +0.000 A 
ATOM     14  C   UNL     1       4.673   5.668  17.970  0.00  0.00    +0.000 A 
ATOM     15  C   UNL     1       5.480   6.947  17.873  0.00  0.00    +0.000 C 
ENDROOT
BRANCH  13  16
ATOM     16  C   UNL     1       2.688   6.940  18.814  0.00  0.00    +0.000 C 
ATOM     17  O   UNL     1       2.211   7.724  18.017  0.00  0.00    +0.000 OA
BRANCH  16  18
ATOM     18  O   UNL     1       2.600   7.159  20.137  0.00  0.00    +0.000 OA
ATOM     19  H   UNL     1       3.302   7.686  20.546  0.00  0.00    +0.000 HD
ENDBRANCH  16  18
ENDBRANCH  13  16
TORSDOF 2
ENDMDL
MODEL 2
REMARK VINA RESULT:      -6.8      2.643      3.844
REMARK  Name = 
REMARK  3 active torsions:
REMARK  status: ('A' for Active; 'I' for Inactive)
REMARK    1  A    between atoms: C_1  and  N_2
REMARK    2  A    between atoms: C_13  and  C_14
REMARK    3  A    between atoms: C_14  and  O_16
REMARK                            x       y       z     vdW  Elec       q    Type
REMARK                         _______ _______ _______ _____ _____    ______ ____
ROOT
ATOM      1  C   UNL     1       6.323   3.695  13.940  0.00  0.00    +0.000 C 
ATOM      2  N   UNL     1       5.482   4.531  14.795  0.00  0.00    +0.000 NA
ATOM      3  C   UNL     1       6.212   5.681  15.325  0.00  0.00    +0.000 C 
ATOM      4  C   UNL     1       5.228   6.604  16.036  0.00  0.00    +0.000 C 
ATOM      5  C   UNL     1       4.376   5.868  17.037  0.00  0.00    +0.000 A 
ATOM      6  N   UNL     1       3.780   6.639  17.971  0.00  0.00    +0.000 NA
ATOM      7  C   UNL     1       2.972   6.076  18.873  0.00  0.00    +0.000 A 
ATOM      8  C   UNL     1       2.365   6.949  19.762  0.00  0.00    +0.000 A 
ATOM      9  C   UNL     1       1.499   6.509  20.755  0.00  0.00    +0.000 A 
ATOM     10  C   UNL     1       1.213   5.156  20.851  0.00  0.00    +0.000 A 
ATOM     11  C   UNL     1       1.805   4.256  19.949  0.00  0.00    +0.000 A 
ATOM     12  C   UNL     1       2.719   4.687  18.940  0.00  0.00    +0.000 A 
ATOM     13  C   UNL     1       3.396   3.882  17.963  0.00  0.00    +0.000 A 
ATOM     14  C   UNL     1       4.198   4.491  16.966  0.00  0.00    +0.000 A 
ATOM     15  C   UNL     1       4.920   3.712  15.886  0.00  0.00    +0.000 C 
ENDROOT
BRANCH  13  16
ATOM     16  C   UNL     1       3.257   2.375  17.916  0.00  0.00    +0.000 C 
ATOM     17  O   UNL     1       4.015   1.616  18.487  0.00  0.00    +0.000 OA
BRANCH  16  18
ATOM     18  O   UNL     1       2.177   1.912  17.264  0.00  0.00    +0.000 OA
ATOM     19  H   UNL     1       2.008   0.959  17.307  0.00  0.00    +0.000 HD
ENDBRANCH  16  18
ENDBRANCH  13  16
TORSDOF 2
ENDMDL
MODEL 3
REMARK VINA RESULT:      -6.2      2.807      4.967
REMARK  Name = 
REMARK  3 active torsions:
REMARK  status: ('A' for Active; 'I' for Inactive)
REMARK    1  A    between atoms: C_1  and  N_2
REMARK    2  A    between atoms: C_13  and  C_14
REMARK    3  A    between atoms: C_14  and  O_16
REMARK                            x       y       z     vdW  Elec       q    Type
REMARK                         _______ _______ _______ _____ _____    ______ ____
ROOT
ATOM      1  C   UNL     1      -0.139   9.783  21.194  0.00  0.00    +0.000 C 
ATOM      2  N   UNL     1       0.973   9.363  20.342  0.00  0.00    +0.000 NA
ATOM      3  C   UNL     1       0.827   9.851  18.973  0.00  0.00    +0.000 C 
ATOM      4  C   UNL     1       2.107   9.547  18.202  0.00  0.00    +0.000 C 
ATOM      5  C   UNL     1       2.521   8.104  18.329  0.00  0.00    +0.000 A 
ATOM      6  N   UNL     1       3.383   7.662  17.389  0.00  0.00    +0.000 NA
ATOM      7  C   UNL     1       3.837   6.408  17.449  0.00  0.00    +0.000 A 
ATOM      8  C   UNL     1       4.756   6.055  16.471  0.00  0.00    +0.000 A 
ATOM      9  C   UNL     1       5.315   4.785  16.406  0.00  0.00    +0.000 A 
ATOM     10  C   UNL     1       4.961   3.843  17.360  0.00  0.00    +0.000 A 
ATOM     11  C   UNL     1       4.046   4.184  18.368  0.00  0.00    +0.000 A 
ATOM     12  C   UNL     1       3.439   5.476  18.433  0.00  0.00    +0.000 A 
ATOM     13  C   UNL     1       2.490   5.956  19.398  0.00  0.00    +0.000 A 
ATOM     14  C   UNL     1       2.064   7.306  19.371  0.00  0.00    +0.000 A 
ATOM     15  C   UNL     1       1.088   7.893  20.371  0.00  0.00    +0.000 C 
ENDROOT
BRANCH  13  16
ATOM     16  C   UNL     1       1.940   5.075  20.501  0.00  0.00    +0.000 C 
ATOM     17  O   UNL     1       0.944   4.391  20.375  0.00  0.00    +0.000 OA
BRANCH  16  18
ATOM     18  O   UNL     1       2.675   5.026  21.625  0.00  0.00    +0.000 OA
ATOM     19  H   UNL     1       2.346   5.520  22.391  0.00  0.00    +0.000 HD
ENDBRANCH  16  18
ENDBRANCH  13  16
TORSDOF 2
ENDMDL
MODEL 4
REMARK VINA RESULT:      -6.2      5.917      8.254
REMARK  Name = 
REMARK  3 active torsions:
REMARK  status: ('A' for Active; 'I' for Inactive)
REMARK    1  A    between atoms: C_1  and  N_2
REMARK    2  A    between atoms: C_13  and  C_14
REMARK    3  A    between atoms: C_14  and  O_16
REMARK                            x       y       z     vdW  Elec       q    Type
REMARK                         _______ _______ _______ _____ _____    ______ ____
ROOT
ATOM      1  C   UNL     1      -2.504  13.748  22.629  0.00  0.00    +0.000 C 
ATOM      2  N   UNL     1      -1.591  13.184  21.636  0.00  0.00    +0.000 NA
ATOM      3  C   UNL     1      -2.165  13.205  20.292  0.00  0.00    +0.000 C 
ATOM      4  C   UNL     1      -1.092  12.792  19.290  0.00  0.00    +0.000 C 
ATOM      5  C   UNL     1      -0.415  11.504  19.679  0.00  0.00    +0.000 A 
ATOM      6  N   UNL     1       0.242  10.869  18.684  0.00  0.00    +0.000 NA
ATOM      7  C   UNL     1       0.907   9.742  18.948  0.00  0.00    +0.000 A 
ATOM      8  C   UNL     1       1.592   9.186  17.878  0.00  0.00    +0.000 A 
ATOM      9  C   UNL     1       2.329   8.014  18.001  0.00  0.00    +0.000 A 
ATOM     10  C   UNL     1       2.400   7.389  19.236  0.00  0.00    +0.000 A 
ATOM     11  C   UNL     1       1.728   7.944  20.336  0.00  0.00    +0.000 A 
ATOM     12  C   UNL     1       0.943   9.133  20.222  0.00  0.00    +0.000 A 
ATOM     13  C   UNL     1       0.204   9.802  21.255  0.00  0.00    +0.000 A 
ATOM     14  C   UNL     1      -0.444  11.034  20.986  0.00  0.00    +0.000 A 
ATOM     15  C   UNL     1      -1.218  11.813  22.030  0.00  0.00    +0.000 C 
ENDROOT
BRANCH  13  16
ATOM     16  C   UNL     1       0.116   9.265  22.668  0.00  0.00    +0.000 C 
ATOM     17  O   UNL     1       0.908   9.553  23.543  0.00  0.00    +0.000 OA
BRANCH  16  18
ATOM     18  O   UNL     1      -0.958   8.501  22.932  0.00  0.00    +0.000 OA
ATOM     19  H   UNL     1      -0.989   7.624  22.521  0.00  0.00    +0.000 HD
ENDBRANCH  16  18
ENDBRANCH  13  16
TORSDOF 2
ENDMDL
MODEL 5
REMARK VINA RESULT:      -6.1      2.660      4.903
REMARK  Name = 
REMARK  3 active torsions:
REMARK  status: ('A' for Active; 'I' for Inactive)
REMARK    1  A    between atoms: C_1  and  N_2
REMARK    2  A    between atoms: C_13  and  C_14
REMARK    3  A    between atoms: C_14  and  O_16
REMARK                            x       y       z     vdW  Elec       q    Type
REMARK                         _______ _______ _______ _____ _____    ______ ____
ROOT
ATOM      1  C   UNL     1       1.202   7.403  21.132  0.00  0.00    +0.000 C 
ATOM      2  N   UNL     1       2.207   7.424  20.071  0.00  0.00    +0.000 NA
ATOM      3  C   UNL     1       1.770   8.210  18.919  0.00  0.00    +0.000 C 
ATOM      4  C   UNL     1       2.936   8.351  17.947  0.00  0.00    +0.000 C 
ATOM      5  C   UNL     1       3.567   7.024  17.616  0.00  0.00    +0.000 A 
ATOM      6  N   UNL     1       4.317   7.001  16.493  0.00  0.00    +0.000 NA
ATOM      7  C   UNL     1       4.949   5.877  16.147  0.00  0.00    +0.000 A 
ATOM      8  C   UNL     1       5.735   5.959  15.007  0.00  0.00    +0.000 A 
ATOM      9  C   UNL     1       6.453   4.872  14.524  0.00  0.00    +0.000 A 
ATOM     10  C   UNL     1       6.399   3.669  15.212  0.00  0.00    +0.000 A 
ATOM     11  C   UNL     1       5.622   3.569  16.377  0.00  0.00    +0.000 A 
ATOM     12  C   UNL     1       4.856   4.669  16.873  0.00  0.00    +0.000 A 
ATOM     13  C   UNL     1       4.020   4.706  18.039  0.00  0.00    +0.000 A 
ATOM     14  C   UNL     1       3.407   5.918  18.441  0.00  0.00    +0.000 A 
ATOM     15  C   UNL     1       2.534   6.041  19.674  0.00  0.00    +0.000 C 
ENDROOT
BRANCH  13  16
ATOM     16  C   UNL     1       3.790   3.488  18.910  0.00  0.00    +0.000 C 
ATOM     17  O   UNL     1       2.807   2.778  18.821  0.00  0.00    +0.000 OA
BRANCH  16  18
ATOM     18  O   UNL     1       4.792   3.179  19.750  0.00  0.00    +0.000 OA
ATOM     19  H   UNL     1       4.552   2.759  20.590  0.00  0.00    +0.000 HD
ENDBRANCH  16  18
ENDBRANCH  13  16
TORSDOF 2
ENDMDL
MODEL 6
REMARK VINA RESULT:      -6.0      1.248      1.249
REMARK  Name = 
REMARK  3 active torsions:
REMARK  status: ('A' for Active; 'I' for Inactive)
REMARK    1  A    between atoms: C_1  and  N_2
REMARK    2  A    between atoms: C_13  and  C_14
REMARK    3  A    between atoms: C_14  and  O_16
REMARK                            x       y       z     vdW  Elec       q    Type
REMARK                         _______ _______ _______ _____ _____    ______ ____
ROOT
ATOM      1  C   UNL     1       7.452   7.912  17.136  0.00  0.00    +0.000 C 
ATOM      2  N   UNL     1       6.914   6.802  17.919  0.00  0.00    +0.000 NA
ATOM      3  C   UNL     1       7.257   5.505  17.339  0.00  0.00    +0.000 C 
ATOM      4  C   UNL     1       6.838   4.405  18.307  0.00  0.00    +0.000 C 
ATOM      5  C   UNL     1       5.406   4.550  18.752  0.00  0.00    +0.000 A 
ATOM      6  N   UNL     1       4.843   3.438  19.272  0.00  0.00    +0.000 NA
ATOM      7  C   UNL     1       3.591   3.487  19.731  0.00  0.00    +0.000 A 
ATOM      8  C   UNL     1       3.111   2.313  20.291  0.00  0.00    +0.000 A 
ATOM      9  C   UNL     1       1.827   2.212  20.811  0.00  0.00    +0.000 A 
ATOM     10  C   UNL     1       1.001   3.326  20.789  0.00  0.00    +0.000 A 
ATOM     11  C   UNL     1       1.472   4.529  20.241  0.00  0.00    +0.000 A 
ATOM     12  C   UNL     1       2.780   4.643  19.677  0.00  0.00    +0.000 A 
ATOM     13  C   UNL     1       3.385   5.801  19.083  0.00  0.00    +0.000 A 
ATOM     14  C   UNL     1       4.737   5.764  18.659  0.00  0.00    +0.000 A 
ATOM     15  C   UNL     1       5.452   6.953  18.050  0.00  0.00    +0.000 C 
ENDROOT
BRANCH  13  16
ATOM     16  C   UNL     1       2.643   7.112  18.921  0.00  0.00    +0.000 C 
ATOM     17  O   UNL     1       2.264   7.537  17.848  0.00  0.00    +0.000 OA
BRANCH  16  18
ATOM     18  O   UNL     1       2.345   7.754  20.064  0.00  0.00    +0.000 OA
ATOM     19  H   UNL     1       2.579   7.312  20.894  0.00  0.00    +0.000 HD
ENDBRANCH  16  18
ENDBRANCH  13  16
TORSDOF 2
ENDMDL
MODEL 7
REMARK VINA RESULT:      -5.9      2.491      3.986
REMARK  Name = 
REMARK  3 active torsions:
REMARK  status: ('A' for Active; 'I' for Inactive)
REMARK    1  A    between atoms: C_1  and  N_2
REMARK    2  A    between atoms: C_13  and  C_14
REMARK    3  A    between atoms: C_14  and  O_16
REMARK                            x       y       z     vdW  Elec       q    Type
REMARK                         _______ _______ _______ _____ _____    ______ ____
ROOT
ATOM      1  C   UNL     1       6.082   3.362  14.834  0.00  0.00    +0.000 C 
ATOM      2  N   UNL     1       5.222   4.385  15.426  0.00  0.00    +0.000 NA
ATOM      3  C   UNL     1       5.903   5.673  15.539  0.00  0.00    +0.000 C 
ATOM      4  C   UNL     1       4.893   6.730  15.973  0.00  0.00    +0.000 C 
ATOM      5  C   UNL     1       4.113   6.307  17.191  0.00  0.00    +0.000 A 
ATOM      6  N   UNL     1       3.504   7.305  17.866  0.00  0.00    +0.000 NA
ATOM      7  C   UNL     1       2.755   7.017  18.933  0.00  0.00    +0.000 A 
ATOM      8  C   UNL     1       2.128   8.097  19.535  0.00  0.00    +0.000 A 
ATOM      9  C   UNL     1       1.317   7.953  20.654  0.00  0.00    +0.000 A 
ATOM     10  C   UNL     1       1.110   6.685  21.177  0.00  0.00    +0.000 A 
ATOM     11  C   UNL     1       1.722   5.576  20.573  0.00  0.00    +0.000 A 
ATOM     12  C   UNL     1       2.581   5.709  19.439  0.00  0.00    +0.000 A 
ATOM     13  C   UNL     1       3.271   4.669  18.730  0.00  0.00    +0.000 A 
ATOM     14  C   UNL     1       4.008   4.971  17.558  0.00  0.00    +0.000 A 
ATOM     15  C   UNL     1       4.740   3.925  16.741  0.00  0.00    +0.000 C 
ENDROOT
BRANCH  13  16
ATOM     16  C   UNL     1       3.213   3.218  19.160  0.00  0.00    +0.000 C 
ATOM     17  O   UNL     1       4.028   2.708  19.904  0.00  0.00    +0.000 OA
BRANCH  16  18
ATOM     18  O   UNL     1       2.142   2.529  18.732  0.00  0.00    +0.000 OA
ATOM     19  H   UNL     1       1.389   2.460  19.337  0.00  0.00    +0.000 HD
ENDBRANCH  16  18
ENDBRANCH  13  16
TORSDOF 2
ENDMDL
MODEL 8
REMARK VINA RESULT:      -5.9      2.807      5.151
REMARK  Name = 
REMARK  3 active torsions:
REMARK  status: ('A' for Active; 'I' for Inactive)
REMARK    1  A    between atoms: C_1  and  N_2
REMARK    2  A    between atoms: C_13  and  C_14
REMARK    3  A    between atoms: C_14  and  O_16
REMARK                            x       y       z     vdW  Elec       q    Type
REMARK                         _______ _______ _______ _____ _____    ______ ____
ROOT
ATOM      1  C   UNL     1       4.818   1.330  20.354  0.00  0.00    +0.000 C 
ATOM      2  N   UNL     1       4.225   2.644  20.598  0.00  0.00    +0.000 NA
ATOM      3  C   UNL     1       2.851   2.542  21.085  0.00  0.00    +0.000 C 
ATOM      4  C   UNL     1       2.371   3.927  21.503  0.00  0.00    +0.000 C 
ATOM      5  C   UNL     1       2.597   4.958  20.427  0.00  0.00    +0.000 A 
ATOM      6  N   UNL     1       1.864   6.087  20.541  0.00  0.00    +0.000 NA
ATOM      7  C   UNL     1       2.031   7.072  19.656  0.00  0.00    +0.000 A 
ATOM      8  C   UNL     1       1.273   8.212  19.878  0.00  0.00    +0.000 A 
ATOM      9  C   UNL     1       1.340   9.319  19.041  0.00  0.00    +0.000 A 
ATOM     10  C   UNL     1       2.206   9.295  17.959  0.00  0.00    +0.000 A 
ATOM     11  C   UNL     1       2.994   8.157  17.725  0.00  0.00    +0.000 A 
ATOM     12  C   UNL     1       2.918   6.999  18.559  0.00  0.00    +0.000 A 
ATOM     13  C   UNL     1       3.655   5.774  18.434  0.00  0.00    +0.000 A 
ATOM     14  C   UNL     1       3.526   4.759  19.414  0.00  0.00    +0.000 A 
ATOM     15  C   UNL     1       4.292   3.451  19.366  0.00  0.00    +0.000 C 
ENDROOT
BRANCH  13  16
ATOM     16  C   UNL     1       4.625   5.523  17.297  0.00  0.00    +0.000 C 
ATOM     17  O   UNL     1       4.337   4.891  16.300  0.00  0.00    +0.000 OA
BRANCH  16  18
ATOM     18  O   UNL     1       5.823   6.121  17.415  0.00  0.00    +0.000 OA
ATOM     19  H   UNL     1       6.571   5.564  17.680  0.00  0.00    +0.000 HD
ENDBRANCH  16  18
ENDBRANCH  13  16
TORSDOF 2
ENDMDL
MODEL 9
REMARK VINA RESULT:      -5.8      2.509      5.108
REMARK  Name = 
REMARK  3 active torsions:
REMARK  status: ('A' for Active; 'I' for Inactive)
REMARK    1  A    between atoms: C_1  and  N_2
REMARK    2  A    between atoms: C_13  and  C_14
REMARK    3  A    between atoms: C_14  and  O_16
REMARK                            x       y       z     vdW  Elec       q    Type
REMARK                         _______ _______ _______ _____ _____    ______ ____
ROOT
ATOM      1  C   UNL     1       2.162   4.812  21.254  0.00  0.00    +0.000 C 
ATOM      2  N   UNL     1       2.467   4.784  19.824  0.00  0.00    +0.000 NA
ATOM      3  C   UNL     1       1.964   3.572  19.181  0.00  0.00    +0.000 C 
ATOM      4  C   UNL     1       2.140   3.704  17.672  0.00  0.00    +0.000 C 
ATOM      5  C   UNL     1       3.545   4.097  17.294  0.00  0.00    +0.000 A 
ATOM      6  N   UNL     1       3.891   3.852  16.012  0.00  0.00    +0.000 NA
ATOM      7  C   UNL     1       5.103   4.206  15.578  0.00  0.00    +0.000 A 
ATOM      8  C   UNL     1       5.354   3.962  14.236  0.00  0.00    +0.000 A 
ATOM      9  C   UNL     1       6.570   4.277  13.642  0.00  0.00    +0.000 A 
ATOM     10  C   UNL     1       7.559   4.875  14.408  0.00  0.00    +0.000 A 
ATOM     11  C   UNL     1       7.319   5.147  15.764  0.00  0.00    +0.000 A 
ATOM     12  C   UNL     1       6.085   4.803  16.398  0.00  0.00    +0.000 A 
ATOM     13  C   UNL     1       5.710   5.016  17.767  0.00  0.00    +0.000 A 
ATOM     14  C   UNL     1       4.400   4.701  18.206  0.00  0.00    +0.000 A 
ATOM     15  C   UNL     1       3.922   4.923  19.627  0.00  0.00    +0.000 C 
ENDROOT
BRANCH  13  16
ATOM     16  C   UNL     1       6.658   5.618  18.784  0.00  0.00    +0.000 C 
ATOM     17  O   UNL     1       6.982   5.055  19.811  0.00  0.00    +0.000 OA
BRANCH  16  18
ATOM     18  O   UNL     1       7.198   6.801  18.444  0.00  0.00    +0.000 OA
ATOM     19  H   UNL     1       7.687   6.840  17.609  0.00  0.00    +0.000 HD
ENDBRANCH  16  18
ENDBRANCH  13  16
TORSDOF 2
ENDMDL
