MODEL 1
REMARK VINA RESULT:      -6.9      0.000      0.000
REMARK  Name = 
REMARK  5 active torsions:
REMARK  status: ('A' for Active; 'I' for Inactive)
REMARK    1  A    between atoms: C_1  and  O_2
REMARK    2  A    between atoms: O_2  and  C_3
REMARK    3  A    between atoms: C_6  and  O_7
REMARK    4  A    between atoms: O_7  and  C_8
REMARK    5  A    between atoms: C_9  and  C_10
REMARK                            x       y       z     vdW  Elec       q    Type
REMARK                         _______ _______ _______ _____ _____    ______ ____
ROOT
ATOM      1  C   UNL     1       5.860   4.398  15.342  0.00  0.00    +0.000 A 
ATOM      2  C   UNL     1       5.512   5.731  15.146  0.00  0.00    +0.000 A 
ATOM      3  C   UNL     1       4.846   6.450  16.141  0.00  0.00    +0.000 A 
ATOM      4  C   UNL     1       4.524   5.848  17.364  0.00  0.00    +0.000 A 
ATOM      5  C   UNL     1       4.809   4.482  17.544  0.00  0.00    +0.000 A 
ATOM      6  C   UNL     1       5.492   3.770  16.531  0.00  0.00    +0.000 A 
ENDROOT
BRANCH   5   7
ATOM      7  C   UNL     1       4.589   3.741  18.822  0.00  0.00    +0.000 C 
ATOM      8  O   UNL     1       5.579   3.582  19.540  0.00  0.00    +0.000 OA
ATOM      9  N   UNL     1       3.342   3.247  19.182  0.00  0.00    +0.000 N 
ATOM     10  C   UNL     1       3.152   2.697  20.527  0.00  0.00    +0.000 C 
ATOM     11  C   UNL     1       1.845   3.220  21.155  0.00  0.00    +0.000 C 
ATOM     12  N   UNL     1       0.659   3.012  20.302  0.00  0.00    +0.000 NA
ATOM     13  C   UNL     1       0.902   3.561  18.951  0.00  0.00    +0.000 C 
ATOM     14  C   UNL     1       2.193   3.025  18.301  0.00  0.00    +0.000 C 
ATOM     15  H   UNL     1      -0.134   3.499  20.720  0.00  0.00    +0.000 HD
ENDBRANCH   5   7
BRANCH   1  17
ATOM     16  C   UNL     1       5.877   3.668  13.079  0.00  0.00    +0.000 C 
ATOM     17  O   UNL     1       6.564   3.843  14.311  0.00  0.00    +0.000 OA
ENDBRANCH   1  17
BRANCH   4  18
ATOM     18  O   UNL     1       3.965   6.536  18.408  0.00  0.00    +0.000 OA
ATOM     19  C   UNL     1       2.586   6.873  18.314  0.00  0.00    +0.000 C 
ENDBRANCH   4  18
TORSDOF 3
ENDMDL
MODEL 2
REMARK VINA RESULT:      -6.6      1.745      2.402
REMARK  Name = 
REMARK  5 active torsions:
REMARK  status: ('A' for Active; 'I' for Inactive)
REMARK    1  A    between atoms: C_1  and  O_2
REMARK    2  A    between atoms: O_2  and  C_3
REMARK    3  A    between atoms: C_6  and  O_7
REMARK    4  A    between atoms: O_7  and  C_8
REMARK    5  A    between atoms: C_9  and  C_10
REMARK                            x       y       z     vdW  Elec       q    Type
REMARK                         _______ _______ _______ _____ _____    ______ ____
ROOT
ATOM      1  C   UNL     1       5.606   4.249  14.814  0.00  0.00    +0.000 A 
ATOM      2  C   UNL     1       6.852   4.737  15.193  0.00  0.00    +0.000 A 
ATOM      3  C   UNL     1       7.191   4.863  16.541  0.00  0.00    +0.000 A 
ATOM      4  C   UNL     1       6.287   4.489  17.543  0.00  0.00    +0.000 A 
ATOM      5  C   UNL     1       5.000   4.061  17.171  0.00  0.00    +0.000 A 
ATOM      6  C   UNL     1       4.675   3.929  15.801  0.00  0.00    +0.000 A 
ENDROOT
BRANCH   5   7
ATOM      7  C   UNL     1       3.971   3.562  18.132  0.00  0.00    +0.000 C 
ATOM      8  O   UNL     1       3.963   2.347  18.343  0.00  0.00    +0.000 OA
ATOM      9  N   UNL     1       3.066   4.414  18.750  0.00  0.00    +0.000 N 
ATOM     10  C   UNL     1       2.209   3.892  19.819  0.00  0.00    +0.000 C 
ATOM     11  C   UNL     1       2.175   4.862  21.017  0.00  0.00    +0.000 C 
ATOM     12  N   UNL     1       1.812   6.243  20.644  0.00  0.00    +0.000 NA
ATOM     13  C   UNL     1       2.685   6.720  19.550  0.00  0.00    +0.000 C 
ATOM     14  C   UNL     1       2.707   5.772  18.335  0.00  0.00    +0.000 C 
ATOM     15  H   UNL     1       1.942   6.846  21.458  0.00  0.00    +0.000 HD
ENDBRANCH   5   7
BRANCH   1  17
ATOM     16  C   UNL     1       6.572   3.711  12.708  0.00  0.00    +0.000 C 
ATOM     17  O   UNL     1       5.439   4.119  13.464  0.00  0.00    +0.000 OA
ENDBRANCH   1  17
BRANCH   4  18
ATOM     18  O   UNL     1       6.607   4.497  18.875  0.00  0.00    +0.000 OA
ATOM     19  C   UNL     1       7.311   5.626  19.379  0.00  0.00    +0.000 C 
ENDBRANCH   4  18
TORSDOF 3
ENDMDL
MODEL 3
REMARK VINA RESULT:      -6.6      1.548      2.353
REMARK  Name = 
REMARK  5 active torsions:
REMARK  status: ('A' for Active; 'I' for Inactive)
REMARK    1  A    between atoms: C_1  and  O_2
REMARK    2  A    between atoms: O_2  and  C_3
REMARK    3  A    between atoms: C_6  and  O_7
REMARK    4  A    between atoms: O_7  and  C_8
REMARK    5  A    between atoms: C_9  and  C_10
REMARK                            x       y       z     vdW  Elec       q    Type
REMARK                         _______ _______ _______ _____ _____    ______ ____
ROOT
ATOM      1  C   UNL     1       5.580   4.445  15.041  0.00  0.00    +0.000 A 
ATOM      2  C   UNL     1       6.937   4.340  15.334  0.00  0.00    +0.000 A 
ATOM      3  C   UNL     1       7.403   4.517  16.638  0.00  0.00    +0.000 A 
ATOM      4  C   UNL     1       6.513   4.792  17.684  0.00  0.00    +0.000 A 
ATOM      5  C   UNL     1       5.149   4.970  17.386  0.00  0.00    +0.000 A 
ATOM      6  C   UNL     1       4.692   4.777  16.062  0.00  0.00    +0.000 A 
ENDROOT
BRANCH   5   7
ATOM      7  C   UNL     1       4.088   5.189  18.414  0.00  0.00    +0.000 C 
ATOM      8  O   UNL     1       3.840   6.362  18.703  0.00  0.00    +0.000 OA
ATOM      9  N   UNL     1       3.421   4.134  19.020  0.00  0.00    +0.000 N 
ATOM     10  C   UNL     1       2.265   4.417  19.877  0.00  0.00    +0.000 C 
ATOM     11  C   UNL     1       1.099   3.459  19.561  0.00  0.00    +0.000 C 
ATOM     12  N   UNL     1       1.482   2.034  19.604  0.00  0.00    +0.000 NA
ATOM     13  C   UNL     1       2.661   1.799  18.745  0.00  0.00    +0.000 C 
ATOM     14  C   UNL     1       3.844   2.733  19.068  0.00  0.00    +0.000 C 
ATOM     15  H   UNL     1       0.701   1.476  19.256  0.00  0.00    +0.000 HD
ENDBRANCH   5   7
BRANCH   1  17
ATOM     16  C   UNL     1       6.286   3.623  12.924  0.00  0.00    +0.000 C 
ATOM     17  O   UNL     1       5.264   4.183  13.739  0.00  0.00    +0.000 OA
ENDBRANCH   1  17
BRANCH   4  18
ATOM     18  O   UNL     1       6.905   4.873  18.993  0.00  0.00    +0.000 OA
ATOM     19  C   UNL     1       7.833   5.894  19.344  0.00  0.00    +0.000 C 
ENDBRANCH   4  18
TORSDOF 3
ENDMDL
MODEL 4
REMARK VINA RESULT:      -6.5      2.441      5.630
REMARK  Name = 
REMARK  5 active torsions:
REMARK  status: ('A' for Active; 'I' for Inactive)
REMARK    1  A    between atoms: C_1  and  O_2
REMARK    2  A    between atoms: O_2  and  C_3
REMARK    3  A    between atoms: C_6  and  O_7
REMARK    4  A    between atoms: O_7  and  C_8
REMARK    5  A    between atoms: C_9  and  C_10
REMARK                            x       y       z     vdW  Elec       q    Type
REMARK                         _______ _______ _______ _____ _____    ______ ____
ROOT
ATOM      1  C   UNL     1       2.148   7.218  19.227  0.00  0.00    +0.000 A 
ATOM      2  C   UNL     1       1.853   6.678  20.475  0.00  0.00    +0.000 A 
ATOM      3  C   UNL     1       2.151   5.346  20.767  0.00  0.00    +0.000 A 
ATOM      4  C   UNL     1       2.765   4.526  19.812  0.00  0.00    +0.000 A 
ATOM      5  C   UNL     1       3.003   5.042  18.525  0.00  0.00    +0.000 A 
ATOM      6  C   UNL     1       2.704   6.396  18.249  0.00  0.00    +0.000 A 
ENDROOT
BRANCH   5   7
ATOM      7  C   UNL     1       3.718   4.302  17.443  0.00  0.00    +0.000 C 
ATOM      8  O   UNL     1       3.067   3.441  16.846  0.00  0.00    +0.000 OA
ATOM      9  N   UNL     1       5.046   4.558  17.129  0.00  0.00    +0.000 N 
ATOM     10  C   UNL     1       5.632   3.934  15.939  0.00  0.00    +0.000 C 
ATOM     11  C   UNL     1       6.444   4.961  15.124  0.00  0.00    +0.000 C 
ATOM     12  N   UNL     1       7.455   5.678  15.925  0.00  0.00    +0.000 NA
ATOM     13  C   UNL     1       6.826   6.272  17.124  0.00  0.00    +0.000 C 
ATOM     14  C   UNL     1       6.032   5.250  17.961  0.00  0.00    +0.000 C 
ATOM     15  H   UNL     1       7.853   6.426  15.355  0.00  0.00    +0.000 HD
ENDBRANCH   5   7
BRANCH   1  17
ATOM     16  C   UNL     1       2.045   9.138  17.828  0.00  0.00    +0.000 C 
ATOM     17  O   UNL     1       1.861   8.548  19.108  0.00  0.00    +0.000 OA
ENDBRANCH   1  17
BRANCH   4  18
ATOM     18  O   UNL     1       3.171   3.245  20.081  0.00  0.00    +0.000 OA
ATOM     19  C   UNL     1       2.722   2.650  21.293  0.00  0.00    +0.000 C 
ENDBRANCH   4  18
TORSDOF 3
ENDMDL
MODEL 5
REMARK VINA RESULT:      -6.4      2.478      5.868
REMARK  Name = 
REMARK  5 active torsions:
REMARK  status: ('A' for Active; 'I' for Inactive)
REMARK    1  A    between atoms: C_1  and  O_2
REMARK    2  A    between atoms: O_2  and  C_3
REMARK    3  A    between atoms: C_6  and  O_7
REMARK    4  A    between atoms: O_7  and  C_8
REMARK    5  A    between atoms: C_9  and  C_10
REMARK                            x       y       z     vdW  Elec       q    Type
REMARK                         _______ _______ _______ _____ _____    ______ ____
ROOT
ATOM      1  C   UNL     1       2.205   6.621  19.637  0.00  0.00    +0.000 A 
ATOM      2  C   UNL     1       1.922   5.860  20.767  0.00  0.00    +0.000 A 
ATOM      3  C   UNL     1       2.197   4.491  20.794  0.00  0.00    +0.000 A 
ATOM      4  C   UNL     1       2.775   3.856  19.688  0.00  0.00    +0.000 A 
ATOM      5  C   UNL     1       2.998   4.603  18.516  0.00  0.00    +0.000 A 
ATOM      6  C   UNL     1       2.724   5.990  18.508  0.00  0.00    +0.000 A 
ENDROOT
BRANCH   5   7
ATOM      7  C   UNL     1       3.676   4.069  17.298  0.00  0.00    +0.000 C 
ATOM      8  O   UNL     1       2.996   3.346  16.565  0.00  0.00    +0.000 OA
ATOM      9  N   UNL     1       5.001   4.359  17.005  0.00  0.00    +0.000 N 
ATOM     10  C   UNL     1       5.550   3.962  15.705  0.00  0.00    +0.000 C 
ATOM     11  C   UNL     1       6.365   5.111  15.078  0.00  0.00    +0.000 C 
ATOM     12  N   UNL     1       7.406   5.649  15.974  0.00  0.00    +0.000 NA
ATOM     13  C   UNL     1       6.814   6.016  17.279  0.00  0.00    +0.000 C 
ATOM     14  C   UNL     1       6.019   4.867  17.928  0.00  0.00    +0.000 C 
ATOM     15  H   UNL     1       7.807   6.484  15.546  0.00  0.00    +0.000 HD
ENDBRANCH   5   7
BRANCH   1  17
ATOM     16  C   UNL     1       1.292   8.364  20.973  0.00  0.00    +0.000 C 
ATOM     17  O   UNL     1       1.945   7.955  19.778  0.00  0.00    +0.000 OA
ENDBRANCH   1  17
BRANCH   4  18
ATOM     18  O   UNL     1       3.157   2.541  19.700  0.00  0.00    +0.000 OA
ATOM     19  C   UNL     1       4.412   2.223  20.290  0.00  0.00    +0.000 C 
ENDBRANCH   4  18
TORSDOF 3
ENDMDL
MODEL 6
REMARK VINA RESULT:      -6.3      2.476      5.642
REMARK  Name = 
REMARK  5 active torsions:
REMARK  status: ('A' for Active; 'I' for Inactive)
REMARK    1  A    between atoms: C_1  and  O_2
REMARK    2  A    between atoms: O_2  and  C_3
REMARK    3  A    between atoms: C_6  and  O_7
REMARK    4  A    between atoms: O_7  and  C_8
REMARK    5  A    between atoms: C_9  and  C_10
REMARK                            x       y       z     vdW  Elec       q    Type
REMARK                         _______ _______ _______ _____ _____    ______ ____
ROOT
ATOM      1  C   UNL     1       2.282   4.467  20.778  0.00  0.00    +0.000 A 
ATOM      2  C   UNL     1       1.994   5.824  20.894  0.00  0.00    +0.000 A 
ATOM      3  C   UNL     1       2.315   6.713  19.868  0.00  0.00    +0.000 A 
ATOM      4  C   UNL     1       2.924   6.258  18.692  0.00  0.00    +0.000 A 
ATOM      5  C   UNL     1       3.283   4.900  18.595  0.00  0.00    +0.000 A 
ATOM      6  C   UNL     1       2.942   4.011  19.639  0.00  0.00    +0.000 A 
ENDROOT
BRANCH   5   7
ATOM      7  C   UNL     1       3.865   4.272  17.371  0.00  0.00    +0.000 C 
ATOM      8  O   UNL     1       3.121   3.525  16.733  0.00  0.00    +0.000 OA
ATOM      9  N   UNL     1       5.175   4.506  16.976  0.00  0.00    +0.000 N 
ATOM     10  C   UNL     1       5.627   4.013  15.671  0.00  0.00    +0.000 C 
ATOM     11  C   UNL     1       6.426   5.096  14.921  0.00  0.00    +0.000 C 
ATOM     12  N   UNL     1       7.537   5.660  15.711  0.00  0.00    +0.000 NA
ATOM     13  C   UNL     1       7.042   6.124  17.025  0.00  0.00    +0.000 C 
ATOM     14  C   UNL     1       6.263   5.041  17.797  0.00  0.00    +0.000 C 
ATOM     15  H   UNL     1       7.928   6.455  15.205  0.00  0.00    +0.000 HD
ENDBRANCH   5   7
BRANCH   1  17
ATOM     16  C   UNL     1       1.751   2.307  21.620  0.00  0.00    +0.000 C 
ATOM     17  O   UNL     1       1.852   3.709  21.830  0.00  0.00    +0.000 OA
ENDBRANCH   1  17
BRANCH   4  18
ATOM     18  O   UNL     1       3.166   7.070  17.616  0.00  0.00    +0.000 OA
ATOM     19  C   UNL     1       2.568   8.360  17.613  0.00  0.00    +0.000 C 
ENDBRANCH   4  18
TORSDOF 3
ENDMDL
MODEL 7
REMARK VINA RESULT:      -6.3      2.655      5.836
REMARK  Name = 
REMARK  5 active torsions:
REMARK  status: ('A' for Active; 'I' for Inactive)
REMARK    1  A    between atoms: C_1  and  O_2
REMARK    2  A    between atoms: O_2  and  C_3
REMARK    3  A    between atoms: C_6  and  O_7
REMARK    4  A    between atoms: O_7  and  C_8
REMARK    5  A    between atoms: C_9  and  C_10
REMARK                            x       y       z     vdW  Elec       q    Type
REMARK                         _______ _______ _______ _____ _____    ______ ____
ROOT
ATOM      1  C   UNL     1       1.983   5.786  20.378  0.00  0.00    +0.000 A 
ATOM      2  C   UNL     1       1.404   4.521  20.402  0.00  0.00    +0.000 A 
ATOM      3  C   UNL     1       2.114   3.402  19.964  0.00  0.00    +0.000 A 
ATOM      4  C   UNL     1       3.429   3.526  19.501  0.00  0.00    +0.000 A 
ATOM      5  C   UNL     1       3.998   4.810  19.406  0.00  0.00    +0.000 A 
ATOM      6  C   UNL     1       3.270   5.932  19.864  0.00  0.00    +0.000 A 
ENDROOT
BRANCH   5   7
ATOM      7  C   UNL     1       5.411   5.074  19.004  0.00  0.00    +0.000 C 
ATOM      8  O   UNL     1       6.263   4.957  19.888  0.00  0.00    +0.000 OA
ATOM      9  N   UNL     1       5.752   5.440  17.709  0.00  0.00    +0.000 N 
ATOM     10  C   UNL     1       7.168   5.501  17.332  0.00  0.00    +0.000 C 
ATOM     11  C   UNL     1       7.403   4.822  15.969  0.00  0.00    +0.000 C 
ATOM     12  N   UNL     1       6.526   5.334  14.898  0.00  0.00    +0.000 NA
ATOM     13  C   UNL     1       5.112   5.275  15.328  0.00  0.00    +0.000 C 
ATOM     14  C   UNL     1       4.859   5.973  16.678  0.00  0.00    +0.000 C 
ATOM     15  H   UNL     1       6.645   4.749  14.070  0.00  0.00    +0.000 HD
ENDBRANCH   5   7
BRANCH   1  17
ATOM     16  C   UNL     1       1.572   8.117  20.618  0.00  0.00    +0.000 C 
ATOM     17  O   UNL     1       1.196   6.775  20.898  0.00  0.00    +0.000 OA
ENDBRANCH   1  17
BRANCH   4  18
ATOM     18  O   UNL     1       4.202   2.449  19.156  0.00  0.00    +0.000 OA
ATOM     19  C   UNL     1       3.611   1.444  18.342  0.00  0.00    +0.000 C 
ENDBRANCH   4  18
TORSDOF 3
ENDMDL
MODEL 8
REMARK VINA RESULT:      -6.2      2.567      5.740
REMARK  Name = 
REMARK  5 active torsions:
REMARK  status: ('A' for Active; 'I' for Inactive)
REMARK    1  A    between atoms: C_1  and  O_2
REMARK    2  A    between atoms: O_2  and  C_3
REMARK    3  A    between atoms: C_6  and  O_7
REMARK    4  A    between atoms: O_7  and  C_8
REMARK    5  A    between atoms: C_9  and  C_10
REMARK                            x       y       z     vdW  Elec       q    Type
REMARK                         _______ _______ _______ _____ _____    ______ ____
ROOT
ATOM      1  C   UNL     1       2.090   8.402  18.512  0.00  0.00    +0.000 A 
ATOM      2  C   UNL     1       1.711   8.241  19.841  0.00  0.00    +0.000 A 
ATOM      3  C   UNL     1       1.902   7.023  20.496  0.00  0.00    +0.000 A 
ATOM      4  C   UNL     1       2.489   5.938  19.832  0.00  0.00    +0.000 A 
ATOM      5  C   UNL     1       2.809   6.070  18.468  0.00  0.00    +0.000 A 
ATOM      6  C   UNL     1       2.620   7.313  17.822  0.00  0.00    +0.000 A 
ENDROOT
BRANCH   5   7
ATOM      7  C   UNL     1       3.507   5.021  17.666  0.00  0.00    +0.000 C 
ATOM      8  O   UNL     1       2.813   4.082  17.270  0.00  0.00    +0.000 OA
ATOM      9  N   UNL     1       4.865   5.092  17.385  0.00  0.00    +0.000 N 
ATOM     10  C   UNL     1       5.450   4.136  16.439  0.00  0.00    +0.000 C 
ATOM     11  C   UNL     1       6.383   4.851  15.443  0.00  0.00    +0.000 C 
ATOM     12  N   UNL     1       7.414   5.681  16.095  0.00  0.00    +0.000 NA
ATOM     13  C   UNL     1       6.784   6.613  17.055  0.00  0.00    +0.000 C 
ATOM     14  C   UNL     1       5.868   5.907  18.073  0.00  0.00    +0.000 C 
ATOM     15  H   UNL     1       7.900   6.222  15.379  0.00  0.00    +0.000 HD
ENDBRANCH   5   7
BRANCH   1  17
ATOM     16  C   UNL     1       0.888  10.451  18.631  0.00  0.00    +0.000 C 
ATOM     17  O   UNL     1       1.904   9.664  18.023  0.00  0.00    +0.000 OA
ENDBRANCH   1  17
BRANCH   4  18
ATOM     18  O   UNL     1       2.790   4.757  20.457  0.00  0.00    +0.000 OA
ATOM     19  C   UNL     1       1.708   3.966  20.933  0.00  0.00    +0.000 C 
ENDBRANCH   4  18
TORSDOF 3
ENDMDL
MODEL 9
REMARK VINA RESULT:      -6.1      1.964      2.672
REMARK  Name = 
REMARK  5 active torsions:
REMARK  status: ('A' for Active; 'I' for Inactive)
REMARK    1  A    between atoms: C_1  and  O_2
REMARK    2  A    between atoms: O_2  and  C_3
REMARK    3  A    between atoms: C_6  and  O_7
REMARK    4  A    between atoms: O_7  and  C_8
REMARK    5  A    between atoms: C_9  and  C_10
REMARK                            x       y       z     vdW  Elec       q    Type
REMARK                         _______ _______ _______ _____ _____    ______ ____
ROOT
ATOM      1  C   UNL     1       5.497   5.170  17.019  0.00  0.00    +0.000 A 
ATOM      2  C   UNL     1       5.517   6.560  16.958  0.00  0.00    +0.000 A 
ATOM      3  C   UNL     1       4.377   7.306  17.262  0.00  0.00    +0.000 A 
ATOM      4  C   UNL     1       3.190   6.671  17.648  0.00  0.00    +0.000 A 
ATOM      5  C   UNL     1       3.140   5.265  17.645  0.00  0.00    +0.000 A 
ATOM      6  C   UNL     1       4.306   4.524  17.343  0.00  0.00    +0.000 A 
ENDROOT
BRANCH   5   7
ATOM      7  C   UNL     1       1.966   4.466  18.107  0.00  0.00    +0.000 C 
ATOM      8  O   UNL     1       1.210   4.044  17.228  0.00  0.00    +0.000 OA
ATOM      9  N   UNL     1       1.728   4.217  19.452  0.00  0.00    +0.000 N 
ATOM     10  C   UNL     1       0.671   3.274  19.829  0.00  0.00    +0.000 C 
ATOM     11  C   UNL     1       1.162   2.307  20.924  0.00  0.00    +0.000 C 
ATOM     12  N   UNL     1       1.734   2.992  22.099  0.00  0.00    +0.000 NA
ATOM     13  C   UNL     1       2.778   3.948  21.673  0.00  0.00    +0.000 C 
ATOM     14  C   UNL     1       2.291   4.937  20.596  0.00  0.00    +0.000 C 
ATOM     15  H   UNL     1       2.154   2.293  22.713  0.00  0.00    +0.000 HD
ENDBRANCH   5   7
BRANCH   1  17
ATOM     16  C   UNL     1       7.669   4.595  17.800  0.00  0.00    +0.000 C 
ATOM     17  O   UNL     1       6.701   4.579  16.759  0.00  0.00    +0.000 OA
ENDBRANCH   1  17
BRANCH   4  18
ATOM     18  O   UNL     1       2.077   7.357  18.055  0.00  0.00    +0.000 OA
ATOM     19  C   UNL     1       2.087   8.773  17.921  0.00  0.00    +0.000 C 
ENDBRANCH   4  18
TORSDOF 3
ENDMDL
