MODEL 1
REMARK VINA RESULT:      -8.7      0.000      0.000
REMARK  Name = 
REMARK  7 active torsions:
REMARK  status: ('A' for Active; 'I' for Inactive)
REMARK    1  A    between atoms: C_1  and  C_2
REMARK    2  A    between atoms: C_2  and  C_3
REMARK    3  A    between atoms: C_8  and  C_9
REMARK    4  A    between atoms: C_9  and  C_11
REMARK    5  A    between atoms: C_12  and  C_13
REMARK    6  A    between atoms: C_16  and  O_17
REMARK    7  A    between atoms: C_20  and  O_21
REMARK                            x       y       z     vdW  Elec       q    Type
REMARK                         _______ _______ _______ _____ _____    ______ ____
ROOT
ATOM      1  C   UNL     1       1.376   4.115  20.471  0.00  0.00    +0.000 C 
ATOM      2  C   UNL     1       2.200   3.948  19.188  0.00  0.00    +0.000 C 
ATOM      3  C   UNL     1       1.834   2.617  18.516  0.00  0.00    +0.000 C 
ATOM      4  C   UNL     1       1.894   5.082  18.240  0.00  0.00    +0.000 C 
ATOM      5  C   UNL     1       2.825   5.900  17.742  0.00  0.00    +0.000 C 
ATOM      6  C   UNL     1       4.202   5.688  18.154  0.00  0.00    +0.000 A 
ATOM      7  C   UNL     1       5.232   6.488  17.641  0.00  0.00    +0.000 A 
ATOM      8  C   UNL     1       6.567   6.303  18.046  0.00  0.00    +0.000 A 
ATOM      9  C   UNL     1       6.849   5.284  18.964  0.00  0.00    +0.000 A 
ATOM     10  C   UNL     1       5.822   4.493  19.489  0.00  0.00    +0.000 A 
ATOM     11  C   UNL     1       4.505   4.684  19.074  0.00  0.00    +0.000 A 
ATOM     12  O   UNL     1       3.577   3.838  19.612  0.00  0.00    +0.000 OA
ENDROOT
BRANCH   8  13
ATOM     13  C   UNL     1       7.571   7.209  17.426  0.00  0.00    +0.000 C 
ATOM     14  O   UNL     1       7.873   7.059  16.244  0.00  0.00    +0.000 OA
BRANCH  13  15
ATOM     15  C   UNL     1       8.169   8.304  18.236  0.00  0.00    +0.000 C 
ATOM     16  C   UNL     1       8.331   9.526  17.697  0.00  0.00    +0.000 C 
BRANCH  16  17
ATOM     17  C   UNL     1       8.972  10.596  18.458  0.00  0.00    +0.000 A 
ATOM     18  C   UNL     1       9.393  10.355  19.772  0.00  0.00    +0.000 A 
ATOM     19  C   UNL     1       9.931  11.390  20.542  0.00  0.00    +0.000 A 
ATOM     20  C   UNL     1      10.047  12.662  19.990  0.00  0.00    +0.000 A 
ATOM     21  C   UNL     1       9.660  12.908  18.677  0.00  0.00    +0.000 A 
ATOM     22  C   UNL     1       9.119  11.874  17.909  0.00  0.00    +0.000 A 
BRANCH  20  23
ATOM     23  O   UNL     1      10.532  13.709  20.716  0.00  0.00    +0.000 OA
ATOM     24  H   UNL     1      10.539  13.459  21.654  0.00  0.00    +0.000 HD
ENDBRANCH  20  23
ENDBRANCH  16  17
ENDBRANCH  13  15
ENDBRANCH   8  13
BRANCH   9  25
ATOM     25  O   UNL     1       8.108   4.951  19.379  0.00  0.00    +0.000 OA
ATOM     26  H   UNL     1       8.605   5.773  19.528  0.00  0.00    +0.000 HD
ENDBRANCH   9  25
TORSDOF 5
ENDMDL
MODEL 2
REMARK VINA RESULT:      -8.6      0.668      1.191
REMARK  Name = 
REMARK  7 active torsions:
REMARK  status: ('A' for Active; 'I' for Inactive)
REMARK    1  A    between atoms: C_1  and  C_2
REMARK    2  A    between atoms: C_2  and  C_3
REMARK    3  A    between atoms: C_8  and  C_9
REMARK    4  A    between atoms: C_9  and  C_11
REMARK    5  A    between atoms: C_12  and  C_13
REMARK    6  A    between atoms: C_16  and  O_17
REMARK    7  A    between atoms: C_20  and  O_21
REMARK                            x       y       z     vdW  Elec       q    Type
REMARK                         _______ _______ _______ _____ _____    ______ ____
ROOT
ATOM      1  C   UNL     1       1.629   3.894  20.948  0.00  0.00    +0.000 C 
ATOM      2  C   UNL     1       2.022   4.169  19.491  0.00  0.00    +0.000 C 
ATOM      3  C   UNL     1       1.131   3.339  18.555  0.00  0.00    +0.000 C 
ATOM      4  C   UNL     1       1.831   5.634  19.184  0.00  0.00    +0.000 C 
ATOM      5  C   UNL     1       2.805   6.426  18.726  0.00  0.00    +0.000 C 
ATOM      6  C   UNL     1       4.118   5.838  18.529  0.00  0.00    +0.000 A 
ATOM      7  C   UNL     1       5.174   6.604  18.016  0.00  0.00    +0.000 A 
ATOM      8  C   UNL     1       6.455   6.050  17.838  0.00  0.00    +0.000 A 
ATOM      9  C   UNL     1       6.649   4.703  18.167  0.00  0.00    +0.000 A 
ATOM     10  C   UNL     1       5.602   3.939  18.692  0.00  0.00    +0.000 A 
ATOM     11  C   UNL     1       4.337   4.500  18.858  0.00  0.00    +0.000 A 
ATOM     12  O   UNL     1       3.369   3.666  19.341  0.00  0.00    +0.000 OA
ENDROOT
BRANCH   8  13
ATOM     13  C   UNL     1       7.491   6.961  17.280  0.00  0.00    +0.000 C 
ATOM     14  O   UNL     1       7.877   6.801  16.124  0.00  0.00    +0.000 OA
BRANCH  13  15
ATOM     15  C   UNL     1       8.019   8.071  18.117  0.00  0.00    +0.000 C 
ATOM     16  C   UNL     1       8.172   9.297  17.587  0.00  0.00    +0.000 C 
BRANCH  16  17
ATOM     17  C   UNL     1       8.746  10.384  18.377  0.00  0.00    +0.000 A 
ATOM     18  C   UNL     1       8.808  11.675  17.837  0.00  0.00    +0.000 A 
ATOM     19  C   UNL     1       9.430  12.707  18.544  0.00  0.00    +0.000 A 
ATOM     20  C   UNL     1       9.984  12.442  19.792  0.00  0.00    +0.000 A 
ATOM     21  C   UNL     1       9.903  11.172  20.353  0.00  0.00    +0.000 A 
ATOM     22  C   UNL     1       9.286  10.139  19.644  0.00  0.00    +0.000 A 
BRANCH  20  23
ATOM     23  O   UNL     1      10.631  13.410  20.502  0.00  0.00    +0.000 OA
ATOM     24  H   UNL     1      11.364  12.999  20.989  0.00  0.00    +0.000 HD
ENDBRANCH  20  23
ENDBRANCH  16  17
ENDBRANCH  13  15
ENDBRANCH   8  13
BRANCH   9  25
ATOM     25  O   UNL     1       7.820   4.025  17.970  0.00  0.00    +0.000 OA
ATOM     26  H   UNL     1       7.651   3.080  18.120  0.00  0.00    +0.000 HD
ENDBRANCH   9  25
TORSDOF 5
ENDMDL
MODEL 3
REMARK VINA RESULT:      -8.2      1.294      2.170
REMARK  Name = 
REMARK  7 active torsions:
REMARK  status: ('A' for Active; 'I' for Inactive)
REMARK    1  A    between atoms: C_1  and  C_2
REMARK    2  A    between atoms: C_2  and  C_3
REMARK    3  A    between atoms: C_8  and  C_9
REMARK    4  A    between atoms: C_9  and  C_11
REMARK    5  A    between atoms: C_12  and  C_13
REMARK    6  A    between atoms: C_16  and  O_17
REMARK    7  A    between atoms: C_20  and  O_21
REMARK                            x       y       z     vdW  Elec       q    Type
REMARK                         _______ _______ _______ _____ _____    ______ ____
ROOT
ATOM      1  C   UNL     1       1.272   2.166  19.392  0.00  0.00    +0.000 C 
ATOM      2  C   UNL     1       2.282   3.102  20.068  0.00  0.00    +0.000 C 
ATOM      3  C   UNL     1       1.774   3.476  21.468  0.00  0.00    +0.000 C 
ATOM      4  C   UNL     1       3.612   2.402  20.195  0.00  0.00    +0.000 C 
ATOM      5  C   UNL     1       4.752   2.887  19.696  0.00  0.00    +0.000 C 
ATOM      6  C   UNL     1       4.695   4.151  18.982  0.00  0.00    +0.000 A 
ATOM      7  C   UNL     1       5.860   4.733  18.465  0.00  0.00    +0.000 A 
ATOM      8  C   UNL     1       5.813   5.947  17.756  0.00  0.00    +0.000 A 
ATOM      9  C   UNL     1       4.573   6.576  17.593  0.00  0.00    +0.000 A 
ATOM     10  C   UNL     1       3.406   5.992  18.095  0.00  0.00    +0.000 A 
ATOM     11  C   UNL     1       3.468   4.790  18.800  0.00  0.00    +0.000 A 
ATOM     12  O   UNL     1       2.282   4.317  19.285  0.00  0.00    +0.000 OA
ENDROOT
BRANCH   8  13
ATOM     13  C   UNL     1       7.117   6.469  17.263  0.00  0.00    +0.000 C 
ATOM     14  O   UNL     1       7.601   6.010  16.230  0.00  0.00    +0.000 OA
BRANCH  13  15
ATOM     15  C   UNL     1       7.800   7.559  18.010  0.00  0.00    +0.000 C 
ATOM     16  C   UNL     1       7.800   8.811  17.518  0.00  0.00    +0.000 C 
BRANCH  16  17
ATOM     17  C   UNL     1       8.517   9.882  18.207  0.00  0.00    +0.000 A 
ATOM     18  C   UNL     1       9.117   9.627  19.446  0.00  0.00    +0.000 A 
ATOM     19  C   UNL     1       9.733  10.660  20.158  0.00  0.00    +0.000 A 
ATOM     20  C   UNL     1       9.748  11.944  19.622  0.00  0.00    +0.000 A 
ATOM     21  C   UNL     1       9.182  12.204  18.379  0.00  0.00    +0.000 A 
ATOM     22  C   UNL     1       8.563  11.172  17.670  0.00  0.00    +0.000 A 
BRANCH  20  23
ATOM     23  O   UNL     1      10.306  12.988  20.297  0.00  0.00    +0.000 OA
ATOM     24  H   UNL     1      10.961  12.638  20.923  0.00  0.00    +0.000 HD
ENDBRANCH  20  23
ENDBRANCH  16  17
ENDBRANCH  13  15
ENDBRANCH   8  13
BRANCH   9  25
ATOM     25  O   UNL     1       4.402   7.793  16.994  0.00  0.00    +0.000 OA
ATOM     26  H   UNL     1       4.597   7.694  16.047  0.00  0.00    +0.000 HD
ENDBRANCH   9  25
TORSDOF 5
ENDMDL
MODEL 4
REMARK VINA RESULT:      -8.1      1.060      1.115
REMARK  Name = 
REMARK  7 active torsions:
REMARK  status: ('A' for Active; 'I' for Inactive)
REMARK    1  A    between atoms: C_1  and  C_2
REMARK    2  A    between atoms: C_2  and  C_3
REMARK    3  A    between atoms: C_8  and  C_9
REMARK    4  A    between atoms: C_9  and  C_11
REMARK    5  A    between atoms: C_12  and  C_13
REMARK    6  A    between atoms: C_16  and  O_17
REMARK    7  A    between atoms: C_20  and  O_21
REMARK                            x       y       z     vdW  Elec       q    Type
REMARK                         _______ _______ _______ _____ _____    ______ ____
ROOT
ATOM      1  C   UNL     1       2.168   3.180  21.782  0.00  0.00    +0.000 C 
ATOM      2  C   UNL     1       2.279   3.505  20.287  0.00  0.00    +0.000 C 
ATOM      3  C   UNL     1       1.350   2.575  19.492  0.00  0.00    +0.000 C 
ATOM      4  C   UNL     1       1.866   4.937  20.049  0.00  0.00    +0.000 C 
ATOM      5  C   UNL     1       2.648   5.842  19.455  0.00  0.00    +0.000 C 
ATOM      6  C   UNL     1       3.971   5.418  19.032  0.00  0.00    +0.000 A 
ATOM      7  C   UNL     1       4.829   6.308  18.370  0.00  0.00    +0.000 A 
ATOM      8  C   UNL     1       6.119   5.914  17.971  0.00  0.00    +0.000 A 
ATOM      9  C   UNL     1       6.525   4.600  18.234  0.00  0.00    +0.000 A 
ATOM     10  C   UNL     1       5.678   3.713  18.906  0.00  0.00    +0.000 A 
ATOM     11  C   UNL     1       4.400   4.116  19.291  0.00  0.00    +0.000 A 
ATOM     12  O   UNL     1       3.632   3.169  19.907  0.00  0.00    +0.000 OA
ENDROOT
BRANCH   8  13
ATOM     13  C   UNL     1       6.932   6.945  17.271  0.00  0.00    +0.000 C 
ATOM     14  O   UNL     1       6.843   7.059  16.050  0.00  0.00    +0.000 OA
BRANCH  13  15
ATOM     15  C   UNL     1       7.814   7.844  18.062  0.00  0.00    +0.000 C 
ATOM     16  C   UNL     1       8.007   9.114  17.664  0.00  0.00    +0.000 C 
BRANCH  16  17
ATOM     17  C   UNL     1       8.918   9.993  18.394  0.00  0.00    +0.000 A 
ATOM     18  C   UNL     1       8.935   9.963  19.794  0.00  0.00    +0.000 A 
ATOM     19  C   UNL     1       9.738  10.856  20.511  0.00  0.00    +0.000 A 
ATOM     20  C   UNL     1      10.523  11.773  19.819  0.00  0.00    +0.000 A 
ATOM     21  C   UNL     1      10.538  11.793  18.429  0.00  0.00    +0.000 A 
ATOM     22  C   UNL     1       9.732  10.904  17.714  0.00  0.00    +0.000 A 
BRANCH  20  23
ATOM     23  O   UNL     1      11.294  12.685  20.476  0.00  0.00    +0.000 OA
ATOM     24  H   UNL     1      12.218  12.387  20.449  0.00  0.00    +0.000 HD
ENDBRANCH  20  23
ENDBRANCH  16  17
ENDBRANCH  13  15
ENDBRANCH   8  13
BRANCH   9  25
ATOM     25  O   UNL     1       7.719   4.070  17.832  0.00  0.00    +0.000 OA
ATOM     26  H   UNL     1       7.543   3.430  17.121  0.00  0.00    +0.000 HD
ENDBRANCH   9  25
TORSDOF 5
ENDMDL
MODEL 5
REMARK VINA RESULT:      -8.1      1.290      2.357
REMARK  Name = 
REMARK  7 active torsions:
REMARK  status: ('A' for Active; 'I' for Inactive)
REMARK    1  A    between atoms: C_1  and  C_2
REMARK    2  A    between atoms: C_2  and  C_3
REMARK    3  A    between atoms: C_8  and  C_9
REMARK    4  A    between atoms: C_9  and  C_11
REMARK    5  A    between atoms: C_12  and  C_13
REMARK    6  A    between atoms: C_16  and  O_17
REMARK    7  A    between atoms: C_20  and  O_21
REMARK                            x       y       z     vdW  Elec       q    Type
REMARK                         _______ _______ _______ _____ _____    ______ ____
ROOT
ATOM      1  C   UNL     1       1.049   2.419  19.166  0.00  0.00    +0.000 C 
ATOM      2  C   UNL     1       2.111   3.258  19.888  0.00  0.00    +0.000 C 
ATOM      3  C   UNL     1       1.632   3.574  21.312  0.00  0.00    +0.000 C 
ATOM      4  C   UNL     1       3.403   2.482  19.962  0.00  0.00    +0.000 C 
ATOM      5  C   UNL     1       4.565   2.935  19.483  0.00  0.00    +0.000 C 
ATOM      6  C   UNL     1       4.571   4.240  18.845  0.00  0.00    +0.000 A 
ATOM      7  C   UNL     1       5.763   4.789  18.354  0.00  0.00    +0.000 A 
ATOM      8  C   UNL     1       5.778   6.044  17.719  0.00  0.00    +0.000 A 
ATOM      9  C   UNL     1       4.572   6.747  17.605  0.00  0.00    +0.000 A 
ATOM     10  C   UNL     1       3.378   6.196  18.080  0.00  0.00    +0.000 A 
ATOM     11  C   UNL     1       3.380   4.953  18.713  0.00  0.00    +0.000 A 
ATOM     12  O   UNL     1       2.173   4.516  19.179  0.00  0.00    +0.000 OA
ENDROOT
BRANCH   8  13
ATOM     13  C   UNL     1       7.105   6.524  17.247  0.00  0.00    +0.000 C 
ATOM     14  O   UNL     1       7.574   6.076  16.203  0.00  0.00    +0.000 OA
BRANCH  13  15
ATOM     15  C   UNL     1       7.829   7.563  18.028  0.00  0.00    +0.000 C 
ATOM     16  C   UNL     1       7.866   8.832  17.584  0.00  0.00    +0.000 C 
BRANCH  16  17
ATOM     17  C   UNL     1       8.623   9.852  18.306  0.00  0.00    +0.000 A 
ATOM     18  C   UNL     1       9.056  11.000  17.630  0.00  0.00    +0.000 A 
ATOM     19  C   UNL     1       9.853  11.945  18.283  0.00  0.00    +0.000 A 
ATOM     20  C   UNL     1      10.208  11.736  19.612  0.00  0.00    +0.000 A 
ATOM     21  C   UNL     1       9.760  10.616  20.303  0.00  0.00    +0.000 A 
ATOM     22  C   UNL     1       8.967   9.670  19.649  0.00  0.00    +0.000 A 
BRANCH  20  23
ATOM     23  O   UNL     1      11.013  12.613  20.278  0.00  0.00    +0.000 OA
ATOM     24  H   UNL     1      10.466  13.127  20.894  0.00  0.00    +0.000 HD
ENDBRANCH  20  23
ENDBRANCH  16  17
ENDBRANCH  13  15
ENDBRANCH   8  13
BRANCH   9  25
ATOM     25  O   UNL     1       4.463   8.005  17.080  0.00  0.00    +0.000 OA
ATOM     26  H   UNL     1       4.838   7.993  16.183  0.00  0.00    +0.000 HD
ENDBRANCH   9  25
TORSDOF 5
ENDMDL
MODEL 6
REMARK VINA RESULT:      -8.0      6.100      9.054
REMARK  Name = 
REMARK  7 active torsions:
REMARK  status: ('A' for Active; 'I' for Inactive)
REMARK    1  A    between atoms: C_1  and  C_2
REMARK    2  A    between atoms: C_2  and  C_3
REMARK    3  A    between atoms: C_8  and  C_9
REMARK    4  A    between atoms: C_9  and  C_11
REMARK    5  A    between atoms: C_12  and  C_13
REMARK    6  A    between atoms: C_16  and  O_17
REMARK    7  A    between atoms: C_20  and  O_21
REMARK                            x       y       z     vdW  Elec       q    Type
REMARK                         _______ _______ _______ _____ _____    ______ ____
ROOT
ATOM      1  C   UNL     1       4.622   3.894  19.156  0.00  0.00    +0.000 C 
ATOM      2  C   UNL     1       3.166   4.343  18.977  0.00  0.00    +0.000 C 
ATOM      3  C   UNL     1       2.413   3.309  18.128  0.00  0.00    +0.000 C 
ATOM      4  C   UNL     1       2.502   4.451  20.328  0.00  0.00    +0.000 C 
ATOM      5  C   UNL     1       1.919   5.566  20.777  0.00  0.00    +0.000 C 
ATOM      6  C   UNL     1       1.944   6.736  19.916  0.00  0.00    +0.000 A 
ATOM      7  C   UNL     1       1.320   7.927  20.311  0.00  0.00    +0.000 A 
ATOM      8  C   UNL     1       1.353   9.072  19.494  0.00  0.00    +0.000 A 
ATOM      9  C   UNL     1       2.011   8.990  18.261  0.00  0.00    +0.000 A 
ATOM     10  C   UNL     1       2.648   7.809  17.869  0.00  0.00    +0.000 A 
ATOM     11  C   UNL     1       2.601   6.680  18.687  0.00  0.00    +0.000 A 
ATOM     12  O   UNL     1       3.218   5.562  18.203  0.00  0.00    +0.000 OA
ENDROOT
BRANCH   8  13
ATOM     13  C   UNL     1       0.648  10.273  20.019  0.00  0.00    +0.000 C 
ATOM     14  O   UNL     1       1.253  11.063  20.740  0.00  0.00    +0.000 OA
BRANCH  13  15
ATOM     15  C   UNL     1      -0.770  10.515  19.637  0.00  0.00    +0.000 C 
ATOM     16  C   UNL     1      -1.067  10.933  18.393  0.00  0.00    +0.000 C 
BRANCH  16  17
ATOM     17  C   UNL     1      -2.447  11.234  18.019  0.00  0.00    +0.000 A 
ATOM     18  C   UNL     1      -3.305  11.824  18.956  0.00  0.00    +0.000 A 
ATOM     19  C   UNL     1      -4.650  12.041  18.643  0.00  0.00    +0.000 A 
ATOM     20  C   UNL     1      -5.127  11.669  17.390  0.00  0.00    +0.000 A 
ATOM     21  C   UNL     1      -4.279  11.111  16.441  0.00  0.00    +0.000 A 
ATOM     22  C   UNL     1      -2.936  10.890  16.755  0.00  0.00    +0.000 A 
BRANCH  20  23
ATOM     23  O   UNL     1      -6.439  11.830  17.054  0.00  0.00    +0.000 OA
ATOM     24  H   UNL     1      -6.844  10.952  16.956  0.00  0.00    +0.000 HD
ENDBRANCH  20  23
ENDBRANCH  16  17
ENDBRANCH  13  15
ENDBRANCH   8  13
BRANCH   9  25
ATOM     25  O   UNL     1       2.050  10.002  17.343  0.00  0.00    +0.000 OA
ATOM     26  H   UNL     1       1.606   9.695  16.534  0.00  0.00    +0.000 HD
ENDBRANCH   9  25
TORSDOF 5
ENDMDL
MODEL 7
REMARK VINA RESULT:      -7.9      6.142      9.127
REMARK  Name = 
REMARK  7 active torsions:
REMARK  status: ('A' for Active; 'I' for Inactive)
REMARK    1  A    between atoms: C_1  and  C_2
REMARK    2  A    between atoms: C_2  and  C_3
REMARK    3  A    between atoms: C_8  and  C_9
REMARK    4  A    between atoms: C_9  and  C_11
REMARK    5  A    between atoms: C_12  and  C_13
REMARK    6  A    between atoms: C_16  and  O_17
REMARK    7  A    between atoms: C_20  and  O_21
REMARK                            x       y       z     vdW  Elec       q    Type
REMARK                         _______ _______ _______ _____ _____    ______ ____
ROOT
ATOM      1  C   UNL     1       5.424   4.330  18.625  0.00  0.00    +0.000 C 
ATOM      2  C   UNL     1       3.917   4.570  18.464  0.00  0.00    +0.000 C 
ATOM      3  C   UNL     1       3.327   3.508  17.526  0.00  0.00    +0.000 C 
ATOM      4  C   UNL     1       3.244   4.470  19.811  0.00  0.00    +0.000 C 
ATOM      5  C   UNL     1       2.501   5.446  20.340  0.00  0.00    +0.000 C 
ATOM      6  C   UNL     1       2.353   6.672  19.576  0.00  0.00    +0.000 A 
ATOM      7  C   UNL     1       1.558   7.722  20.056  0.00  0.00    +0.000 A 
ATOM      8  C   UNL     1       1.421   8.921  19.334  0.00  0.00    +0.000 A 
ATOM      9  C   UNL     1       2.084   9.037  18.106  0.00  0.00    +0.000 A 
ATOM     10  C   UNL     1       2.890   7.999  17.629  0.00  0.00    +0.000 A 
ATOM     11  C   UNL     1       3.011   6.814  18.354  0.00  0.00    +0.000 A 
ATOM     12  O   UNL     1       3.788   5.842  17.790  0.00  0.00    +0.000 OA
ENDROOT
BRANCH   8  13
ATOM     13  C   UNL     1       0.544   9.957  19.944  0.00  0.00    +0.000 C 
ATOM     14  O   UNL     1       1.000  10.701  20.810  0.00  0.00    +0.000 OA
BRANCH  13  15
ATOM     15  C   UNL     1      -0.859  10.100  19.473  0.00  0.00    +0.000 C 
ATOM     16  C   UNL     1      -1.188  11.100  18.635  0.00  0.00    +0.000 C 
BRANCH  16  17
ATOM     17  C   UNL     1      -2.573  11.291  18.210  0.00  0.00    +0.000 A 
ATOM     18  C   UNL     1      -2.963  10.897  16.924  0.00  0.00    +0.000 A 
ATOM     19  C   UNL     1      -4.261  11.150  16.471  0.00  0.00    +0.000 A 
ATOM     20  C   UNL     1      -5.163  11.793  17.313  0.00  0.00    +0.000 A 
ATOM     21  C   UNL     1      -4.798  12.162  18.602  0.00  0.00    +0.000 A 
ATOM     22  C   UNL     1      -3.500  11.913  19.053  0.00  0.00    +0.000 A 
BRANCH  20  23
ATOM     23  O   UNL     1      -6.429  12.090  16.901  0.00  0.00    +0.000 OA
ATOM     24  H   UNL     1      -7.021  11.370  17.173  0.00  0.00    +0.000 HD
ENDBRANCH  20  23
ENDBRANCH  16  17
ENDBRANCH  13  15
ENDBRANCH   8  13
BRANCH   9  25
ATOM     25  O   UNL     1       1.973  10.115  17.272  0.00  0.00    +0.000 OA
ATOM     26  H   UNL     1       2.864  10.472  17.119  0.00  0.00    +0.000 HD
ENDBRANCH   9  25
TORSDOF 5
ENDMDL
MODEL 8
REMARK VINA RESULT:      -7.8      5.562      8.501
REMARK  Name = 
REMARK  7 active torsions:
REMARK  status: ('A' for Active; 'I' for Inactive)
REMARK    1  A    between atoms: C_1  and  C_2
REMARK    2  A    between atoms: C_2  and  C_3
REMARK    3  A    between atoms: C_8  and  C_9
REMARK    4  A    between atoms: C_9  and  C_11
REMARK    5  A    between atoms: C_12  and  C_13
REMARK    6  A    between atoms: C_16  and  O_17
REMARK    7  A    between atoms: C_20  and  O_21
REMARK                            x       y       z     vdW  Elec       q    Type
REMARK                         _______ _______ _______ _____ _____    ______ ____
ROOT
ATOM      1  C   UNL     1       1.996   2.041  19.480  0.00  0.00    +0.000 C 
ATOM      2  C   UNL     1       2.978   3.215  19.369  0.00  0.00    +0.000 C 
ATOM      3  C   UNL     1       4.354   2.781  19.897  0.00  0.00    +0.000 C 
ATOM      4  C   UNL     1       3.111   3.628  17.924  0.00  0.00    +0.000 C 
ATOM      5  C   UNL     1       2.874   4.867  17.486  0.00  0.00    +0.000 C 
ATOM      6  C   UNL     1       2.451   5.859  18.459  0.00  0.00    +0.000 A 
ATOM      7  C   UNL     1       2.220   7.186  18.072  0.00  0.00    +0.000 A 
ATOM      8  C   UNL     1       1.793   8.152  19.002  0.00  0.00    +0.000 A 
ATOM      9  C   UNL     1       1.622   7.761  20.335  0.00  0.00    +0.000 A 
ATOM     10  C   UNL     1       1.837   6.435  20.723  0.00  0.00    +0.000 A 
ATOM     11  C   UNL     1       2.265   5.490  19.791  0.00  0.00    +0.000 A 
ATOM     12  O   UNL     1       2.486   4.231  20.271  0.00  0.00    +0.000 OA
ENDROOT
BRANCH   8  13
ATOM     13  C   UNL     1       1.590   9.527  18.471  0.00  0.00    +0.000 C 
ATOM     14  O   UNL     1       2.560  10.180  18.095  0.00  0.00    +0.000 OA
BRANCH  13  15
ATOM     15  C   UNL     1       0.211  10.078  18.374  0.00  0.00    +0.000 C 
ATOM     16  C   UNL     1      -0.636   9.606  17.443  0.00  0.00    +0.000 C 
BRANCH  16  17
ATOM     17  C   UNL     1      -1.973  10.178  17.293  0.00  0.00    +0.000 A 
ATOM     18  C   UNL     1      -2.662  10.018  16.085  0.00  0.00    +0.000 A 
ATOM     19  C   UNL     1      -3.905  10.630  15.895  0.00  0.00    +0.000 A 
ATOM     20  C   UNL     1      -4.452  11.395  16.920  0.00  0.00    +0.000 A 
ATOM     21  C   UNL     1      -3.791  11.537  18.135  0.00  0.00    +0.000 A 
ATOM     22  C   UNL     1      -2.548  10.929  18.323  0.00  0.00    +0.000 A 
BRANCH  20  23
ATOM     23  O   UNL     1      -5.644  12.038  16.766  0.00  0.00    +0.000 OA
ATOM     24  H   UNL     1      -6.090  11.681  15.980  0.00  0.00    +0.000 HD
ENDBRANCH  20  23
ENDBRANCH  16  17
ENDBRANCH  13  15
ENDBRANCH   8  13
BRANCH   9  25
ATOM     25  O   UNL     1       1.287   8.615  21.349  0.00  0.00    +0.000 OA
ATOM     26  H   UNL     1       0.985   9.451  20.953  0.00  0.00    +0.000 HD
ENDBRANCH   9  25
TORSDOF 5
ENDMDL
MODEL 9
REMARK VINA RESULT:      -7.8      5.185      7.152
REMARK  Name = 
REMARK  7 active torsions:
REMARK  status: ('A' for Active; 'I' for Inactive)
REMARK    1  A    between atoms: C_1  and  C_2
REMARK    2  A    between atoms: C_2  and  C_3
REMARK    3  A    between atoms: C_8  and  C_9
REMARK    4  A    between atoms: C_9  and  C_11
REMARK    5  A    between atoms: C_12  and  C_13
REMARK    6  A    between atoms: C_16  and  O_17
REMARK    7  A    between atoms: C_20  and  O_21
REMARK                            x       y       z     vdW  Elec       q    Type
REMARK                         _______ _______ _______ _____ _____    ______ ____
ROOT
ATOM      1  C   UNL     1       1.332  11.392  20.214  0.00  0.00    +0.000 C 
ATOM      2  C   UNL     1       0.786  10.164  19.474  0.00  0.00    +0.000 C 
ATOM      3  C   UNL     1      -0.729  10.321  19.272  0.00  0.00    +0.000 C 
ATOM      4  C   UNL     1       1.455  10.048  18.126  0.00  0.00    +0.000 C 
ATOM      5  C   UNL     1       2.119   8.961  17.724  0.00  0.00    +0.000 C 
ATOM      6  C   UNL     1       2.210   7.843  18.646  0.00  0.00    +0.000 A 
ATOM      7  C   UNL     1       2.862   6.660  18.273  0.00  0.00    +0.000 A 
ATOM      8  C   UNL     1       2.971   5.577  19.164  0.00  0.00    +0.000 A 
ATOM      9  C   UNL     1       2.394   5.699  20.433  0.00  0.00    +0.000 A 
ATOM     10  C   UNL     1       1.755   6.883  20.816  0.00  0.00    +0.000 A 
ATOM     11  C   UNL     1       1.650   7.946  19.919  0.00  0.00    +0.000 A 
ATOM     12  O   UNL     1       0.974   9.045  20.369  0.00  0.00    +0.000 OA
ENDROOT
BRANCH   8  13
ATOM     13  C   UNL     1       3.679   4.373  18.649  0.00  0.00    +0.000 C 
ATOM     14  O   UNL     1       3.857   3.412  19.393  0.00  0.00    +0.000 OA
BRANCH  13  15
ATOM     15  C   UNL     1       4.131   4.339  17.232  0.00  0.00    +0.000 C 
ATOM     16  C   UNL     1       5.444   4.395  16.945  0.00  0.00    +0.000 C 
BRANCH  16  17
ATOM     17  C   UNL     1       5.903   4.424  15.558  0.00  0.00    +0.000 A 
ATOM     18  C   UNL     1       5.153   3.777  14.568  0.00  0.00    +0.000 A 
ATOM     19  C   UNL     1       5.620   3.722  13.252  0.00  0.00    +0.000 A 
ATOM     20  C   UNL     1       6.836   4.320  12.934  0.00  0.00    +0.000 A 
ATOM     21  C   UNL     1       7.575   4.991  13.902  0.00  0.00    +0.000 A 
ATOM     22  C   UNL     1       7.110   5.041  15.218  0.00  0.00    +0.000 A 
BRANCH  20  23
ATOM     23  O   UNL     1       7.347   4.261  11.671  0.00  0.00    +0.000 OA
ATOM     24  H   UNL     1       7.295   5.146  11.274  0.00  0.00    +0.000 HD
ENDBRANCH  20  23
ENDBRANCH  16  17
ENDBRANCH  13  15
ENDBRANCH   8  13
BRANCH   9  25
ATOM     25  O   UNL     1       2.362   4.697  21.363  0.00  0.00    +0.000 OA
ATOM     26  H   UNL     1       3.156   4.149  21.244  0.00  0.00    +0.000 HD
ENDBRANCH   9  25
TORSDOF 5
ENDMDL
