MODEL 1
REMARK VINA RESULT:      -7.1      0.000      0.000
REMARK  Name = 
REMARK  4 active torsions:
REMARK  status: ('A' for Active; 'I' for Inactive)
REMARK    1  A    between atoms: C_1  and  C_2
REMARK    2  A    between atoms: C_4  and  C_5
REMARK    3  A    between atoms: N_18  and  C_19
REMARK    4  A    between atoms: C_20  and  C_21
REMARK                            x       y       z     vdW  Elec       q    Type
REMARK                         _______ _______ _______ _____ _____    ______ ____
ROOT
ATOM      1  C   UNL     1       4.693   2.817  16.652  0.00  0.00    +0.000 C 
ATOM      2  C   UNL     1       3.857   3.795  17.386  0.00  0.00    +0.000 A 
ATOM      3  N   UNL     1       2.924   3.519  18.270  0.00  0.00    +0.000 NA
ATOM      4  C   UNL     1       2.450   4.735  18.716  0.00  0.00    +0.000 A 
ATOM      5  C   UNL     1       3.105   5.761  18.059  0.00  0.00    +0.000 A 
ATOM      6  C   UNL     1       3.054   7.194  18.038  0.00  0.00    +0.000 A 
ATOM      7  N   UNL     1       2.048   7.949  18.635  0.00  0.00    +0.000 N 
ATOM      8  C   UNL     1       2.128   8.293  20.061  0.00  0.00    +0.000 C 
ATOM      9  C   UNL     1       0.985   9.100  20.538  0.00  0.00    +0.000 A 
ATOM     10  C   UNL     1       0.089   9.771  19.727  0.00  0.00    +0.000 A 
ATOM     11  C   UNL     1      -0.797  10.393  20.620  0.00  0.00    +0.000 A 
ATOM     12  N   UNL     1      -0.479  10.153  21.897  0.00  0.00    +0.000 NA
ATOM     13  N   UNL     1       0.638   9.410  21.820  0.00  0.00    +0.000 N 
ATOM     14  C   UNL     1       1.386   9.140  23.027  0.00  0.00    +0.000 C 
ATOM     15  C   UNL     1       0.260   9.845  18.260  0.00  0.00    +0.000 C 
ATOM     16  C   UNL     1      -1.051   9.816  17.470  0.00  0.00    +0.000 C 
ATOM     17  C   UNL     1       1.253   8.791  17.699  0.00  0.00    +0.000 C 
ATOM     18  N   UNL     1       3.937   7.814  17.306  0.00  0.00    +0.000 NA
ATOM     19  C   UNL     1       4.847   7.079  16.571  0.00  0.00    +0.000 A 
ATOM     20  N   UNL     1       4.924   5.792  16.485  0.00  0.00    +0.000 NA
ATOM     21  N   UNL     1       4.017   5.151  17.248  0.00  0.00    +0.000 N 
ENDROOT
BRANCH   4  22
ATOM     22  C   UNL     1       1.470   4.782  19.842  0.00  0.00    +0.000 C 
ATOM     23  C   UNL     1       2.203   4.858  21.175  0.00  0.00    +0.000 C 
ATOM     24  C   UNL     1       2.116   3.459  21.746  0.00  0.00    +0.000 C 
ATOM     25  O   UNL     1       1.039   2.777  21.108  0.00  0.00    +0.000 OA
ATOM     26  C   UNL     1       0.579   3.557  19.997  0.00  0.00    +0.000 C 
ENDBRANCH   4  22
TORSDOF 1
ENDMDL
MODEL 2
REMARK VINA RESULT:      -6.4      5.429      8.392
REMARK  Name = 
REMARK  4 active torsions:
REMARK  status: ('A' for Active; 'I' for Inactive)
REMARK    1  A    between atoms: C_1  and  C_2
REMARK    2  A    between atoms: C_4  and  C_5
REMARK    3  A    between atoms: N_18  and  C_19
REMARK    4  A    between atoms: C_20  and  C_21
REMARK                            x       y       z     vdW  Elec       q    Type
REMARK                         _______ _______ _______ _____ _____    ______ ____
ROOT
ATOM      1  C   UNL     1      -3.048   9.704  16.073  0.00  0.00    +0.000 C 
ATOM      2  C   UNL     1      -2.773  10.457  17.318  0.00  0.00    +0.000 A 
ATOM      3  N   UNL     1      -1.640  10.482  17.984  0.00  0.00    +0.000 NA
ATOM      4  C   UNL     1      -1.839  11.344  19.042  0.00  0.00    +0.000 A 
ATOM      5  C   UNL     1      -3.135  11.825  19.016  0.00  0.00    +0.000 A 
ATOM      6  C   UNL     1      -3.950  12.689  19.819  0.00  0.00    +0.000 A 
ATOM      7  N   UNL     1      -3.595  13.142  21.087  0.00  0.00    +0.000 N 
ATOM      8  C   UNL     1      -2.747  14.332  21.237  0.00  0.00    +0.000 C 
ATOM      9  C   UNL     1      -2.465  14.681  22.646  0.00  0.00    +0.000 A 
ATOM     10  C   UNL     1      -3.156  14.197  23.741  0.00  0.00    +0.000 A 
ATOM     11  C   UNL     1      -2.544  14.811  24.844  0.00  0.00    +0.000 A 
ATOM     12  N   UNL     1      -1.554  15.634  24.479  0.00  0.00    +0.000 NA
ATOM     13  N   UNL     1      -1.563  15.578  23.137  0.00  0.00    +0.000 N 
ATOM     14  C   UNL     1      -0.753  16.515  22.390  0.00  0.00    +0.000 C 
ATOM     15  C   UNL     1      -4.358  13.346  23.598  0.00  0.00    +0.000 C 
ATOM     16  C   UNL     1      -4.496  12.266  24.674  0.00  0.00    +0.000 C 
ATOM     17  C   UNL     1      -4.511  12.725  22.184  0.00  0.00    +0.000 C 
ATOM     18  N   UNL     1      -5.148  12.960  19.382  0.00  0.00    +0.000 NA
ATOM     19  C   UNL     1      -5.586  12.390  18.203  0.00  0.00    +0.000 A 
ATOM     20  N   UNL     1      -4.944  11.557  17.452  0.00  0.00    +0.000 NA
ATOM     21  N   UNL     1      -3.702  11.283  17.899  0.00  0.00    +0.000 N 
ENDROOT
BRANCH   4  22
ATOM     22  C   UNL     1      -0.692  11.712  19.926  0.00  0.00    +0.000 C 
ATOM     23  C   UNL     1       0.604  11.127  19.379  0.00  0.00    +0.000 C 
ATOM     24  C   UNL     1       0.889   9.927  20.258  0.00  0.00    +0.000 C 
ATOM     25  O   UNL     1       0.166  10.078  21.477  0.00  0.00    +0.000 OA
ATOM     26  C   UNL     1      -0.752  11.172  21.349  0.00  0.00    +0.000 C 
ENDBRANCH   4  22
TORSDOF 1
ENDMDL
MODEL 3
REMARK VINA RESULT:      -6.4      6.223      8.801
REMARK  Name = 
REMARK  4 active torsions:
REMARK  status: ('A' for Active; 'I' for Inactive)
REMARK    1  A    between atoms: C_1  and  C_2
REMARK    2  A    between atoms: C_4  and  C_5
REMARK    3  A    between atoms: N_18  and  C_19
REMARK    4  A    between atoms: C_20  and  C_21
REMARK                            x       y       z     vdW  Elec       q    Type
REMARK                         _______ _______ _______ _____ _____    ______ ____
ROOT
ATOM      1  C   UNL     1      -2.835   9.747  16.083  0.00  0.00    +0.000 C 
ATOM      2  C   UNL     1      -2.640  10.572  17.298  0.00  0.00    +0.000 A 
ATOM      3  N   UNL     1      -1.503  10.791  17.921  0.00  0.00    +0.000 NA
ATOM      4  C   UNL     1      -1.799  11.645  18.963  0.00  0.00    +0.000 A 
ATOM      5  C   UNL     1      -3.154  11.921  18.971  0.00  0.00    +0.000 A 
ATOM      6  C   UNL     1      -4.066  12.676  19.781  0.00  0.00    +0.000 A 
ATOM      7  N   UNL     1      -3.745  13.217  21.022  0.00  0.00    +0.000 N 
ATOM      8  C   UNL     1      -3.086  14.527  21.110  0.00  0.00    +0.000 C 
ATOM      9  C   UNL     1      -2.817  14.960  22.498  0.00  0.00    +0.000 A 
ATOM     10  C   UNL     1      -3.390  14.411  23.630  0.00  0.00    +0.000 A 
ATOM     11  C   UNL     1      -2.845  15.145  24.694  0.00  0.00    +0.000 A 
ATOM     12  N   UNL     1      -2.006  16.098  24.272  0.00  0.00    +0.000 NA
ATOM     13  N   UNL     1      -2.048  15.999  22.932  0.00  0.00    +0.000 N 
ATOM     14  C   UNL     1      -1.416  17.024  22.133  0.00  0.00    +0.000 C 
ATOM     15  C   UNL     1      -4.450  13.382  23.553  0.00  0.00    +0.000 C 
ATOM     16  C   UNL     1      -4.387  12.327  24.661  0.00  0.00    +0.000 C 
ATOM     17  C   UNL     1      -4.551  12.700  22.162  0.00  0.00    +0.000 C 
ATOM     18  N   UNL     1      -5.305  12.747  19.380  0.00  0.00    +0.000 NA
ATOM     19  C   UNL     1      -5.688  12.079  18.232  0.00  0.00    +0.000 A 
ATOM     20  N   UNL     1      -4.948  11.331  17.481  0.00  0.00    +0.000 NA
ATOM     21  N   UNL     1      -3.666  11.264  17.890  0.00  0.00    +0.000 N 
ENDROOT
BRANCH   4  22
ATOM     22  C   UNL     1      -0.695  12.212  19.795  0.00  0.00    +0.000 C 
ATOM     23  C   UNL     1      -0.162  13.490  19.161  0.00  0.00    +0.000 C 
ATOM     24  C   UNL     1       1.141  13.084  18.506  0.00  0.00    +0.000 C 
ATOM     25  O   UNL     1       1.589  11.870  19.104  0.00  0.00    +0.000 OA
ATOM     26  C   UNL     1       0.545  11.340  19.933  0.00  0.00    +0.000 C 
ENDBRANCH   4  22
TORSDOF 1
ENDMDL
MODEL 4
REMARK VINA RESULT:      -6.3      6.074      8.573
REMARK  Name = 
REMARK  4 active torsions:
REMARK  status: ('A' for Active; 'I' for Inactive)
REMARK    1  A    between atoms: C_1  and  C_2
REMARK    2  A    between atoms: C_4  and  C_5
REMARK    3  A    between atoms: N_18  and  C_19
REMARK    4  A    between atoms: C_20  and  C_21
REMARK                            x       y       z     vdW  Elec       q    Type
REMARK                         _______ _______ _______ _____ _____    ______ ____
ROOT
ATOM      1  C   UNL     1      -3.415  10.005  15.369  0.00  0.00    +0.000 C 
ATOM      2  C   UNL     1      -3.493  10.741  16.652  0.00  0.00    +0.000 A 
ATOM      3  N   UNL     1      -4.534  11.398  17.115  0.00  0.00    +0.000 NA
ATOM      4  C   UNL     1      -4.160  11.880  18.352  0.00  0.00    +0.000 A 
ATOM      5  C   UNL     1      -2.852  11.519  18.618  0.00  0.00    +0.000 A 
ATOM      6  C   UNL     1      -1.899  11.730  19.669  0.00  0.00    +0.000 A 
ATOM      7  N   UNL     1      -2.071  12.638  20.709  0.00  0.00    +0.000 N 
ATOM      8  C   UNL     1      -2.828  12.255  21.909  0.00  0.00    +0.000 C 
ATOM      9  C   UNL     1      -2.916  13.330  22.919  0.00  0.00    +0.000 A 
ATOM     10  C   UNL     1      -2.124  14.463  22.949  0.00  0.00    +0.000 A 
ATOM     11  C   UNL     1      -2.563  15.170  24.079  0.00  0.00    +0.000 A 
ATOM     12  N   UNL     1      -3.542  14.530  24.727  0.00  0.00    +0.000 NA
ATOM     13  N   UNL     1      -3.700  13.390  24.033  0.00  0.00    +0.000 N 
ATOM     14  C   UNL     1      -4.542  12.349  24.578  0.00  0.00    +0.000 C 
ATOM     15  C   UNL     1      -0.998  14.660  22.011  0.00  0.00    +0.000 C 
ATOM     16  C   UNL     1      -0.789  16.111  21.571  0.00  0.00    +0.000 C 
ATOM     17  C   UNL     1      -1.052  13.722  20.775  0.00  0.00    +0.000 C 
ATOM     18  N   UNL     1      -0.750  11.122  19.566  0.00  0.00    +0.000 NA
ATOM     19  C   UNL     1      -0.491  10.341  18.456  0.00  0.00    +0.000 A 
ATOM     20  N   UNL     1      -1.265  10.147  17.440  0.00  0.00    +0.000 NA
ATOM     21  N   UNL     1      -2.456  10.768  17.549  0.00  0.00    +0.000 N 
ENDROOT
BRANCH   4  22
ATOM     22  C   UNL     1      -5.168  12.560  19.220  0.00  0.00    +0.000 C 
ATOM     23  C   UNL     1      -5.870  11.540  20.109  0.00  0.00    +0.000 C 
ATOM     24  C   UNL     1      -7.223  11.330  19.464  0.00  0.00    +0.000 C 
ATOM     25  O   UNL     1      -7.501  12.444  18.621  0.00  0.00    +0.000 OA
ATOM     26  C   UNL     1      -6.317  13.243  18.491  0.00  0.00    +0.000 C 
ENDBRANCH   4  22
TORSDOF 1
ENDMDL
MODEL 5
REMARK VINA RESULT:      -6.2      6.738      9.592
REMARK  Name = 
REMARK  4 active torsions:
REMARK  status: ('A' for Active; 'I' for Inactive)
REMARK    1  A    between atoms: C_1  and  C_2
REMARK    2  A    between atoms: C_4  and  C_5
REMARK    3  A    between atoms: N_18  and  C_19
REMARK    4  A    between atoms: C_20  and  C_21
REMARK                            x       y       z     vdW  Elec       q    Type
REMARK                         _______ _______ _______ _____ _____    ______ ____
ROOT
ATOM      1  C   UNL     1      -3.052  10.075  15.485  0.00  0.00    +0.000 C 
ATOM      2  C   UNL     1      -3.533  10.861  16.644  0.00  0.00    +0.000 A 
ATOM      3  N   UNL     1      -4.738  11.363  16.803  0.00  0.00    +0.000 NA
ATOM      4  C   UNL     1      -4.737  11.971  18.041  0.00  0.00    +0.000 A 
ATOM      5  C   UNL     1      -3.487  11.846  18.622  0.00  0.00    +0.000 A 
ATOM      6  C   UNL     1      -2.846  12.272  19.831  0.00  0.00    +0.000 A 
ATOM      7  N   UNL     1      -3.387  13.198  20.719  0.00  0.00    +0.000 N 
ATOM      8  C   UNL     1      -4.336  12.766  21.753  0.00  0.00    +0.000 C 
ATOM      9  C   UNL     1      -4.813  13.869  22.614  0.00  0.00    +0.000 A 
ATOM     10  C   UNL     1      -4.226  15.117  22.710  0.00  0.00    +0.000 A 
ATOM     11  C   UNL     1      -5.014  15.806  23.644  0.00  0.00    +0.000 A 
ATOM     12  N   UNL     1      -6.012  15.052  24.118  0.00  0.00    +0.000 NA
ATOM     13  N   UNL     1      -5.835  13.864  23.517  0.00  0.00    +0.000 N 
ATOM     14  C   UNL     1      -6.618  12.731  23.958  0.00  0.00    +0.000 C 
ATOM     15  C   UNL     1      -2.954  15.441  22.028  0.00  0.00    +0.000 C 
ATOM     16  C   UNL     1      -2.865  16.879  21.511  0.00  0.00    +0.000 C 
ATOM     17  C   UNL     1      -2.582  14.437  20.904  0.00  0.00    +0.000 C 
ATOM     18  N   UNL     1      -1.628  11.856  20.042  0.00  0.00    +0.000 NA
ATOM     19  C   UNL     1      -1.006  11.066  19.094  0.00  0.00    +0.000 A 
ATOM     20  N   UNL     1      -1.487  10.689  17.955  0.00  0.00    +0.000 NA
ATOM     21  N   UNL     1      -2.748  11.110  17.741  0.00  0.00    +0.000 N 
ENDROOT
BRANCH   4  22
ATOM     22  C   UNL     1      -6.008  12.524  18.598  0.00  0.00    +0.000 C 
ATOM     23  C   UNL     1      -7.147  12.329  17.606  0.00  0.00    +0.000 C 
ATOM     24  C   UNL     1      -7.351  13.691  16.977  0.00  0.00    +0.000 C 
ATOM     25  O   UNL     1      -6.784  14.676  17.837  0.00  0.00    +0.000 OA
ATOM     26  C   UNL     1      -6.018  14.024  18.860  0.00  0.00    +0.000 C 
ENDBRANCH   4  22
TORSDOF 1
ENDMDL
MODEL 6
REMARK VINA RESULT:      -6.1      6.313      9.443
REMARK  Name = 
REMARK  4 active torsions:
REMARK  status: ('A' for Active; 'I' for Inactive)
REMARK    1  A    between atoms: C_1  and  C_2
REMARK    2  A    between atoms: C_4  and  C_5
REMARK    3  A    between atoms: N_18  and  C_19
REMARK    4  A    between atoms: C_20  and  C_21
REMARK                            x       y       z     vdW  Elec       q    Type
REMARK                         _______ _______ _______ _____ _____    ______ ____
ROOT
ATOM      1  C   UNL     1      -1.530   9.955  17.178  0.00  0.00    +0.000 C 
ATOM      2  C   UNL     1      -2.148  10.806  18.221  0.00  0.00    +0.000 A 
ATOM      3  N   UNL     1      -1.592  11.188  19.349  0.00  0.00    +0.000 NA
ATOM      4  C   UNL     1      -2.518  11.997  19.975  0.00  0.00    +0.000 A 
ATOM      5  C   UNL     1      -3.665  12.076  19.205  0.00  0.00    +0.000 A 
ATOM      6  C   UNL     1      -4.953  12.697  19.305  0.00  0.00    +0.000 A 
ATOM      7  N   UNL     1      -5.450  13.286  20.465  0.00  0.00    +0.000 N 
ATOM      8  C   UNL     1      -5.110  14.677  20.793  0.00  0.00    +0.000 C 
ATOM      9  C   UNL     1      -5.719  15.151  22.054  0.00  0.00    +0.000 A 
ATOM     10  C   UNL     1      -6.761  14.531  22.719  0.00  0.00    +0.000 A 
ATOM     11  C   UNL     1      -6.996  15.342  23.840  0.00  0.00    +0.000 A 
ATOM     12  N   UNL     1      -6.182  16.403  23.875  0.00  0.00    +0.000 NA
ATOM     13  N   UNL     1      -5.453  16.291  22.752  0.00  0.00    +0.000 N 
ATOM     14  C   UNL     1      -4.604  17.392  22.355  0.00  0.00    +0.000 C 
ATOM     15  C   UNL     1      -7.468  13.361  22.154  0.00  0.00    +0.000 C 
ATOM     16  C   UNL     1      -7.916  12.332  23.195  0.00  0.00    +0.000 C 
ATOM     17  C   UNL     1      -6.691  12.665  21.004  0.00  0.00    +0.000 C 
ATOM     18  N   UNL     1      -5.752  12.588  18.280  0.00  0.00    +0.000 NA
ATOM     19  C   UNL     1      -5.344  11.866  17.175  0.00  0.00    +0.000 A 
ATOM     20  N   UNL     1      -4.230  11.227  17.027  0.00  0.00    +0.000 NA
ATOM     21  N   UNL     1      -3.401  11.347  18.082  0.00  0.00    +0.000 N 
ENDROOT
BRANCH   4  22
ATOM     22  C   UNL     1      -2.146  12.720  21.228  0.00  0.00    +0.000 C 
ATOM     23  C   UNL     1      -0.698  12.423  21.597  0.00  0.00    +0.000 C 
ATOM     24  C   UNL     1      -0.784  11.422  22.729  0.00  0.00    +0.000 C 
ATOM     25  O   UNL     1      -2.083  11.506  23.309  0.00  0.00    +0.000 OA
ATOM     26  C   UNL     1      -2.919  12.321  22.477  0.00  0.00    +0.000 C 
ENDBRANCH   4  22
TORSDOF 1
ENDMDL
MODEL 7
REMARK VINA RESULT:      -6.1      4.425      7.802
REMARK  Name = 
REMARK  4 active torsions:
REMARK  status: ('A' for Active; 'I' for Inactive)
REMARK    1  A    between atoms: C_1  and  C_2
REMARK    2  A    between atoms: C_4  and  C_5
REMARK    3  A    between atoms: N_18  and  C_19
REMARK    4  A    between atoms: C_20  and  C_21
REMARK                            x       y       z     vdW  Elec       q    Type
REMARK                         _______ _______ _______ _____ _____    ______ ____
ROOT
ATOM      1  C   UNL     1       1.823   8.405  19.502  0.00  0.00    +0.000 C 
ATOM      2  C   UNL     1       0.846   9.468  19.832  0.00  0.00    +0.000 A 
ATOM      3  N   UNL     1       0.211  10.240  18.978  0.00  0.00    +0.000 NA
ATOM      4  C   UNL     1      -0.618  11.042  19.733  0.00  0.00    +0.000 A 
ATOM      5  C   UNL     1      -0.452  10.753  21.076  0.00  0.00    +0.000 A 
ATOM      6  C   UNL     1      -0.967  11.236  22.324  0.00  0.00    +0.000 A 
ATOM      7  N   UNL     1      -1.719  12.399  22.462  0.00  0.00    +0.000 N 
ATOM      8  C   UNL     1      -3.171  12.372  22.241  0.00  0.00    +0.000 C 
ATOM      9  C   UNL     1      -3.821  13.686  22.430  0.00  0.00    +0.000 A 
ATOM     10  C   UNL     1      -3.251  14.774  23.065  0.00  0.00    +0.000 A 
ATOM     11  C   UNL     1      -4.236  15.772  23.009  0.00  0.00    +0.000 A 
ATOM     12  N   UNL     1      -5.350  15.348  22.403  0.00  0.00    +0.000 NA
ATOM     13  N   UNL     1      -5.092  14.063  22.108  0.00  0.00    +0.000 N 
ATOM     14  C   UNL     1      -6.166  13.223  21.629  0.00  0.00    +0.000 C 
ATOM     15  C   UNL     1      -1.939  14.689  23.742  0.00  0.00    +0.000 C 
ATOM     16  C   UNL     1      -1.090  15.959  23.636  0.00  0.00    +0.000 C 
ATOM     17  C   UNL     1      -1.107  13.446  23.326  0.00  0.00    +0.000 C 
ATOM     18  N   UNL     1      -0.597  10.610  23.407  0.00  0.00    +0.000 NA
ATOM     19  C   UNL     1       0.282   9.549  23.311  0.00  0.00    +0.000 A 
ATOM     20  N   UNL     1       0.839   9.090  22.239  0.00  0.00    +0.000 NA
ATOM     21  N   UNL     1       0.451   9.731  21.119  0.00  0.00    +0.000 N 
ENDROOT
BRANCH   4  22
ATOM     22  C   UNL     1      -1.595  11.948  19.056  0.00  0.00    +0.000 C 
ATOM     23  C   UNL     1      -2.948  11.259  18.925  0.00  0.00    +0.000 C 
ATOM     24  C   UNL     1      -3.023  10.825  17.477  0.00  0.00    +0.000 C 
ATOM     25  O   UNL     1      -2.094  11.601  16.724  0.00  0.00    +0.000 OA
ATOM     26  C   UNL     1      -1.255  12.336  17.624  0.00  0.00    +0.000 C 
ENDBRANCH   4  22
TORSDOF 1
ENDMDL
MODEL 8
REMARK VINA RESULT:      -6.1      9.017     11.938
REMARK  Name = 
REMARK  4 active torsions:
REMARK  status: ('A' for Active; 'I' for Inactive)
REMARK    1  A    between atoms: C_1  and  C_2
REMARK    2  A    between atoms: C_4  and  C_5
REMARK    3  A    between atoms: N_18  and  C_19
REMARK    4  A    between atoms: C_20  and  C_21
REMARK                            x       y       z     vdW  Elec       q    Type
REMARK                         _______ _______ _______ _____ _____    ______ ____
ROOT
ATOM      1  C   UNL     1       4.874  15.641  24.441  0.00  0.00    +0.000 C 
ATOM      2  C   UNL     1       5.786  15.258  23.339  0.00  0.00    +0.000 A 
ATOM      3  N   UNL     1       5.795  15.756  22.122  0.00  0.00    +0.000 NA
ATOM      4  C   UNL     1       6.834  15.133  21.464  0.00  0.00    +0.000 A 
ATOM      5  C   UNL     1       7.444  14.223  22.308  0.00  0.00    +0.000 A 
ATOM      6  C   UNL     1       8.512  13.269  22.227  0.00  0.00    +0.000 A 
ATOM      7  N   UNL     1       9.124  12.880  21.039  0.00  0.00    +0.000 N 
ATOM      8  C   UNL     1      10.223  13.678  20.477  0.00  0.00    +0.000 C 
ATOM      9  C   UNL     1      10.765  13.129  19.216  0.00  0.00    +0.000 A 
ATOM     10  C   UNL     1      10.545  11.847  18.744  0.00  0.00    +0.000 A 
ATOM     11  C   UNL     1      11.260  11.788  17.539  0.00  0.00    +0.000 A 
ATOM     12  N   UNL     1      11.899  12.933  17.274  0.00  0.00    +0.000 NA
ATOM     13  N   UNL     1      11.625  13.711  18.334  0.00  0.00    +0.000 N 
ATOM     14  C   UNL     1      12.333  14.963  18.486  0.00  0.00    +0.000 C 
ATOM     15  C   UNL     1       9.819  10.832  19.538  0.00  0.00    +0.000 C 
ATOM     16  C   UNL     1       8.950   9.884  18.706  0.00  0.00    +0.000 C 
ATOM     17  C   UNL     1       8.995  11.434  20.708  0.00  0.00    +0.000 C 
ATOM     18  N   UNL     1       8.837  12.640  23.322  0.00  0.00    +0.000 NA
ATOM     19  C   UNL     1       8.133  12.889  24.484  0.00  0.00    +0.000 A 
ATOM     20  N   UNL     1       7.123  13.683  24.631  0.00  0.00    +0.000 NA
ATOM     21  N   UNL     1       6.792  14.340  23.502  0.00  0.00    +0.000 N 
ENDROOT
BRANCH   4  22
ATOM     22  C   UNL     1       7.215  15.576  20.089  0.00  0.00    +0.000 C 
ATOM     23  C   UNL     1       8.294  16.649  20.161  0.00  0.00    +0.000 C 
ATOM     24  C   UNL     1       7.566  17.950  19.898  0.00  0.00    +0.000 C 
ATOM     25  O   UNL     1       6.336  17.655  19.241  0.00  0.00    +0.000 OA
ATOM     26  C   UNL     1       6.110  16.240  19.278  0.00  0.00    +0.000 C 
ENDBRANCH   4  22
TORSDOF 1
ENDMDL
MODEL 9
REMARK VINA RESULT:      -5.9      6.328      9.411
REMARK  Name = 
REMARK  4 active torsions:
REMARK  status: ('A' for Active; 'I' for Inactive)
REMARK    1  A    between atoms: C_1  and  C_2
REMARK    2  A    between atoms: C_4  and  C_5
REMARK    3  A    between atoms: N_18  and  C_19
REMARK    4  A    between atoms: C_20  and  C_21
REMARK                            x       y       z     vdW  Elec       q    Type
REMARK                         _______ _______ _______ _____ _____    ______ ____
ROOT
ATOM      1  C   UNL     1      -1.595  10.001  17.110  0.00  0.00    +0.000 C 
ATOM      2  C   UNL     1      -2.375  10.873  18.018  0.00  0.00    +0.000 A 
ATOM      3  N   UNL     1      -3.597  11.316  17.820  0.00  0.00    +0.000 NA
ATOM      4  C   UNL     1      -3.923  12.050  18.941  0.00  0.00    +0.000 A 
ATOM      5  C   UNL     1      -2.853  12.061  19.819  0.00  0.00    +0.000 A 
ATOM      6  C   UNL     1      -2.547  12.649  21.091  0.00  0.00    +0.000 A 
ATOM      7  N   UNL     1      -3.321  13.628  21.706  0.00  0.00    +0.000 N 
ATOM      8  C   UNL     1      -4.483  13.250  22.521  0.00  0.00    +0.000 C 
ATOM      9  C   UNL     1      -5.195  14.406  23.106  0.00  0.00    +0.000 A 
ATOM     10  C   UNL     1      -4.691  15.691  23.197  0.00  0.00    +0.000 A 
ATOM     11  C   UNL     1      -5.708  16.425  23.825  0.00  0.00    +0.000 A 
ATOM     12  N   UNL     1      -6.767  15.666  24.126  0.00  0.00    +0.000 NA
ATOM     13  N   UNL     1      -6.408  14.434  23.728  0.00  0.00    +0.000 N 
ATOM     14  C   UNL     1      -7.239  13.309  24.093  0.00  0.00    +0.000 C 
ATOM     15  C   UNL     1      -3.300  16.017  22.812  0.00  0.00    +0.000 C 
ATOM     16  C   UNL     1      -3.132  17.397  22.169  0.00  0.00    +0.000 C 
ATOM     17  C   UNL     1      -2.628  14.926  21.937  0.00  0.00    +0.000 C 
ATOM     18  N   UNL     1      -1.406  12.331  21.638  0.00  0.00    +0.000 NA
ATOM     19  C   UNL     1      -0.544  11.485  20.968  0.00  0.00    +0.000 A 
ATOM     20  N   UNL     1      -0.714  10.962  19.799  0.00  0.00    +0.000 NA
ATOM     21  N   UNL     1      -1.896  11.283  19.237  0.00  0.00    +0.000 N 
ENDROOT
BRANCH   4  22
ATOM     22  C   UNL     1      -5.309  12.581  19.105  0.00  0.00    +0.000 C 
ATOM     23  C   UNL     1      -6.159  11.599  19.902  0.00  0.00    +0.000 C 
ATOM     24  C   UNL     1      -7.023  10.906  18.869  0.00  0.00    +0.000 C 
ATOM     25  O   UNL     1      -7.069  11.720  17.700  0.00  0.00    +0.000 OA
ATOM     26  C   UNL     1      -6.101  12.771  17.818  0.00  0.00    +0.000 C 
ENDBRANCH   4  22
TORSDOF 1
ENDMDL
