MODEL 1
REMARK VINA RESULT:      -9.2      0.000      0.000
REMARK  Name = 
REMARK  6 active torsions:
REMARK  status: ('A' for Active; 'I' for Inactive)
REMARK    1  A    between atoms: C_1  and  C_2
REMARK    2  A    between atoms: N_8  and  C_9
REMARK    3  A    between atoms: C_9  and  C_10
REMARK    4  A    between atoms: C_10  and  C_11
REMARK    5  A    between atoms: C_11  and  N_12
REMARK    6  A    between atoms: N_15  and  C_16
REMARK                            x       y       z     vdW  Elec       q    Type
REMARK                         _______ _______ _______ _____ _____    ______ ____
ROOT
ATOM      1  C   UNL     1      -0.453  10.865  20.357  0.00  0.00    +0.000 C 
ATOM      2  C   UNL     1       0.572  10.030  19.647  0.00  0.00    +0.000 A 
ATOM      3  C   UNL     1       1.262  10.527  18.538  0.00  0.00    +0.000 A 
ATOM      4  C   UNL     1       2.217   9.736  17.883  0.00  0.00    +0.000 A 
ATOM      5  C   UNL     1       2.518   8.445  18.299  0.00  0.00    +0.000 A 
ATOM      6  N   UNL     1       3.445   7.737  17.637  0.00  0.00    +0.000 NA
ATOM      7  C   UNL     1       3.781   6.468  18.003  0.00  0.00    +0.000 A 
ATOM      8  N   UNL     1       4.778   5.813  17.307  0.00  0.00    +0.000 N 
ATOM      9  C   UNL     1       3.112   5.880  19.112  0.00  0.00    +0.000 A 
ATOM     10  C   UNL     1       3.188   4.602  19.782  0.00  0.00    +0.000 A 
ATOM     11  C   UNL     1       3.941   3.420  19.599  0.00  0.00    +0.000 A 
ATOM     12  C   UNL     1       3.758   2.328  20.458  0.00  0.00    +0.000 A 
ATOM     13  C   UNL     1       2.844   2.395  21.501  0.00  0.00    +0.000 A 
ATOM     14  C   UNL     1       2.087   3.549  21.715  0.00  0.00    +0.000 A 
ATOM     15  C   UNL     1       2.280   4.627  20.842  0.00  0.00    +0.000 A 
ATOM     16  N   UNL     1       1.676   5.857  20.823  0.00  0.00    +0.000 N 
ATOM     17  C   UNL     1       2.154   6.635  19.795  0.00  0.00    +0.000 A 
ATOM     18  C   UNL     1       1.821   7.952  19.412  0.00  0.00    +0.000 A 
ATOM     19  C   UNL     1       0.855   8.734  20.086  0.00  0.00    +0.000 A 
ATOM     20  H   UNL     1       4.858   4.819  17.436  0.00  0.00    +0.000 HD
ATOM     21  H   UNL     1       0.975   6.151  21.486  0.00  0.00    +0.000 HD
ENDROOT
BRANCH   8  22
ATOM     22  C   UNL     1       5.405   6.401  16.143  0.00  0.00    +0.000 C 
BRANCH  22  23
ATOM     23  C   UNL     1       6.918   6.539  16.316  0.00  0.00    +0.000 C 
BRANCH  23  24
ATOM     24  C   UNL     1       7.229   7.323  17.592  0.00  0.00    +0.000 C 
BRANCH  24  25
ATOM     25  N   UNL     1       7.655   8.693  17.341  0.00  0.00    +0.000 N 
ATOM     26  C   UNL     1       8.523   9.290  18.226  0.00  0.00    +0.000 C 
ATOM     27  O   UNL     1       8.937   8.663  19.200  0.00  0.00    +0.000 OA
ATOM     28  N   UNL     1       8.796  10.611  17.932  0.00  0.00    +0.000 N 
ATOM     29  H   UNL     1       7.585   9.061  16.406  0.00  0.00    +0.000 HD
ATOM     30  H   UNL     1       8.146  11.073  17.310  0.00  0.00    +0.000 HD
BRANCH  28  31
ATOM     31  C   UNL     1       9.624  11.436  18.730  0.00  0.00    +0.000 A 
ATOM     32  C   UNL     1       9.104  12.447  19.547  0.00  0.00    +0.000 A 
ATOM     33  C   UNL     1       9.942  13.349  20.204  0.00  0.00    +0.000 A 
ATOM     34  C   UNL     1      11.320  13.222  20.086  0.00  0.00    +0.000 A 
ATOM     35  C   UNL     1      11.855  12.171  19.343  0.00  0.00    +0.000 A 
ATOM     36  C   UNL     1      11.012  11.273  18.674  0.00  0.00    +0.000 A 
ENDBRANCH  28  31
ENDBRANCH  24  25
ENDBRANCH  23  24
ENDBRANCH  22  23
ENDBRANCH   8  22
TORSDOF 5
ENDMDL
MODEL 2
REMARK VINA RESULT:      -9.1      3.139      5.613
REMARK  Name = 
REMARK  6 active torsions:
REMARK  status: ('A' for Active; 'I' for Inactive)
REMARK    1  A    between atoms: C_1  and  C_2
REMARK    2  A    between atoms: N_8  and  C_9
REMARK    3  A    between atoms: C_9  and  C_10
REMARK    4  A    between atoms: C_10  and  C_11
REMARK    5  A    between atoms: C_11  and  N_12
REMARK    6  A    between atoms: N_15  and  C_16
REMARK                            x       y       z     vdW  Elec       q    Type
REMARK                         _______ _______ _______ _____ _____    ______ ____
ROOT
ATOM      1  C   UNL     1       1.230   2.784  18.999  0.00  0.00    +0.000 C 
ATOM      2  C   UNL     1       2.450   3.629  18.777  0.00  0.00    +0.000 A 
ATOM      3  C   UNL     1       2.935   4.470  19.780  0.00  0.00    +0.000 A 
ATOM      4  C   UNL     1       4.077   5.255  19.560  0.00  0.00    +0.000 A 
ATOM      5  C   UNL     1       4.768   5.231  18.354  0.00  0.00    +0.000 A 
ATOM      6  N   UNL     1       5.856   6.000  18.203  0.00  0.00    +0.000 NA
ATOM      7  C   UNL     1       6.573   6.013  17.043  0.00  0.00    +0.000 A 
ATOM      8  N   UNL     1       7.712   6.791  16.970  0.00  0.00    +0.000 N 
ATOM      9  C   UNL     1       6.136   5.197  15.963  0.00  0.00    +0.000 A 
ATOM     10  C   UNL     1       6.613   4.948  14.622  0.00  0.00    +0.000 A 
ATOM     11  C   UNL     1       7.690   5.421  13.839  0.00  0.00    +0.000 A 
ATOM     12  C   UNL     1       7.867   4.957  12.529  0.00  0.00    +0.000 A 
ATOM     13  C   UNL     1       6.994   4.023  11.987  0.00  0.00    +0.000 A 
ATOM     14  C   UNL     1       5.922   3.529  12.734  0.00  0.00    +0.000 A 
ATOM     15  C   UNL     1       5.759   4.010  14.039  0.00  0.00    +0.000 A 
ATOM     16  N   UNL     1       4.805   3.701  14.973  0.00  0.00    +0.000 N 
ATOM     17  C   UNL     1       5.003   4.398  16.142  0.00  0.00    +0.000 A 
ATOM     18  C   UNL     1       4.275   4.385  17.351  0.00  0.00    +0.000 A 
ATOM     19  C   UNL     1       3.126   3.586  17.554  0.00  0.00    +0.000 A 
ATOM     20  H   UNL     1       8.096   6.968  16.058  0.00  0.00    +0.000 HD
ATOM     21  H   UNL     1       4.059   3.040  14.820  0.00  0.00    +0.000 HD
ENDROOT
BRANCH   8  22
ATOM     22  C   UNL     1       8.108   7.664  18.055  0.00  0.00    +0.000 C 
BRANCH  22  23
ATOM     23  C   UNL     1       7.813   9.132  17.746  0.00  0.00    +0.000 C 
BRANCH  23  24
ATOM     24  C   UNL     1       8.764  10.034  18.533  0.00  0.00    +0.000 C 
BRANCH  24  25
ATOM     25  N   UNL     1       9.296  11.140  17.748  0.00  0.00    +0.000 N 
ATOM     26  C   UNL     1       9.499  12.353  18.366  0.00  0.00    +0.000 C 
ATOM     27  O   UNL     1       9.248  12.484  19.563  0.00  0.00    +0.000 OA
ATOM     28  N   UNL     1       9.930  13.347  17.511  0.00  0.00    +0.000 N 
ATOM     29  H   UNL     1       9.796  10.938  16.898  0.00  0.00    +0.000 HD
ATOM     30  H   UNL     1       9.779  13.183  16.525  0.00  0.00    +0.000 HD
BRANCH  28  31
ATOM     31  C   UNL     1      10.159  14.684  17.917  0.00  0.00    +0.000 A 
ATOM     32  C   UNL     1      11.448  15.189  18.127  0.00  0.00    +0.000 A 
ATOM     33  C   UNL     1      11.647  16.456  18.676  0.00  0.00    +0.000 A 
ATOM     34  C   UNL     1      10.553  17.256  18.982  0.00  0.00    +0.000 A 
ATOM     35  C   UNL     1       9.266  16.801  18.701  0.00  0.00    +0.000 A 
ATOM     36  C   UNL     1       9.067  15.523  18.161  0.00  0.00    +0.000 A 
ENDBRANCH  28  31
ENDBRANCH  24  25
ENDBRANCH  23  24
ENDBRANCH  22  23
ENDBRANCH   8  22
TORSDOF 5
ENDMDL
MODEL 3
REMARK VINA RESULT:      -9.0      3.023      5.482
REMARK  Name = 
REMARK  6 active torsions:
REMARK  status: ('A' for Active; 'I' for Inactive)
REMARK    1  A    between atoms: C_1  and  C_2
REMARK    2  A    between atoms: N_8  and  C_9
REMARK    3  A    between atoms: C_9  and  C_10
REMARK    4  A    between atoms: C_10  and  C_11
REMARK    5  A    between atoms: C_11  and  N_12
REMARK    6  A    between atoms: N_15  and  C_16
REMARK                            x       y       z     vdW  Elec       q    Type
REMARK                         _______ _______ _______ _____ _____    ______ ____
ROOT
ATOM      1  C   UNL     1       5.954   2.958  11.434  0.00  0.00    +0.000 C 
ATOM      2  C   UNL     1       6.303   3.737  12.669  0.00  0.00    +0.000 A 
ATOM      3  C   UNL     1       7.479   4.486  12.740  0.00  0.00    +0.000 A 
ATOM      4  C   UNL     1       7.793   5.209  13.900  0.00  0.00    +0.000 A 
ATOM      5  C   UNL     1       6.963   5.215  15.014  0.00  0.00    +0.000 A 
ATOM      6  N   UNL     1       7.313   5.929  16.094  0.00  0.00    +0.000 NA
ATOM      7  C   UNL     1       6.534   5.972  17.212  0.00  0.00    +0.000 A 
ATOM      8  N   UNL     1       6.929   6.767  18.271  0.00  0.00    +0.000 N 
ATOM      9  C   UNL     1       5.325   5.223  17.230  0.00  0.00    +0.000 A 
ATOM     10  C   UNL     1       4.270   5.022  18.196  0.00  0.00    +0.000 A 
ATOM     11  C   UNL     1       4.019   5.473  19.512  0.00  0.00    +0.000 A 
ATOM     12  C   UNL     1       2.859   5.070  20.186  0.00  0.00    +0.000 A 
ATOM     13  C   UNL     1       1.939   4.232  19.570  0.00  0.00    +0.000 A 
ATOM     14  C   UNL     1       2.151   3.772  18.269  0.00  0.00    +0.000 A 
ATOM     15  C   UNL     1       3.320   4.180  17.614  0.00  0.00    +0.000 A 
ATOM     16  N   UNL     1       3.770   3.879  16.355  0.00  0.00    +0.000 N 
ATOM     17  C   UNL     1       4.974   4.490  16.093  0.00  0.00    +0.000 A 
ATOM     18  C   UNL     1       5.784   4.460  14.937  0.00  0.00    +0.000 A 
ATOM     19  C   UNL     1       5.449   3.725  13.776  0.00  0.00    +0.000 A 
ATOM     20  H   UNL     1       6.478   6.618  19.157  0.00  0.00    +0.000 HD
ATOM     21  H   UNL     1       3.274   3.288  15.705  0.00  0.00    +0.000 HD
ENDROOT
BRANCH   8  22
ATOM     22  C   UNL     1       8.192   7.474  18.261  0.00  0.00    +0.000 C 
BRANCH  22  23
ATOM     23  C   UNL     1       8.039   8.911  17.764  0.00  0.00    +0.000 C 
BRANCH  23  24
ATOM     24  C   UNL     1       8.813   9.866  18.674  0.00  0.00    +0.000 C 
BRANCH  24  25
ATOM     25  N   UNL     1       9.451  10.961  17.956  0.00  0.00    +0.000 N 
ATOM     26  C   UNL     1       9.884  12.057  18.667  0.00  0.00    +0.000 C 
ATOM     27  O   UNL     1       9.744  12.092  19.889  0.00  0.00    +0.000 OA
ATOM     28  N   UNL     1      10.400  13.064  17.878  0.00  0.00    +0.000 N 
ATOM     29  H   UNL     1       9.850  10.782  17.049  0.00  0.00    +0.000 HD
ATOM     30  H   UNL     1      10.154  13.033  16.898  0.00  0.00    +0.000 HD
BRANCH  28  31
ATOM     31  C   UNL     1      10.862  14.301  18.389  0.00  0.00    +0.000 A 
ATOM     32  C   UNL     1      11.987  14.392  19.218  0.00  0.00    +0.000 A 
ATOM     33  C   UNL     1      12.333  15.592  19.837  0.00  0.00    +0.000 A 
ATOM     34  C   UNL     1      11.580  16.736  19.599  0.00  0.00    +0.000 A 
ATOM     35  C   UNL     1      10.507  16.681  18.711  0.00  0.00    +0.000 A 
ATOM     36  C   UNL     1      10.152  15.471  18.099  0.00  0.00    +0.000 A 
ENDBRANCH  28  31
ENDBRANCH  24  25
ENDBRANCH  23  24
ENDBRANCH  22  23
ENDBRANCH   8  22
TORSDOF 5
ENDMDL
MODEL 4
REMARK VINA RESULT:      -9.0      3.061      5.413
REMARK  Name = 
REMARK  6 active torsions:
REMARK  status: ('A' for Active; 'I' for Inactive)
REMARK    1  A    between atoms: C_1  and  C_2
REMARK    2  A    between atoms: N_8  and  C_9
REMARK    3  A    between atoms: C_9  and  C_10
REMARK    4  A    between atoms: C_10  and  C_11
REMARK    5  A    between atoms: C_11  and  N_12
REMARK    6  A    between atoms: N_15  and  C_16
REMARK                            x       y       z     vdW  Elec       q    Type
REMARK                         _______ _______ _______ _____ _____    ______ ____
ROOT
ATOM      1  C   UNL     1       5.653   2.834  11.542  0.00  0.00    +0.000 C 
ATOM      2  C   UNL     1       6.033   3.631  12.756  0.00  0.00    +0.000 A 
ATOM      3  C   UNL     1       7.206   4.389  12.781  0.00  0.00    +0.000 A 
ATOM      4  C   UNL     1       7.549   5.129  13.922  0.00  0.00    +0.000 A 
ATOM      5  C   UNL     1       6.753   5.144  15.060  0.00  0.00    +0.000 A 
ATOM      6  N   UNL     1       7.130   5.874  16.120  0.00  0.00    +0.000 NA
ATOM      7  C   UNL     1       6.385   5.927  17.261  0.00  0.00    +0.000 A 
ATOM      8  N   UNL     1       6.806   6.737  18.297  0.00  0.00    +0.000 N 
ATOM      9  C   UNL     1       5.183   5.169  17.324  0.00  0.00    +0.000 A 
ATOM     10  C   UNL     1       4.159   4.973  18.325  0.00  0.00    +0.000 A 
ATOM     11  C   UNL     1       3.944   5.439  19.642  0.00  0.00    +0.000 A 
ATOM     12  C   UNL     1       2.808   5.037  20.356  0.00  0.00    +0.000 A 
ATOM     13  C   UNL     1       1.876   4.184  19.778  0.00  0.00    +0.000 A 
ATOM     14  C   UNL     1       2.053   3.709  18.477  0.00  0.00    +0.000 A 
ATOM     15  C   UNL     1       3.198   4.117  17.783  0.00  0.00    +0.000 A 
ATOM     16  N   UNL     1       3.612   3.803  16.514  0.00  0.00    +0.000 N 
ATOM     17  C   UNL     1       4.803   4.419  16.208  0.00  0.00    +0.000 A 
ATOM     18  C   UNL     1       5.578   4.380  15.029  0.00  0.00    +0.000 A 
ATOM     19  C   UNL     1       5.213   3.628  13.888  0.00  0.00    +0.000 A 
ATOM     20  H   UNL     1       6.383   6.596  19.198  0.00  0.00    +0.000 HD
ATOM     21  H   UNL     1       3.101   3.200  15.888  0.00  0.00    +0.000 HD
ENDROOT
BRANCH   8  22
ATOM     22  C   UNL     1       8.063   7.453  18.240  0.00  0.00    +0.000 C 
BRANCH  22  23
ATOM     23  C   UNL     1       7.876   8.901  17.787  0.00  0.00    +0.000 C 
BRANCH  23  24
ATOM     24  C   UNL     1       9.128   9.717  18.112  0.00  0.00    +0.000 C 
BRANCH  24  25
ATOM     25  N   UNL     1       9.289   9.989  19.534  0.00  0.00    +0.000 N 
ATOM     26  C   UNL     1       9.182  11.288  19.976  0.00  0.00    +0.000 C 
ATOM     27  O   UNL     1       8.939  12.192  19.178  0.00  0.00    +0.000 OA
ATOM     28  N   UNL     1       9.430  11.438  21.326  0.00  0.00    +0.000 N 
ATOM     29  H   UNL     1       9.153   9.239  20.192  0.00  0.00    +0.000 HD
ATOM     30  H   UNL     1       9.926  10.680  21.775  0.00  0.00    +0.000 HD
BRANCH  28  31
ATOM     31  C   UNL     1       9.422  12.689  21.989  0.00  0.00    +0.000 A 
ATOM     32  C   UNL     1       8.647  12.922  23.132  0.00  0.00    +0.000 A 
ATOM     33  C   UNL     1       8.530  14.200  23.678  0.00  0.00    +0.000 A 
ATOM     34  C   UNL     1       9.227  15.260  23.111  0.00  0.00    +0.000 A 
ATOM     35  C   UNL     1      10.068  15.028  22.023  0.00  0.00    +0.000 A 
ATOM     36  C   UNL     1      10.175  13.746  21.468  0.00  0.00    +0.000 A 
ENDBRANCH  28  31
ENDBRANCH  24  25
ENDBRANCH  23  24
ENDBRANCH  22  23
ENDBRANCH   8  22
TORSDOF 5
ENDMDL
MODEL 5
REMARK VINA RESULT:      -9.0      3.231      5.716
REMARK  Name = 
REMARK  6 active torsions:
REMARK  status: ('A' for Active; 'I' for Inactive)
REMARK    1  A    between atoms: C_1  and  C_2
REMARK    2  A    between atoms: N_8  and  C_9
REMARK    3  A    between atoms: C_9  and  C_10
REMARK    4  A    between atoms: C_10  and  C_11
REMARK    5  A    between atoms: C_11  and  N_12
REMARK    6  A    between atoms: N_15  and  C_16
REMARK                            x       y       z     vdW  Elec       q    Type
REMARK                         _______ _______ _______ _____ _____    ______ ____
ROOT
ATOM      1  C   UNL     1       1.469   2.303  18.880  0.00  0.00    +0.000 C 
ATOM      2  C   UNL     1       2.623   3.243  18.688  0.00  0.00    +0.000 A 
ATOM      3  C   UNL     1       3.040   4.091  19.716  0.00  0.00    +0.000 A 
ATOM      4  C   UNL     1       4.121   4.965  19.523  0.00  0.00    +0.000 A 
ATOM      5  C   UNL     1       4.815   5.026  18.321  0.00  0.00    +0.000 A 
ATOM      6  N   UNL     1       5.843   5.878  18.196  0.00  0.00    +0.000 NA
ATOM      7  C   UNL     1       6.561   5.977  17.041  0.00  0.00    +0.000 A 
ATOM      8  N   UNL     1       7.638   6.840  16.996  0.00  0.00    +0.000 N 
ATOM      9  C   UNL     1       6.190   5.160  15.938  0.00  0.00    +0.000 A 
ATOM     10  C   UNL     1       6.690   4.983  14.594  0.00  0.00    +0.000 A 
ATOM     11  C   UNL     1       7.731   5.557  13.829  0.00  0.00    +0.000 A 
ATOM     12  C   UNL     1       7.947   5.143  12.509  0.00  0.00    +0.000 A 
ATOM     13  C   UNL     1       7.148   4.161  11.936  0.00  0.00    +0.000 A 
ATOM     14  C   UNL     1       6.115   3.568  12.664  0.00  0.00    +0.000 A 
ATOM     15  C   UNL     1       5.911   4.000  13.980  0.00  0.00    +0.000 A 
ATOM     16  N   UNL     1       4.980   3.595  14.901  0.00  0.00    +0.000 N 
ATOM     17  C   UNL     1       5.121   4.273  16.089  0.00  0.00    +0.000 A 
ATOM     18  C   UNL     1       4.391   4.173  17.293  0.00  0.00    +0.000 A 
ATOM     19  C   UNL     1       3.305   3.284  17.468  0.00  0.00    +0.000 A 
ATOM     20  H   UNL     1       8.012   7.069  16.091  0.00  0.00    +0.000 HD
ATOM     21  H   UNL     1       4.286   2.884  14.725  0.00  0.00    +0.000 HD
ENDROOT
BRANCH   8  22
ATOM     22  C   UNL     1       7.964   7.710  18.106  0.00  0.00    +0.000 C 
BRANCH  22  23
ATOM     23  C   UNL     1       7.895   9.186  17.715  0.00  0.00    +0.000 C 
BRANCH  23  24
ATOM     24  C   UNL     1       9.198   9.890  18.097  0.00  0.00    +0.000 C 
BRANCH  24  25
ATOM     25  N   UNL     1       9.341  10.107  19.531  0.00  0.00    +0.000 N 
ATOM     26  C   UNL     1       9.196  11.383  20.026  0.00  0.00    +0.000 C 
ATOM     27  O   UNL     1       8.935  12.313  19.263  0.00  0.00    +0.000 OA
ATOM     28  N   UNL     1       9.428  11.483  21.383  0.00  0.00    +0.000 N 
ATOM     29  H   UNL     1       9.219   9.326  20.156  0.00  0.00    +0.000 HD
ATOM     30  H   UNL     1       9.941  10.720  21.804  0.00  0.00    +0.000 HD
BRANCH  28  31
ATOM     31  C   UNL     1       9.382  12.704  22.097  0.00  0.00    +0.000 A 
ATOM     32  C   UNL     1       8.618  12.860  23.260  0.00  0.00    +0.000 A 
ATOM     33  C   UNL     1       8.460  14.108  23.860  0.00  0.00    +0.000 A 
ATOM     34  C   UNL     1       9.105  15.218  23.326  0.00  0.00    +0.000 A 
ATOM     35  C   UNL     1       9.935  15.065  22.217  0.00  0.00    +0.000 A 
ATOM     36  C   UNL     1      10.083  13.811  21.608  0.00  0.00    +0.000 A 
ENDBRANCH  28  31
ENDBRANCH  24  25
ENDBRANCH  23  24
ENDBRANCH  22  23
ENDBRANCH   8  22
TORSDOF 5
ENDMDL
MODEL 6
REMARK VINA RESULT:      -8.9      0.944      4.431
REMARK  Name = 
REMARK  6 active torsions:
REMARK  status: ('A' for Active; 'I' for Inactive)
REMARK    1  A    between atoms: C_1  and  C_2
REMARK    2  A    between atoms: N_8  and  C_9
REMARK    3  A    between atoms: C_9  and  C_10
REMARK    4  A    between atoms: C_10  and  C_11
REMARK    5  A    between atoms: C_11  and  N_12
REMARK    6  A    between atoms: N_15  and  C_16
REMARK                            x       y       z     vdW  Elec       q    Type
REMARK                         _______ _______ _______ _____ _____    ______ ____
ROOT
ATOM      1  C   UNL     1       1.450   2.149  22.494  0.00  0.00    +0.000 C 
ATOM      2  C   UNL     1       2.118   2.832  21.337  0.00  0.00    +0.000 A 
ATOM      3  C   UNL     1       3.018   2.147  20.518  0.00  0.00    +0.000 A 
ATOM      4  C   UNL     1       3.636   2.798  19.439  0.00  0.00    +0.000 A 
ATOM      5  C   UNL     1       3.385   4.131  19.140  0.00  0.00    +0.000 A 
ATOM      6  N   UNL     1       4.001   4.699  18.093  0.00  0.00    +0.000 NA
ATOM      7  C   UNL     1       3.789   6.002  17.752  0.00  0.00    +0.000 A 
ATOM      8  N   UNL     1       4.419   6.511  16.633  0.00  0.00    +0.000 N 
ATOM      9  C   UNL     1       2.899   6.777  18.546  0.00  0.00    +0.000 A 
ATOM     10  C   UNL     1       2.432   8.144  18.505  0.00  0.00    +0.000 A 
ATOM     11  C   UNL     1       2.680   9.262  17.677  0.00  0.00    +0.000 A 
ATOM     12  C   UNL     1       2.039  10.482  17.929  0.00  0.00    +0.000 A 
ATOM     13  C   UNL     1       1.149  10.607  18.988  0.00  0.00    +0.000 A 
ATOM     14  C   UNL     1       0.876   9.522  19.823  0.00  0.00    +0.000 A 
ATOM     15  C   UNL     1       1.531   8.313  19.558  0.00  0.00    +0.000 A 
ATOM     16  N   UNL     1       1.450   7.111  20.212  0.00  0.00    +0.000 N 
ATOM     17  C   UNL     1       2.261   6.166  19.629  0.00  0.00    +0.000 A 
ATOM     18  C   UNL     1       2.481   4.813  19.966  0.00  0.00    +0.000 A 
ATOM     19  C   UNL     1       1.847   4.175  21.057  0.00  0.00    +0.000 A 
ATOM     20  H   UNL     1       4.436   7.511  16.524  0.00  0.00    +0.000 HD
ATOM     21  H   UNL     1       0.863   6.945  21.016  0.00  0.00    +0.000 HD
ENDROOT
BRANCH   8  22
ATOM     22  C   UNL     1       5.370   5.728  15.873  0.00  0.00    +0.000 C 
BRANCH  22  23
ATOM     23  C   UNL     1       6.813   6.037  16.270  0.00  0.00    +0.000 C 
BRANCH  23  24
ATOM     24  C   UNL     1       6.835   6.905  17.530  0.00  0.00    +0.000 C 
BRANCH  24  25
ATOM     25  N   UNL     1       7.289   8.267  17.288  0.00  0.00    +0.000 N 
ATOM     26  C   UNL     1       8.290   8.783  18.079  0.00  0.00    +0.000 C 
ATOM     27  O   UNL     1       8.795   8.090  18.962  0.00  0.00    +0.000 OA
ATOM     28  N   UNL     1       8.586  10.104  17.812  0.00  0.00    +0.000 N 
ATOM     29  H   UNL     1       7.118   8.685  16.387  0.00  0.00    +0.000 HD
ATOM     30  H   UNL     1       7.884  10.623  17.302  0.00  0.00    +0.000 HD
BRANCH  28  31
ATOM     31  C   UNL     1       9.547  10.853  18.533  0.00  0.00    +0.000 A 
ATOM     32  C   UNL     1      10.695  11.375  17.924  0.00  0.00    +0.000 A 
ATOM     33  C   UNL     1      11.705  11.972  18.678  0.00  0.00    +0.000 A 
ATOM     34  C   UNL     1      11.559  12.095  20.054  0.00  0.00    +0.000 A 
ATOM     35  C   UNL     1      10.385  11.656  20.665  0.00  0.00    +0.000 A 
ATOM     36  C   UNL     1       9.376  11.045  19.908  0.00  0.00    +0.000 A 
ENDBRANCH  28  31
ENDBRANCH  24  25
ENDBRANCH  23  24
ENDBRANCH  22  23
ENDBRANCH   8  22
TORSDOF 5
ENDMDL
MODEL 7
REMARK VINA RESULT:      -8.8      3.148      5.618
REMARK  Name = 
REMARK  6 active torsions:
REMARK  status: ('A' for Active; 'I' for Inactive)
REMARK    1  A    between atoms: C_1  and  C_2
REMARK    2  A    between atoms: N_8  and  C_9
REMARK    3  A    between atoms: C_9  and  C_10
REMARK    4  A    between atoms: C_10  and  C_11
REMARK    5  A    between atoms: C_11  and  N_12
REMARK    6  A    between atoms: N_15  and  C_16
REMARK                            x       y       z     vdW  Elec       q    Type
REMARK                         _______ _______ _______ _____ _____    ______ ____
ROOT
ATOM      1  C   UNL     1       1.359   2.437  18.953  0.00  0.00    +0.000 C 
ATOM      2  C   UNL     1       2.535   3.347  18.750  0.00  0.00    +0.000 A 
ATOM      3  C   UNL     1       2.981   4.186  19.774  0.00  0.00    +0.000 A 
ATOM      4  C   UNL     1       4.082   5.031  19.571  0.00  0.00    +0.000 A 
ATOM      5  C   UNL     1       4.770   5.071  18.365  0.00  0.00    +0.000 A 
ATOM      6  N   UNL     1       5.819   5.896  18.231  0.00  0.00    +0.000 NA
ATOM      7  C   UNL     1       6.531   5.974  17.071  0.00  0.00    +0.000 A 
ATOM      8  N   UNL     1       7.631   6.809  17.017  0.00  0.00    +0.000 N 
ATOM      9  C   UNL     1       6.132   5.164  15.972  0.00  0.00    +0.000 A 
ATOM     10  C   UNL     1       6.618   4.972  14.625  0.00  0.00    +0.000 A 
ATOM     11  C   UNL     1       7.669   5.517  13.852  0.00  0.00    +0.000 A 
ATOM     12  C   UNL     1       7.865   5.095  12.531  0.00  0.00    +0.000 A 
ATOM     13  C   UNL     1       7.037   4.133  11.966  0.00  0.00    +0.000 A 
ATOM     14  C   UNL     1       5.993   3.568  12.702  0.00  0.00    +0.000 A 
ATOM     15  C   UNL     1       5.810   4.008  14.019  0.00  0.00    +0.000 A 
ATOM     16  N   UNL     1       4.875   3.629  14.947  0.00  0.00    +0.000 N 
ATOM     17  C   UNL     1       5.041   4.306  16.132  0.00  0.00    +0.000 A 
ATOM     18  C   UNL     1       4.317   4.227  17.341  0.00  0.00    +0.000 A 
ATOM     19  C   UNL     1       3.209   3.367  17.526  0.00  0.00    +0.000 A 
ATOM     20  H   UNL     1       8.004   7.026  16.108  0.00  0.00    +0.000 HD
ATOM     21  H   UNL     1       4.161   2.936  14.777  0.00  0.00    +0.000 HD
ENDROOT
BRANCH   8  22
ATOM     22  C   UNL     1       7.986   7.672  18.123  0.00  0.00    +0.000 C 
BRANCH  22  23
ATOM     23  C   UNL     1       8.278   9.100  17.662  0.00  0.00    +0.000 C 
BRANCH  23  24
ATOM     24  C   UNL     1       8.944   9.888  18.791  0.00  0.00    +0.000 C 
BRANCH  24  25
ATOM     25  N   UNL     1       9.328  11.240  18.406  0.00  0.00    +0.000 N 
ATOM     26  C   UNL     1       9.439  12.201  19.384  0.00  0.00    +0.000 C 
ATOM     27  O   UNL     1       9.231  11.909  20.561  0.00  0.00    +0.000 OA
ATOM     28  N   UNL     1       9.731  13.459  18.897  0.00  0.00    +0.000 N 
ATOM     29  H   UNL     1       9.806  11.379  17.531  0.00  0.00    +0.000 HD
ATOM     30  H   UNL     1       9.553  13.608  17.913  0.00  0.00    +0.000 HD
BRANCH  28  31
ATOM     31  C   UNL     1       9.846  14.609  19.715  0.00  0.00    +0.000 A 
ATOM     32  C   UNL     1       8.761  15.457  19.965  0.00  0.00    +0.000 A 
ATOM     33  C   UNL     1       8.928  16.665  20.642  0.00  0.00    +0.000 A 
ATOM     34  C   UNL     1      10.183  17.021  21.120  0.00  0.00    +0.000 A 
ATOM     35  C   UNL     1      11.257  16.148  20.952  0.00  0.00    +0.000 A 
ATOM     36  C   UNL     1      11.090  14.940  20.261  0.00  0.00    +0.000 A 
ENDBRANCH  28  31
ENDBRANCH  24  25
ENDBRANCH  23  24
ENDBRANCH  22  23
ENDBRANCH   8  22
TORSDOF 5
ENDMDL
MODEL 8
REMARK VINA RESULT:      -8.6      2.988      5.314
REMARK  Name = 
REMARK  6 active torsions:
REMARK  status: ('A' for Active; 'I' for Inactive)
REMARK    1  A    between atoms: C_1  and  C_2
REMARK    2  A    between atoms: N_8  and  C_9
REMARK    3  A    between atoms: C_9  and  C_10
REMARK    4  A    between atoms: C_10  and  C_11
REMARK    5  A    between atoms: C_11  and  N_12
REMARK    6  A    between atoms: N_15  and  C_16
REMARK                            x       y       z     vdW  Elec       q    Type
REMARK                         _______ _______ _______ _____ _____    ______ ____
ROOT
ATOM      1  C   UNL     1       5.589   2.915  11.520  0.00  0.00    +0.000 C 
ATOM      2  C   UNL     1       5.974   3.677  12.754  0.00  0.00    +0.000 A 
ATOM      3  C   UNL     1       7.169   4.397  12.812  0.00  0.00    +0.000 A 
ATOM      4  C   UNL     1       7.517   5.105  13.973  0.00  0.00    +0.000 A 
ATOM      5  C   UNL     1       6.702   5.124  15.098  0.00  0.00    +0.000 A 
ATOM      6  N   UNL     1       7.084   5.823  16.177  0.00  0.00    +0.000 NA
ATOM      7  C   UNL     1       6.322   5.878  17.306  0.00  0.00    +0.000 A 
ATOM      8  N   UNL     1       6.752   6.656  18.364  0.00  0.00    +0.000 N 
ATOM      9  C   UNL     1       5.096   5.158  17.336  0.00  0.00    +0.000 A 
ATOM     10  C   UNL     1       4.050   4.977  18.316  0.00  0.00    +0.000 A 
ATOM     11  C   UNL     1       3.828   5.425  19.639  0.00  0.00    +0.000 A 
ATOM     12  C   UNL     1       2.669   5.046  20.326  0.00  0.00    +0.000 A 
ATOM     13  C   UNL     1       1.720   4.234  19.718  0.00  0.00    +0.000 A 
ATOM     14  C   UNL     1       1.903   3.778  18.411  0.00  0.00    +0.000 A 
ATOM     15  C   UNL     1       3.072   4.162  17.743  0.00  0.00    +0.000 A 
ATOM     16  N   UNL     1       3.497   3.858  16.476  0.00  0.00    +0.000 N 
ATOM     17  C   UNL     1       4.711   4.441  16.200  0.00  0.00    +0.000 A 
ATOM     18  C   UNL     1       5.504   4.398  15.033  0.00  0.00    +0.000 A 
ATOM     19  C   UNL     1       5.136   3.679  13.873  0.00  0.00    +0.000 A 
ATOM     20  H   UNL     1       6.309   6.512  19.256  0.00  0.00    +0.000 HD
ATOM     21  H   UNL     1       2.977   3.283  15.830  0.00  0.00    +0.000 HD
ENDROOT
BRANCH   8  22
ATOM     22  C   UNL     1       8.031   7.332  18.341  0.00  0.00    +0.000 C 
BRANCH  22  23
ATOM     23  C   UNL     1       7.926   8.733  17.738  0.00  0.00    +0.000 C 
BRANCH  23  24
ATOM     24  C   UNL     1       9.052   9.620  18.273  0.00  0.00    +0.000 C 
BRANCH  24  25
ATOM     25  N   UNL     1       8.646  11.001  18.495  0.00  0.00    +0.000 N 
ATOM     26  C   UNL     1       9.592  11.912  18.905  0.00  0.00    +0.000 C 
ATOM     27  O   UNL     1      10.760  11.558  19.062  0.00  0.00    +0.000 OA
ATOM     28  N   UNL     1       9.080  13.169  19.159  0.00  0.00    +0.000 N 
ATOM     29  H   UNL     1       7.805  11.338  18.055  0.00  0.00    +0.000 HD
ATOM     30  H   UNL     1       8.081  13.223  19.301  0.00  0.00    +0.000 HD
BRANCH  28  31
ATOM     31  C   UNL     1       9.861  14.250  19.635  0.00  0.00    +0.000 A 
ATOM     32  C   UNL     1      10.583  15.085  18.774  0.00  0.00    +0.000 A 
ATOM     33  C   UNL     1      11.467  16.043  19.269  0.00  0.00    +0.000 A 
ATOM     34  C   UNL     1      11.608  16.210  20.641  0.00  0.00    +0.000 A 
ATOM     35  C   UNL     1      10.834  15.444  21.511  0.00  0.00    +0.000 A 
ATOM     36  C   UNL     1       9.955  14.473  21.013  0.00  0.00    +0.000 A 
ENDBRANCH  28  31
ENDBRANCH  24  25
ENDBRANCH  23  24
ENDBRANCH  22  23
ENDBRANCH   8  22
TORSDOF 5
ENDMDL
MODEL 9
REMARK VINA RESULT:      -8.4      5.131      9.166
REMARK  Name = 
REMARK  6 active torsions:
REMARK  status: ('A' for Active; 'I' for Inactive)
REMARK    1  A    between atoms: C_1  and  C_2
REMARK    2  A    between atoms: N_8  and  C_9
REMARK    3  A    between atoms: C_9  and  C_10
REMARK    4  A    between atoms: C_10  and  C_11
REMARK    5  A    between atoms: C_11  and  N_12
REMARK    6  A    between atoms: N_15  and  C_16
REMARK                            x       y       z     vdW  Elec       q    Type
REMARK                         _______ _______ _______ _____ _____    ______ ____
ROOT
ATOM      1  C   UNL     1      -7.204  15.637  21.791  0.00  0.00    +0.000 C 
ATOM      2  C   UNL     1      -5.946  14.819  21.762  0.00  0.00    +0.000 A 
ATOM      3  C   UNL     1      -5.084  14.785  22.860  0.00  0.00    +0.000 A 
ATOM      4  C   UNL     1      -3.911  14.016  22.820  0.00  0.00    +0.000 A 
ATOM      5  C   UNL     1      -3.558  13.265  21.705  0.00  0.00    +0.000 A 
ATOM      6  N   UNL     1      -2.427  12.545  21.726  0.00  0.00    +0.000 NA
ATOM      7  C   UNL     1      -2.034  11.789  20.662  0.00  0.00    +0.000 A 
ATOM      8  N   UNL     1      -0.882  11.034  20.768  0.00  0.00    +0.000 N 
ATOM      9  C   UNL     1      -2.847  11.782  19.495  0.00  0.00    +0.000 A 
ATOM     10  C   UNL     1      -2.769  11.129  18.209  0.00  0.00    +0.000 A 
ATOM     11  C   UNL     1      -1.853  10.250  17.586  0.00  0.00    +0.000 A 
ATOM     12  C   UNL     1      -2.090   9.794  16.282  0.00  0.00    +0.000 A 
ATOM     13  C   UNL     1      -3.226  10.191  15.590  0.00  0.00    +0.000 A 
ATOM     14  C   UNL     1      -4.155  11.053  16.176  0.00  0.00    +0.000 A 
ATOM     15  C   UNL     1      -3.898  11.503  17.477  0.00  0.00    +0.000 A 
ATOM     16  N   UNL     1      -4.631  12.344  18.274  0.00  0.00    +0.000 N 
ATOM     17  C   UNL     1      -4.026  12.533  19.494  0.00  0.00    +0.000 A 
ATOM     18  C   UNL     1      -4.427  13.305  20.606  0.00  0.00    +0.000 A 
ATOM     19  C   UNL     1      -5.614  14.073  20.627  0.00  0.00    +0.000 A 
ATOM     20  H   UNL     1      -0.488  10.667  19.918  0.00  0.00    +0.000 HD
ATOM     21  H   UNL     1      -5.505  12.763  17.996  0.00  0.00    +0.000 HD
ENDROOT
BRANCH   8  22
ATOM     22  C   UNL     1      -0.034  11.100  21.939  0.00  0.00    +0.000 C 
BRANCH  22  23
ATOM     23  C   UNL     1       0.688   9.777  22.197  0.00  0.00    +0.000 C 
BRANCH  23  24
ATOM     24  C   UNL     1       0.979   9.072  20.872  0.00  0.00    +0.000 C 
BRANCH  24  25
ATOM     25  N   UNL     1       1.585   7.757  21.036  0.00  0.00    +0.000 N 
ATOM     26  C   UNL     1       2.222   7.182  19.961  0.00  0.00    +0.000 C 
ATOM     27  O   UNL     1       2.287   7.784  18.890  0.00  0.00    +0.000 OA
ATOM     28  N   UNL     1       2.689   5.906  20.208  0.00  0.00    +0.000 N 
ATOM     29  H   UNL     1       1.813   7.439  21.964  0.00  0.00    +0.000 HD
ATOM     30  H   UNL     1       2.285   5.430  21.003  0.00  0.00    +0.000 HD
BRANCH  28  31
ATOM     31  C   UNL     1       3.335   5.107  19.235  0.00  0.00    +0.000 A 
ATOM     32  C   UNL     1       4.730   5.033  19.136  0.00  0.00    +0.000 A 
ATOM     33  C   UNL     1       5.345   4.368  18.076  0.00  0.00    +0.000 A 
ATOM     34  C   UNL     1       4.569   3.725  17.120  0.00  0.00    +0.000 A 
ATOM     35  C   UNL     1       3.181   3.719  17.250  0.00  0.00    +0.000 A 
ATOM     36  C   UNL     1       2.563   4.398  18.308  0.00  0.00    +0.000 A 
ENDBRANCH  28  31
ENDBRANCH  24  25
ENDBRANCH  23  24
ENDBRANCH  22  23
ENDBRANCH   8  22
TORSDOF 5
ENDMDL
