MODEL 1
REMARK VINA RESULT:      -7.0      0.000      0.000
REMARK  Name = 
REMARK  8 active torsions:
REMARK  status: ('A' for Active; 'I' for Inactive)
REMARK    1  A    between atoms: C_1  and  C_2
REMARK    2  A    between atoms: C_2  and  C_3
REMARK    3  A    between atoms: C_2  and  O_4
REMARK    4  A    between atoms: O_4  and  C_5
REMARK    5  A    between atoms: C_7  and  C_8
REMARK    6  A    between atoms: N_10  and  C_11
REMARK    7  A    between atoms: C_11  and  C_12
REMARK    8  A    between atoms: C_12  and  N_13
REMARK                            x       y       z     vdW  Elec       q    Type
REMARK                         _______ _______ _______ _____ _____    ______ ____
ROOT
ATOM      1  C   UNL     1       5.279   6.277  16.028  0.00  0.00    +0.000 A 
ATOM      2  C   UNL     1       5.821   5.478  17.012  0.00  0.00    +0.000 A 
ATOM      3  C   UNL     1       5.239   5.513  18.286  0.00  0.00    +0.000 A 
ATOM      4  C   UNL     1       4.057   6.271  18.488  0.00  0.00    +0.000 A 
ATOM      5  C   UNL     1       3.252   6.242  19.654  0.00  0.00    +0.000 A 
ATOM      6  C   UNL     1       2.287   7.219  19.886  0.00  0.00    +0.000 A 
ATOM      7  C   UNL     1       1.994   8.138  18.891  0.00  0.00    +0.000 A 
ATOM      8  C   UNL     1       2.659   8.046  17.665  0.00  0.00    +0.000 A 
ATOM      9  C   UNL     1       3.678   7.137  17.449  0.00  0.00    +0.000 A 
ATOM     10  N   UNL     1       4.267   7.134  16.245  0.00  0.00    +0.000 NA
ENDROOT
BRANCH   3  11
ATOM     11  C   UNL     1       5.978   4.763  19.354  0.00  0.00    +0.000 C 
ATOM     12  O   UNL     1       6.939   5.300  19.894  0.00  0.00    +0.000 OA
ATOM     13  N   UNL     1       5.549   3.530  19.808  0.00  0.00    +0.000 N 
ATOM     14  H   UNL     1       6.138   3.153  20.544  0.00  0.00    +0.000 HD
BRANCH  13  15
ATOM     15  C   UNL     1       4.537   2.649  19.248  0.00  0.00    +0.000 C 
BRANCH  15  16
ATOM     16  C   UNL     1       3.170   2.574  19.935  0.00  0.00    +0.000 C 
BRANCH  16  17
ATOM     17  N   UNL     1       2.018   2.250  19.085  0.00  0.00    +0.000 NA
ATOM     18  C   UNL     1       2.477   2.037  17.699  0.00  0.00    +0.000 C 
ATOM     19  C   UNL     1       2.446   3.409  17.055  0.00  0.00    +0.000 C 
ATOM     20  C   UNL     1       1.237   4.067  17.687  0.00  0.00    +0.000 C 
ATOM     21  C   UNL     1       1.018   3.327  19.001  0.00  0.00    +0.000 C 
ENDBRANCH  16  17
ENDBRANCH  15  16
ENDBRANCH  13  15
ENDBRANCH   3  11
BRANCH   1  22
ATOM     22  O   UNL     1       5.768   6.130  14.751  0.00  0.00    +0.000 OA
BRANCH  22  24
ATOM     23  C   UNL     1       5.539   3.944  13.883  0.00  0.00    +0.000 C 
ATOM     24  C   UNL     1       6.521   4.930  14.517  0.00  0.00    +0.000 C 
ATOM     25  C   UNL     1       7.697   5.136  13.558  0.00  0.00    +0.000 C 
ENDBRANCH  22  24
ENDBRANCH   1  22
TORSDOF 6
ENDMDL
MODEL 2
REMARK VINA RESULT:      -7.0      3.853      6.048
REMARK  Name = 
REMARK  8 active torsions:
REMARK  status: ('A' for Active; 'I' for Inactive)
REMARK    1  A    between atoms: C_1  and  C_2
REMARK    2  A    between atoms: C_2  and  C_3
REMARK    3  A    between atoms: C_2  and  O_4
REMARK    4  A    between atoms: O_4  and  C_5
REMARK    5  A    between atoms: C_7  and  C_8
REMARK    6  A    between atoms: N_10  and  C_11
REMARK    7  A    between atoms: C_11  and  C_12
REMARK    8  A    between atoms: C_12  and  N_13
REMARK                            x       y       z     vdW  Elec       q    Type
REMARK                         _______ _______ _______ _____ _____    ______ ____
ROOT
ATOM      1  C   UNL     1       6.351   4.339  15.881  0.00  0.00    +0.000 A 
ATOM      2  C   UNL     1       7.262   4.782  16.815  0.00  0.00    +0.000 A 
ATOM      3  C   UNL     1       6.775   5.251  18.042  0.00  0.00    +0.000 A 
ATOM      4  C   UNL     1       5.389   5.147  18.324  0.00  0.00    +0.000 A 
ATOM      5  C   UNL     1       4.785   5.389  19.582  0.00  0.00    +0.000 A 
ATOM      6  C   UNL     1       3.407   5.548  19.702  0.00  0.00    +0.000 A 
ATOM      7  C   UNL     1       2.596   5.304  18.605  0.00  0.00    +0.000 A 
ATOM      8  C   UNL     1       3.181   4.878  17.408  0.00  0.00    +0.000 A 
ATOM      9  C   UNL     1       4.552   4.797  17.250  0.00  0.00    +0.000 A 
ATOM     10  N   UNL     1       5.020   4.394  16.061  0.00  0.00    +0.000 NA
ENDROOT
BRANCH   3  11
ATOM     11  C   UNL     1       7.794   5.884  18.942  0.00  0.00    +0.000 C 
ATOM     12  O   UNL     1       8.254   5.224  19.868  0.00  0.00    +0.000 OA
ATOM     13  N   UNL     1       8.294   7.150  18.700  0.00  0.00    +0.000 N 
ATOM     14  H   UNL     1       8.989   7.437  19.383  0.00  0.00    +0.000 HD
BRANCH  13  15
ATOM     15  C   UNL     1       7.823   8.158  17.764  0.00  0.00    +0.000 C 
BRANCH  15  16
ATOM     16  C   UNL     1       8.085   9.632  18.083  0.00  0.00    +0.000 C 
BRANCH  16  17
ATOM     17  N   UNL     1       9.420   9.974  18.588  0.00  0.00    +0.000 NA
ATOM     18  C   UNL     1       9.298  10.563  19.935  0.00  0.00    +0.000 C 
ATOM     19  C   UNL     1       9.109  12.049  19.704  0.00  0.00    +0.000 C 
ATOM     20  C   UNL     1       9.976  12.330  18.494  0.00  0.00    +0.000 C 
ATOM     21  C   UNL     1      10.120  10.989  17.783  0.00  0.00    +0.000 C 
ENDBRANCH  16  17
ENDBRANCH  15  16
ENDBRANCH  13  15
ENDBRANCH   3  11
BRANCH   1  22
ATOM     22  O   UNL     1       6.847   3.753  14.739  0.00  0.00    +0.000 OA
BRANCH  22  24
ATOM     23  C   UNL     1       7.694   5.136  13.021  0.00  0.00    +0.000 C 
ATOM     24  C   UNL     1       6.457   4.382  13.508  0.00  0.00    +0.000 C 
ATOM     25  C   UNL     1       6.036   3.380  12.429  0.00  0.00    +0.000 C 
ENDBRANCH  22  24
ENDBRANCH   1  22
TORSDOF 6
ENDMDL
MODEL 3
REMARK VINA RESULT:      -7.0      0.727      1.367
REMARK  Name = 
REMARK  8 active torsions:
REMARK  status: ('A' for Active; 'I' for Inactive)
REMARK    1  A    between atoms: C_1  and  C_2
REMARK    2  A    between atoms: C_2  and  C_3
REMARK    3  A    between atoms: C_2  and  O_4
REMARK    4  A    between atoms: O_4  and  C_5
REMARK    5  A    between atoms: C_7  and  C_8
REMARK    6  A    between atoms: N_10  and  C_11
REMARK    7  A    between atoms: C_11  and  C_12
REMARK    8  A    between atoms: C_12  and  N_13
REMARK                            x       y       z     vdW  Elec       q    Type
REMARK                         _______ _______ _______ _____ _____    ______ ____
ROOT
ATOM      1  C   UNL     1       5.161   6.186  15.973  0.00  0.00    +0.000 A 
ATOM      2  C   UNL     1       5.574   5.266  16.913  0.00  0.00    +0.000 A 
ATOM      3  C   UNL     1       4.971   5.297  18.177  0.00  0.00    +0.000 A 
ATOM      4  C   UNL     1       3.890   6.185  18.408  0.00  0.00    +0.000 A 
ATOM      5  C   UNL     1       3.060   6.187  19.557  0.00  0.00    +0.000 A 
ATOM      6  C   UNL     1       2.220   7.262  19.836  0.00  0.00    +0.000 A 
ATOM      7  C   UNL     1       2.069   8.270  18.897  0.00  0.00    +0.000 A 
ATOM      8  C   UNL     1       2.746   8.169  17.678  0.00  0.00    +0.000 A 
ATOM      9  C   UNL     1       3.647   7.154  17.420  0.00  0.00    +0.000 A 
ATOM     10  N   UNL     1       4.260   7.150  16.229  0.00  0.00    +0.000 NA
ENDROOT
BRANCH   3  11
ATOM     11  C   UNL     1       5.584   4.395  19.206  0.00  0.00    +0.000 C 
ATOM     12  O   UNL     1       6.411   4.862  19.982  0.00  0.00    +0.000 OA
ATOM     13  N   UNL     1       5.174   3.084  19.365  0.00  0.00    +0.000 N 
ATOM     14  H   UNL     1       5.666   2.603  20.111  0.00  0.00    +0.000 HD
BRANCH  13  15
ATOM     15  C   UNL     1       4.323   2.280  18.502  0.00  0.00    +0.000 C 
BRANCH  15  16
ATOM     16  C   UNL     1       2.850   2.674  18.355  0.00  0.00    +0.000 C 
BRANCH  16  17
ATOM     17  N   UNL     1       1.902   2.052  19.286  0.00  0.00    +0.000 NA
ATOM     18  C   UNL     1       0.610   2.761  19.215  0.00  0.00    +0.000 C 
ATOM     19  C   UNL     1       0.718   3.886  20.226  0.00  0.00    +0.000 C 
ATOM     20  C   UNL     1       1.539   3.277  21.344  0.00  0.00    +0.000 C 
ATOM     21  C   UNL     1       2.312   2.134  20.697  0.00  0.00    +0.000 C 
ENDBRANCH  16  17
ENDBRANCH  15  16
ENDBRANCH  13  15
ENDBRANCH   3  11
BRANCH   1  22
ATOM     22  O   UNL     1       5.658   6.057  14.697  0.00  0.00    +0.000 OA
BRANCH  22  24
ATOM     23  C   UNL     1       5.572   3.888  13.762  0.00  0.00    +0.000 C 
ATOM     24  C   UNL     1       6.475   4.897  14.472  0.00  0.00    +0.000 C 
ATOM     25  C   UNL     1       7.689   5.181  13.583  0.00  0.00    +0.000 C 
ENDBRANCH  22  24
ENDBRANCH   1  22
TORSDOF 6
ENDMDL
MODEL 4
REMARK VINA RESULT:      -7.0      3.909      7.215
REMARK  Name = 
REMARK  8 active torsions:
REMARK  status: ('A' for Active; 'I' for Inactive)
REMARK    1  A    between atoms: C_1  and  C_2
REMARK    2  A    between atoms: C_2  and  C_3
REMARK    3  A    between atoms: C_2  and  O_4
REMARK    4  A    between atoms: O_4  and  C_5
REMARK    5  A    between atoms: C_7  and  C_8
REMARK    6  A    between atoms: N_10  and  C_11
REMARK    7  A    between atoms: C_11  and  C_12
REMARK    8  A    between atoms: C_12  and  N_13
REMARK                            x       y       z     vdW  Elec       q    Type
REMARK                         _______ _______ _______ _____ _____    ______ ____
ROOT
ATOM      1  C   UNL     1       4.031   4.970  18.450  0.00  0.00    +0.000 A 
ATOM      2  C   UNL     1       5.187   5.483  19.000  0.00  0.00    +0.000 A 
ATOM      3  C   UNL     1       6.332   5.543  18.195  0.00  0.00    +0.000 A 
ATOM      4  C   UNL     1       6.236   5.188  16.825  0.00  0.00    +0.000 A 
ATOM      5  C   UNL     1       7.247   5.388  15.853  0.00  0.00    +0.000 A 
ATOM      6  C   UNL     1       7.188   4.756  14.613  0.00  0.00    +0.000 A 
ATOM      7  C   UNL     1       6.047   4.052  14.261  0.00  0.00    +0.000 A 
ATOM      8  C   UNL     1       4.970   4.015  15.151  0.00  0.00    +0.000 A 
ATOM      9  C   UNL     1       5.044   4.566  16.417  0.00  0.00    +0.000 A 
ATOM     10  N   UNL     1       3.965   4.468  17.205  0.00  0.00    +0.000 NA
ENDROOT
BRANCH   3  11
ATOM     11  C   UNL     1       7.595   5.939  18.899  0.00  0.00    +0.000 C 
ATOM     12  O   UNL     1       8.145   5.122  19.629  0.00  0.00    +0.000 OA
ATOM     13  N   UNL     1       8.203   7.160  18.672  0.00  0.00    +0.000 N 
ATOM     14  H   UNL     1       9.059   7.281  19.205  0.00  0.00    +0.000 HD
BRANCH  13  15
ATOM     15  C   UNL     1       7.689   8.323  17.968  0.00  0.00    +0.000 C 
BRANCH  15  16
ATOM     16  C   UNL     1       8.643   9.486  17.679  0.00  0.00    +0.000 C 
BRANCH  16  17
ATOM     17  N   UNL     1       8.633  10.604  18.630  0.00  0.00    +0.000 NA
ATOM     18  C   UNL     1       8.962  11.854  17.920  0.00  0.00    +0.000 C 
ATOM     19  C   UNL     1      10.475  11.951  17.967  0.00  0.00    +0.000 C 
ATOM     20  C   UNL     1      10.822  11.374  19.324  0.00  0.00    +0.000 C 
ATOM     21  C   UNL     1       9.640  10.486  19.697  0.00  0.00    +0.000 C 
ENDBRANCH  16  17
ENDBRANCH  15  16
ENDBRANCH  13  15
ENDBRANCH   3  11
BRANCH   1  22
ATOM     22  O   UNL     1       2.882   5.046  19.202  0.00  0.00    +0.000 OA
BRANCH  22  24
ATOM     23  C   UNL     1       2.137   4.200  21.279  0.00  0.00    +0.000 C 
ATOM     24  C   UNL     1       2.485   3.821  19.839  0.00  0.00    +0.000 C 
ATOM     25  C   UNL     1       1.257   3.177  19.190  0.00  0.00    +0.000 C 
ENDBRANCH  22  24
ENDBRANCH   1  22
TORSDOF 6
ENDMDL
MODEL 5
REMARK VINA RESULT:      -6.8      2.327      5.706
REMARK  Name = 
REMARK  8 active torsions:
REMARK  status: ('A' for Active; 'I' for Inactive)
REMARK    1  A    between atoms: C_1  and  C_2
REMARK    2  A    between atoms: C_2  and  C_3
REMARK    3  A    between atoms: C_2  and  O_4
REMARK    4  A    between atoms: O_4  and  C_5
REMARK    5  A    between atoms: C_7  and  C_8
REMARK    6  A    between atoms: N_10  and  C_11
REMARK    7  A    between atoms: C_11  and  C_12
REMARK    8  A    between atoms: C_12  and  N_13
REMARK                            x       y       z     vdW  Elec       q    Type
REMARK                         _______ _______ _______ _____ _____    ______ ____
ROOT
ATOM      1  C   UNL     1       3.228   6.850  18.092  0.00  0.00    +0.000 A 
ATOM      2  C   UNL     1       4.511   6.447  17.790  0.00  0.00    +0.000 A 
ATOM      3  C   UNL     1       4.770   5.073  17.708  0.00  0.00    +0.000 A 
ATOM      4  C   UNL     1       3.695   4.156  17.822  0.00  0.00    +0.000 A 
ATOM      5  C   UNL     1       3.770   2.766  17.563  0.00  0.00    +0.000 A 
ATOM      6  C   UNL     1       2.758   1.901  17.974  0.00  0.00    +0.000 A 
ATOM      7  C   UNL     1       1.587   2.423  18.499  0.00  0.00    +0.000 A 
ATOM      8  C   UNL     1       1.438   3.812  18.578  0.00  0.00    +0.000 A 
ATOM      9  C   UNL     1       2.464   4.679  18.252  0.00  0.00    +0.000 A 
ATOM     10  N   UNL     1       2.232   5.993  18.375  0.00  0.00    +0.000 NA
ENDROOT
BRANCH   3  11
ATOM     11  C   UNL     1       6.214   4.697  17.554  0.00  0.00    +0.000 C 
ATOM     12  O   UNL     1       6.887   4.519  18.564  0.00  0.00    +0.000 OA
ATOM     13  N   UNL     1       6.776   4.454  16.315  0.00  0.00    +0.000 N 
ATOM     14  H   UNL     1       7.756   4.192  16.369  0.00  0.00    +0.000 HD
BRANCH  13  15
ATOM     15  C   UNL     1       6.231   4.719  14.994  0.00  0.00    +0.000 C 
BRANCH  15  16
ATOM     16  C   UNL     1       6.102   3.555  14.007  0.00  0.00    +0.000 C 
BRANCH  16  17
ATOM     17  N   UNL     1       6.099   3.893  12.579  0.00  0.00    +0.000 NA
ATOM     18  C   UNL     1       5.045   3.120  11.895  0.00  0.00    +0.000 C 
ATOM     19  C   UNL     1       5.708   1.818  11.488  0.00  0.00    +0.000 C 
ATOM     20  C   UNL     1       7.120   2.237  11.136  0.00  0.00    +0.000 C 
ATOM     21  C   UNL     1       7.349   3.546  11.883  0.00  0.00    +0.000 C 
ENDBRANCH  16  17
ENDBRANCH  15  16
ENDBRANCH  13  15
ENDBRANCH   3  11
BRANCH   1  22
ATOM     22  O   UNL     1       2.954   8.196  18.032  0.00  0.00    +0.000 OA
BRANCH  22  24
ATOM     23  C   UNL     1       1.717   8.691  19.983  0.00  0.00    +0.000 C 
ATOM     24  C   UNL     1       1.637   8.574  18.461  0.00  0.00    +0.000 C 
ATOM     25  C   UNL     1       1.181   9.919  17.888  0.00  0.00    +0.000 C 
ENDBRANCH  22  24
ENDBRANCH   1  22
TORSDOF 6
ENDMDL
MODEL 6
REMARK VINA RESULT:      -6.7      3.907      7.181
REMARK  Name = 
REMARK  8 active torsions:
REMARK  status: ('A' for Active; 'I' for Inactive)
REMARK    1  A    between atoms: C_1  and  C_2
REMARK    2  A    between atoms: C_2  and  C_3
REMARK    3  A    between atoms: C_2  and  O_4
REMARK    4  A    between atoms: O_4  and  C_5
REMARK    5  A    between atoms: C_7  and  C_8
REMARK    6  A    between atoms: N_10  and  C_11
REMARK    7  A    between atoms: C_11  and  C_12
REMARK    8  A    between atoms: C_12  and  N_13
REMARK                            x       y       z     vdW  Elec       q    Type
REMARK                         _______ _______ _______ _____ _____    ______ ____
ROOT
ATOM      1  C   UNL     1       4.457   4.523  18.994  0.00  0.00    +0.000 A 
ATOM      2  C   UNL     1       5.586   5.193  19.418  0.00  0.00    +0.000 A 
ATOM      3  C   UNL     1       6.597   5.440  18.481  0.00  0.00    +0.000 A 
ATOM      4  C   UNL     1       6.381   5.102  17.121  0.00  0.00    +0.000 A 
ATOM      5  C   UNL     1       7.219   5.470  16.039  0.00  0.00    +0.000 A 
ATOM      6  C   UNL     1       7.097   4.860  14.793  0.00  0.00    +0.000 A 
ATOM      7  C   UNL     1       6.036   4.000  14.557  0.00  0.00    +0.000 A 
ATOM      8  C   UNL     1       5.098   3.785  15.572  0.00  0.00    +0.000 A 
ATOM      9  C   UNL     1       5.252   4.315  16.838  0.00  0.00    +0.000 A 
ATOM     10  N   UNL     1       4.308   4.041  17.749  0.00  0.00    +0.000 NA
ENDROOT
BRANCH   3  11
ATOM     11  C   UNL     1       7.868   6.008  19.038  0.00  0.00    +0.000 C 
ATOM     12  O   UNL     1       8.534   5.322  19.807  0.00  0.00    +0.000 OA
ATOM     13  N   UNL     1       8.354   7.239  18.637  0.00  0.00    +0.000 N 
ATOM     14  H   UNL     1       9.231   7.483  19.086  0.00  0.00    +0.000 HD
BRANCH  13  15
ATOM     15  C   UNL     1       7.696   8.273  17.855  0.00  0.00    +0.000 C 
BRANCH  15  16
ATOM     16  C   UNL     1       8.051   9.737  18.131  0.00  0.00    +0.000 C 
BRANCH  16  17
ATOM     17  N   UNL     1       9.412  10.011  18.607  0.00  0.00    +0.000 NA
ATOM     18  C   UNL     1       9.354  10.523  19.989  0.00  0.00    +0.000 C 
ATOM     19  C   UNL     1       9.202  12.025  19.850  0.00  0.00    +0.000 C 
ATOM     20  C   UNL     1      10.036  12.351  18.628  0.00  0.00    +0.000 C 
ATOM     21  C   UNL     1      10.114  11.051  17.837  0.00  0.00    +0.000 C 
ENDBRANCH  16  17
ENDBRANCH  15  16
ENDBRANCH  13  15
ENDBRANCH   3  11
BRANCH   1  22
ATOM     22  O   UNL     1       3.415   4.410  19.884  0.00  0.00    +0.000 OA
BRANCH  22  24
ATOM     23  C   UNL     1       1.128   4.593  20.451  0.00  0.00    +0.000 C 
ATOM     24  C   UNL     1       2.223   5.127  19.526  0.00  0.00    +0.000 C 
ATOM     25  C   UNL     1       2.346   6.639  19.731  0.00  0.00    +0.000 C 
ENDBRANCH  22  24
ENDBRANCH   1  22
TORSDOF 6
ENDMDL
MODEL 7
REMARK VINA RESULT:      -6.7      2.994      5.798
REMARK  Name = 
REMARK  8 active torsions:
REMARK  status: ('A' for Active; 'I' for Inactive)
REMARK    1  A    between atoms: C_1  and  C_2
REMARK    2  A    between atoms: C_2  and  C_3
REMARK    3  A    between atoms: C_2  and  O_4
REMARK    4  A    between atoms: O_4  and  C_5
REMARK    5  A    between atoms: C_7  and  C_8
REMARK    6  A    between atoms: N_10  and  C_11
REMARK    7  A    between atoms: C_11  and  C_12
REMARK    8  A    between atoms: C_12  and  N_13
REMARK                            x       y       z     vdW  Elec       q    Type
REMARK                         _______ _______ _______ _____ _____    ______ ____
ROOT
ATOM      1  C   UNL     1       5.649   4.980  19.342  0.00  0.00    +0.000 A 
ATOM      2  C   UNL     1       4.893   6.109  19.107  0.00  0.00    +0.000 A 
ATOM      3  C   UNL     1       3.547   5.941  18.758  0.00  0.00    +0.000 A 
ATOM      4  C   UNL     1       2.984   4.640  18.770  0.00  0.00    +0.000 A 
ATOM      5  C   UNL     1       1.606   4.340  18.638  0.00  0.00    +0.000 A 
ATOM      6  C   UNL     1       1.173   3.043  18.371  0.00  0.00    +0.000 A 
ATOM      7  C   UNL     1       2.087   2.002  18.396  0.00  0.00    +0.000 A 
ATOM      8  C   UNL     1       3.420   2.276  18.717  0.00  0.00    +0.000 A 
ATOM      9  C   UNL     1       3.881   3.566  18.901  0.00  0.00    +0.000 A 
ATOM     10  N   UNL     1       5.179   3.731  19.190  0.00  0.00    +0.000 NA
ENDROOT
BRANCH   3  11
ATOM     11  C   UNL     1       2.829   7.190  18.342  0.00  0.00    +0.000 C 
ATOM     12  O   UNL     1       2.940   7.576  17.183  0.00  0.00    +0.000 OA
ATOM     13  N   UNL     1       1.973   7.859  19.198  0.00  0.00    +0.000 N 
ATOM     14  H   UNL     1       1.546   8.675  18.772  0.00  0.00    +0.000 HD
BRANCH  13  15
ATOM     15  C   UNL     1       1.781   7.676  20.627  0.00  0.00    +0.000 C 
BRANCH  15  16
ATOM     16  C   UNL     1       0.644   8.436  21.317  0.00  0.00    +0.000 C 
BRANCH  16  17
ATOM     17  N   UNL     1       1.024   9.581  22.153  0.00  0.00    +0.000 NA
ATOM     18  C   UNL     1       0.223   9.569  23.392  0.00  0.00    +0.000 C 
ATOM     19  C   UNL     1      -1.034  10.350  23.060  0.00  0.00    +0.000 C 
ATOM     20  C   UNL     1      -0.539  11.431  22.122  0.00  0.00    +0.000 C 
ATOM     21  C   UNL     1       0.756  10.888  21.530  0.00  0.00    +0.000 C 
ENDBRANCH  16  17
ENDBRANCH  15  16
ENDBRANCH  13  15
ENDBRANCH   3  11
BRANCH   1  22
ATOM     22  O   UNL     1       6.927   5.160  19.819  0.00  0.00    +0.000 OA
BRANCH  22  24
ATOM     23  C   UNL     1       7.559   4.623  17.606  0.00  0.00    +0.000 C 
ATOM     24  C   UNL     1       7.914   5.476  18.825  0.00  0.00    +0.000 C 
ATOM     25  C   UNL     1       7.901   6.950  18.413  0.00  0.00    +0.000 C 
ENDBRANCH  22  24
ENDBRANCH   1  22
TORSDOF 6
ENDMDL
MODEL 8
REMARK VINA RESULT:      -6.6      1.078      1.762
REMARK  Name = 
REMARK  8 active torsions:
REMARK  status: ('A' for Active; 'I' for Inactive)
REMARK    1  A    between atoms: C_1  and  C_2
REMARK    2  A    between atoms: C_2  and  C_3
REMARK    3  A    between atoms: C_2  and  O_4
REMARK    4  A    between atoms: O_4  and  C_5
REMARK    5  A    between atoms: C_7  and  C_8
REMARK    6  A    between atoms: N_10  and  C_11
REMARK    7  A    between atoms: C_11  and  C_12
REMARK    8  A    between atoms: C_12  and  N_13
REMARK                            x       y       z     vdW  Elec       q    Type
REMARK                         _______ _______ _______ _____ _____    ______ ____
ROOT
ATOM      1  C   UNL     1       6.467   5.656  16.077  0.00  0.00    +0.000 A 
ATOM      2  C   UNL     1       6.485   4.792  17.152  0.00  0.00    +0.000 A 
ATOM      3  C   UNL     1       5.510   4.952  18.144  0.00  0.00    +0.000 A 
ATOM      4  C   UNL     1       4.480   5.909  17.957  0.00  0.00    +0.000 A 
ATOM      5  C   UNL     1       3.326   6.042  18.768  0.00  0.00    +0.000 A 
ATOM      6  C   UNL     1       2.521   7.177  18.693  0.00  0.00    +0.000 A 
ATOM      7  C   UNL     1       2.756   8.115  17.700  0.00  0.00    +0.000 A 
ATOM      8  C   UNL     1       3.782   7.885  16.779  0.00  0.00    +0.000 A 
ATOM      9  C   UNL     1       4.641   6.808  16.890  0.00  0.00    +0.000 A 
ATOM     10  N   UNL     1       5.604   6.680  15.967  0.00  0.00    +0.000 NA
ENDROOT
BRANCH   3  11
ATOM     11  C   UNL     1       5.689   4.104  19.368  0.00  0.00    +0.000 C 
ATOM     12  O   UNL     1       6.381   4.533  20.286  0.00  0.00    +0.000 OA
ATOM     13  N   UNL     1       5.024   2.903  19.527  0.00  0.00    +0.000 N 
ATOM     14  H   UNL     1       5.231   2.450  20.412  0.00  0.00    +0.000 HD
BRANCH  13  15
ATOM     15  C   UNL     1       4.270   2.137  18.547  0.00  0.00    +0.000 C 
BRANCH  15  16
ATOM     16  C   UNL     1       2.796   2.487  18.322  0.00  0.00    +0.000 C 
BRANCH  16  17
ATOM     17  N   UNL     1       1.841   2.017  19.332  0.00  0.00    +0.000 NA
ATOM     18  C   UNL     1       0.601   2.812  19.241  0.00  0.00    +0.000 C 
ATOM     19  C   UNL     1       0.827   4.006  20.148  0.00  0.00    +0.000 C 
ATOM     20  C   UNL     1       1.643   3.433  21.288  0.00  0.00    +0.000 C 
ATOM     21  C   UNL     1       2.309   2.186  20.718  0.00  0.00    +0.000 C 
ENDBRANCH  16  17
ENDBRANCH  15  16
ENDBRANCH  13  15
ENDBRANCH   3  11
BRANCH   1  22
ATOM     22  O   UNL     1       7.339   5.402  15.044  0.00  0.00    +0.000 OA
BRANCH  22  24
ATOM     23  C   UNL     1       7.829   5.217  12.740  0.00  0.00    +0.000 C 
ATOM     24  C   UNL     1       6.723   5.081  13.787  0.00  0.00    +0.000 C 
ATOM     25  C   UNL     1       6.171   3.654  13.736  0.00  0.00    +0.000 C 
ENDBRANCH  22  24
ENDBRANCH   1  22
TORSDOF 6
ENDMDL
MODEL 9
REMARK VINA RESULT:      -6.6      1.860      5.435
REMARK  Name = 
REMARK  8 active torsions:
REMARK  status: ('A' for Active; 'I' for Inactive)
REMARK    1  A    between atoms: C_1  and  C_2
REMARK    2  A    between atoms: C_2  and  C_3
REMARK    3  A    between atoms: C_2  and  O_4
REMARK    4  A    between atoms: O_4  and  C_5
REMARK    5  A    between atoms: C_7  and  C_8
REMARK    6  A    between atoms: N_10  and  C_11
REMARK    7  A    between atoms: C_11  and  C_12
REMARK    8  A    between atoms: C_12  and  N_13
REMARK                            x       y       z     vdW  Elec       q    Type
REMARK                         _______ _______ _______ _____ _____    ______ ____
ROOT
ATOM      1  C   UNL     1       3.094   6.834  18.064  0.00  0.00    +0.000 A 
ATOM      2  C   UNL     1       4.422   6.493  18.198  0.00  0.00    +0.000 A 
ATOM      3  C   UNL     1       4.746   5.137  18.333  0.00  0.00    +0.000 A 
ATOM      4  C   UNL     1       3.722   4.164  18.211  0.00  0.00    +0.000 A 
ATOM      5  C   UNL     1       3.924   2.764  18.124  0.00  0.00    +0.000 A 
ATOM      6  C   UNL     1       2.869   1.872  18.299  0.00  0.00    +0.000 A 
ATOM      7  C   UNL     1       1.575   2.358  18.397  0.00  0.00    +0.000 A 
ATOM      8  C   UNL     1       1.357   3.735  18.292  0.00  0.00    +0.000 A 
ATOM      9  C   UNL     1       2.399   4.638  18.202  0.00  0.00    +0.000 A 
ATOM     10  N   UNL     1       2.092   5.940  18.121  0.00  0.00    +0.000 NA
ENDROOT
BRANCH   3  11
ATOM     11  C   UNL     1       6.181   4.845  18.653  0.00  0.00    +0.000 C 
ATOM     12  O   UNL     1       6.584   5.049  19.794  0.00  0.00    +0.000 OA
ATOM     13  N   UNL     1       7.032   4.267  17.729  0.00  0.00    +0.000 N 
ATOM     14  H   UNL     1       7.967   4.113  18.094  0.00  0.00    +0.000 HD
BRANCH  13  15
ATOM     15  C   UNL     1       6.831   4.057  16.305  0.00  0.00    +0.000 C 
BRANCH  15  16
ATOM     16  C   UNL     1       7.628   4.916  15.319  0.00  0.00    +0.000 C 
BRANCH  16  17
ATOM     17  N   UNL     1       6.908   5.412  14.140  0.00  0.00    +0.000 NA
ATOM     18  C   UNL     1       5.678   4.621  13.948  0.00  0.00    +0.000 C 
ATOM     19  C   UNL     1       6.091   3.446  13.084  0.00  0.00    +0.000 C 
ATOM     20  C   UNL     1       7.130   4.040  12.156  0.00  0.00    +0.000 C 
ATOM     21  C   UNL     1       7.659   5.272  12.881  0.00  0.00    +0.000 C 
ENDBRANCH  16  17
ENDBRANCH  15  16
ENDBRANCH  13  15
ENDBRANCH   3  11
BRANCH   1  22
ATOM     22  O   UNL     1       2.800   8.150  17.793  0.00  0.00    +0.000 OA
BRANCH  22  24
ATOM     23  C   UNL     1       1.770   8.465  19.896  0.00  0.00    +0.000 C 
ATOM     24  C   UNL     1       1.589   8.644  18.388  0.00  0.00    +0.000 C 
ATOM     25  C   UNL     1       1.337  10.125  18.096  0.00  0.00    +0.000 C 
ENDBRANCH  22  24
ENDBRANCH   1  22
TORSDOF 6
ENDMDL
