MODEL 1
REMARK VINA RESULT:      -7.0      0.000      0.000
REMARK  Name = 
REMARK  3 active torsions:
REMARK  status: ('A' for Active; 'I' for Inactive)
REMARK    1  A    between atoms: C_1  and  N_2
REMARK    2  A    between atoms: C_9  and  N_10
REMARK    3  A    between atoms: N_16  and  C_17
REMARK                            x       y       z     vdW  Elec       q    Type
REMARK                         _______ _______ _______ _____ _____    ______ ____
ROOT
ATOM      1  C   UNL     1       6.315   5.500  15.249  0.00  0.00    +0.000 C 
ATOM      2  N   UNL     1       6.315   6.498  16.320  0.00  0.00    +0.000 NA
ATOM      3  C   UNL     1       7.281   6.183  17.380  0.00  0.00    +0.000 C 
ATOM      4  C   UNL     1       6.965   4.892  18.141  0.00  0.00    +0.000 C 
ATOM      5  C   UNL     1       5.496   4.721  18.436  0.00  0.00    +0.000 A 
ATOM      6  N   UNL     1       5.181   3.691  19.256  0.00  0.00    +0.000 NA
ATOM      7  C   UNL     1       3.894   3.531  19.631  0.00  0.00    +0.000 A 
ATOM      8  C   UNL     1       2.884   4.397  19.183  0.00  0.00    +0.000 A 
ATOM      9  C   UNL     1       3.198   5.382  18.222  0.00  0.00    +0.000 A 
ATOM     10  C   UNL     1       4.542   5.563  17.858  0.00  0.00    +0.000 A 
ATOM     11  C   UNL     1       4.978   6.665  16.918  0.00  0.00    +0.000 C 
ATOM     12  C   UNL     1       1.474   4.224  19.698  0.00  0.00    +0.000 C 
ATOM     13  C   UNL     1       1.318   3.299  20.907  0.00  0.00    +0.000 C 
ATOM     14  C   UNL     1       2.647   2.934  21.546  0.00  0.00    +0.000 C 
ATOM     15  N   UNL     1       3.545   2.481  20.498  0.00  0.00    +0.000 N 
ATOM     16  C   UNL     1       4.614   1.562  20.853  0.00  0.00    +0.000 C 
ENDROOT
BRANCH   9  17
ATOM     17  N   UNL     1       2.211   6.308  17.823  0.00  0.00    +0.000 N 
ATOM     18  H   UNL     1       2.469   6.851  17.004  0.00  0.00    +0.000 HD
ATOM     19  H   UNL     1       1.876   6.923  18.557  0.00  0.00    +0.000 HD
ENDBRANCH   9  17
TORSDOF 1
ENDMDL
MODEL 2
REMARK VINA RESULT:      -6.9      1.652      2.839
REMARK  Name = 
REMARK  3 active torsions:
REMARK  status: ('A' for Active; 'I' for Inactive)
REMARK    1  A    between atoms: C_1  and  N_2
REMARK    2  A    between atoms: C_9  and  N_10
REMARK    3  A    between atoms: N_16  and  C_17
REMARK                            x       y       z     vdW  Elec       q    Type
REMARK                         _______ _______ _______ _____ _____    ______ ____
ROOT
ATOM      1  C   UNL     1       7.427   5.026  16.523  0.00  0.00    +0.000 C 
ATOM      2  N   UNL     1       6.305   4.716  15.635  0.00  0.00    +0.000 NA
ATOM      3  C   UNL     1       5.457   5.885  15.374  0.00  0.00    +0.000 C 
ATOM      4  C   UNL     1       4.745   6.423  16.619  0.00  0.00    +0.000 C 
ATOM      5  C   UNL     1       4.209   5.333  17.514  0.00  0.00    +0.000 A 
ATOM      6  N   UNL     1       3.421   5.749  18.532  0.00  0.00    +0.000 NA
ATOM      7  C   UNL     1       2.837   4.821  19.321  0.00  0.00    +0.000 A 
ATOM      8  C   UNL     1       3.039   3.448  19.114  0.00  0.00    +0.000 A 
ATOM      9  C   UNL     1       3.968   3.027  18.139  0.00  0.00    +0.000 A 
ATOM     10  C   UNL     1       4.549   3.994  17.301  0.00  0.00    +0.000 A 
ATOM     11  C   UNL     1       5.471   3.621  16.162  0.00  0.00    +0.000 C 
ATOM     12  C   UNL     1       2.297   2.450  19.973  0.00  0.00    +0.000 C 
ATOM     13  C   UNL     1       1.148   3.018  20.808  0.00  0.00    +0.000 C 
ATOM     14  C   UNL     1       0.780   4.439  20.416  0.00  0.00    +0.000 C 
ATOM     15  N   UNL     1       1.999   5.228  20.374  0.00  0.00    +0.000 N 
ATOM     16  C   UNL     1       1.904   6.660  20.599  0.00  0.00    +0.000 C 
ENDROOT
BRANCH   9  17
ATOM     17  N   UNL     1       4.121   1.652  17.865  0.00  0.00    +0.000 N 
ATOM     18  H   UNL     1       4.213   1.440  16.876  0.00  0.00    +0.000 HD
ATOM     19  H   UNL     1       3.422   1.049  18.286  0.00  0.00    +0.000 HD
ENDBRANCH   9  17
TORSDOF 1
ENDMDL
MODEL 3
REMARK VINA RESULT:      -6.4      1.326      2.920
REMARK  Name = 
REMARK  3 active torsions:
REMARK  status: ('A' for Active; 'I' for Inactive)
REMARK    1  A    between atoms: C_1  and  N_2
REMARK    2  A    between atoms: C_9  and  N_10
REMARK    3  A    between atoms: N_16  and  C_17
REMARK                            x       y       z     vdW  Elec       q    Type
REMARK                         _______ _______ _______ _____ _____    ______ ____
ROOT
ATOM      1  C   UNL     1       7.642   6.465  17.883  0.00  0.00    +0.000 C 
ATOM      2  N   UNL     1       6.872   5.708  16.894  0.00  0.00    +0.000 NA
ATOM      3  C   UNL     1       5.801   6.506  16.287  0.00  0.00    +0.000 C 
ATOM      4  C   UNL     1       4.716   6.941  17.277  0.00  0.00    +0.000 C 
ATOM      5  C   UNL     1       4.337   5.858  18.255  0.00  0.00    +0.000 A 
ATOM      6  N   UNL     1       3.265   6.126  19.036  0.00  0.00    +0.000 NA
ATOM      7  C   UNL     1       2.816   5.166  19.874  0.00  0.00    +0.000 A 
ATOM      8  C   UNL     1       3.442   3.913  19.958  0.00  0.00    +0.000 A 
ATOM      9  C   UNL     1       4.639   3.691  19.244  0.00  0.00    +0.000 A 
ATOM     10  C   UNL     1       5.083   4.680  18.351  0.00  0.00    +0.000 A 
ATOM     11  C   UNL     1       6.294   4.479  17.468  0.00  0.00    +0.000 C 
ATOM     12  C   UNL     1       2.851   2.846  20.851  0.00  0.00    +0.000 C 
ATOM     13  C   UNL     1       1.437   3.120  21.367  0.00  0.00    +0.000 C 
ATOM     14  C   UNL     1       0.771   4.292  20.665  0.00  0.00    +0.000 C 
ATOM     15  N   UNL     1       1.692   5.414  20.681  0.00  0.00    +0.000 N 
ATOM     16  C   UNL     1       1.145   6.759  20.621  0.00  0.00    +0.000 C 
ENDROOT
BRANCH   9  17
ATOM     17  N   UNL     1       5.233   2.411  19.257  0.00  0.00    +0.000 N 
ATOM     18  H   UNL     1       5.413   2.055  20.191  0.00  0.00    +0.000 HD
ATOM     19  H   UNL     1       6.062   2.316  18.682  0.00  0.00    +0.000 HD
ENDBRANCH   9  17
TORSDOF 1
ENDMDL
MODEL 4
REMARK VINA RESULT:      -6.4      1.752      5.285
REMARK  Name = 
REMARK  3 active torsions:
REMARK  status: ('A' for Active; 'I' for Inactive)
REMARK    1  A    between atoms: C_1  and  N_2
REMARK    2  A    between atoms: C_9  and  N_10
REMARK    3  A    between atoms: N_16  and  C_17
REMARK                            x       y       z     vdW  Elec       q    Type
REMARK                         _______ _______ _______ _____ _____    ______ ____
ROOT
ATOM      1  C   UNL     1       1.948   2.571  21.524  0.00  0.00    +0.000 C 
ATOM      2  N   UNL     1       0.952   3.019  20.549  0.00  0.00    +0.000 NA
ATOM      3  C   UNL     1       0.854   2.121  19.393  0.00  0.00    +0.000 C 
ATOM      4  C   UNL     1       2.130   2.060  18.547  0.00  0.00    +0.000 C 
ATOM      5  C   UNL     1       2.780   3.408  18.356  0.00  0.00    +0.000 A 
ATOM      6  N   UNL     1       3.807   3.441  17.475  0.00  0.00    +0.000 NA
ATOM      7  C   UNL     1       4.379   4.630  17.190  0.00  0.00    +0.000 A 
ATOM      8  C   UNL     1       3.941   5.820  17.792  0.00  0.00    +0.000 A 
ATOM      9  C   UNL     1       2.965   5.759  18.809  0.00  0.00    +0.000 A 
ATOM     10  C   UNL     1       2.352   4.524  19.080  0.00  0.00    +0.000 A 
ATOM     11  C   UNL     1       1.222   4.389  20.076  0.00  0.00    +0.000 C 
ATOM     12  C   UNL     1       4.560   7.135  17.377  0.00  0.00    +0.000 C 
ATOM     13  C   UNL     1       5.413   7.096  16.107  0.00  0.00    +0.000 C 
ATOM     14  C   UNL     1       5.260   5.795  15.335  0.00  0.00    +0.000 C 
ATOM     15  N   UNL     1       5.435   4.692  16.264  0.00  0.00    +0.000 N 
ATOM     16  C   UNL     1       5.908   3.420  15.745  0.00  0.00    +0.000 C 
ENDROOT
BRANCH   9  17
ATOM     17  N   UNL     1       2.459   6.952  19.365  0.00  0.00    +0.000 N 
ATOM     18  H   UNL     1       2.883   7.199  20.255  0.00  0.00    +0.000 HD
ATOM     19  H   UNL     1       1.448   7.001  19.436  0.00  0.00    +0.000 HD
ENDBRANCH   9  17
TORSDOF 1
ENDMDL
MODEL 5
REMARK VINA RESULT:      -5.9      1.610      5.525
REMARK  Name = 
REMARK  3 active torsions:
REMARK  status: ('A' for Active; 'I' for Inactive)
REMARK    1  A    between atoms: C_1  and  N_2
REMARK    2  A    between atoms: C_9  and  N_10
REMARK    3  A    between atoms: N_16  and  C_17
REMARK                            x       y       z     vdW  Elec       q    Type
REMARK                         _______ _______ _______ _____ _____    ______ ____
ROOT
ATOM      1  C   UNL     1       0.337   3.252  20.001  0.00  0.00    +0.000 C 
ATOM      2  N   UNL     1       1.563   2.895  20.716  0.00  0.00    +0.000 NA
ATOM      3  C   UNL     1       2.156   4.038  21.419  0.00  0.00    +0.000 C 
ATOM      4  C   UNL     1       2.639   5.153  20.488  0.00  0.00    +0.000 C 
ATOM      5  C   UNL     1       3.328   4.637  19.250  0.00  0.00    +0.000 A 
ATOM      6  N   UNL     1       3.928   5.575  18.481  0.00  0.00    +0.000 NA
ATOM      7  C   UNL     1       4.637   5.174  17.404  0.00  0.00    +0.000 A 
ATOM      8  C   UNL     1       4.753   3.817  17.062  0.00  0.00    +0.000 A 
ATOM      9  C   UNL     1       4.012   2.859  17.787  0.00  0.00    +0.000 A 
ATOM     10  C   UNL     1       3.302   3.277  18.925  0.00  0.00    +0.000 A 
ATOM     11  C   UNL     1       2.571   2.301  19.819  0.00  0.00    +0.000 C 
ATOM     12  C   UNL     1       5.625   3.416  15.895  0.00  0.00    +0.000 C 
ATOM     13  C   UNL     1       6.559   4.503  15.359  0.00  0.00    +0.000 C 
ATOM     14  C   UNL     1       6.640   5.714  16.274  0.00  0.00    +0.000 C 
ATOM     15  N   UNL     1       5.286   6.128  16.600  0.00  0.00    +0.000 N 
ATOM     16  C   UNL     1       5.053   7.520  16.946  0.00  0.00    +0.000 C 
ENDROOT
BRANCH   9  17
ATOM     17  N   UNL     1       4.181   1.487  17.507  0.00  0.00    +0.000 N 
ATOM     18  H   UNL     1       4.884   1.036  18.086  0.00  0.00    +0.000 HD
ATOM     19  H   UNL     1       4.339   1.263  16.531  0.00  0.00    +0.000 HD
ENDBRANCH   9  17
TORSDOF 1
ENDMDL
MODEL 6
REMARK VINA RESULT:      -5.7      8.059     10.244
REMARK  Name = 
REMARK  3 active torsions:
REMARK  status: ('A' for Active; 'I' for Inactive)
REMARK    1  A    between atoms: C_1  and  N_2
REMARK    2  A    between atoms: C_9  and  N_10
REMARK    3  A    between atoms: N_16  and  C_17
REMARK                            x       y       z     vdW  Elec       q    Type
REMARK                         _______ _______ _______ _____ _____    ______ ____
ROOT
ATOM      1  C   UNL     1      -0.421  10.672  22.714  0.00  0.00    +0.000 C 
ATOM      2  N   UNL     1       0.187  11.705  21.874  0.00  0.00    +0.000 NA
ATOM      3  C   UNL     1      -0.587  12.951  21.867  0.00  0.00    +0.000 C 
ATOM      4  C   UNL     1      -1.981  12.810  21.248  0.00  0.00    +0.000 C 
ATOM      5  C   UNL     1      -1.996  11.950  20.009  0.00  0.00    +0.000 A 
ATOM      6  N   UNL     1      -3.162  11.934  19.323  0.00  0.00    +0.000 NA
ATOM      7  C   UNL     1      -3.220  11.254  18.158  0.00  0.00    +0.000 A 
ATOM      8  C   UNL     1      -2.109  10.561  17.655  0.00  0.00    +0.000 A 
ATOM      9  C   UNL     1      -0.941  10.468  18.442  0.00  0.00    +0.000 A 
ATOM     10  C   UNL     1      -0.875  11.202  19.638  0.00  0.00    +0.000 A 
ATOM     11  C   UNL     1       0.376  11.246  20.486  0.00  0.00    +0.000 C 
ATOM     12  C   UNL     1      -2.202   9.885  16.306  0.00  0.00    +0.000 C 
ATOM     13  C   UNL     1      -3.415  10.267  15.455  0.00  0.00    +0.000 C 
ATOM     14  C   UNL     1      -4.167  11.467  16.005  0.00  0.00    +0.000 C 
ATOM     15  N   UNL     1      -4.416  11.239  17.418  0.00  0.00    +0.000 N 
ATOM     16  C   UNL     1      -5.558  11.893  18.033  0.00  0.00    +0.000 C 
ENDROOT
BRANCH   9  17
ATOM     17  N   UNL     1       0.209   9.844  17.915  0.00  0.00    +0.000 N 
ATOM     18  H   UNL     1       0.644  10.363  17.157  0.00  0.00    +0.000 HD
ATOM     19  H   UNL     1       0.089   8.874  17.647  0.00  0.00    +0.000 HD
ENDBRANCH   9  17
TORSDOF 1
ENDMDL
MODEL 7
REMARK VINA RESULT:      -5.7      3.055      4.879
REMARK  Name = 
REMARK  3 active torsions:
REMARK  status: ('A' for Active; 'I' for Inactive)
REMARK    1  A    between atoms: C_1  and  N_2
REMARK    2  A    between atoms: C_9  and  N_10
REMARK    3  A    between atoms: N_16  and  C_17
REMARK                            x       y       z     vdW  Elec       q    Type
REMARK                         _______ _______ _______ _____ _____    ______ ____
ROOT
ATOM      1  C   UNL     1       6.356   5.006  18.569  0.00  0.00    +0.000 C 
ATOM      2  N   UNL     1       5.132   4.368  18.080  0.00  0.00    +0.000 NA
ATOM      3  C   UNL     1       4.717   4.880  16.770  0.00  0.00    +0.000 C 
ATOM      4  C   UNL     1       4.327   6.362  16.780  0.00  0.00    +0.000 C 
ATOM      5  C   UNL     1       3.520   6.755  17.992  0.00  0.00    +0.000 A 
ATOM      6  N   UNL     1       3.001   8.004  17.968  0.00  0.00    +0.000 NA
ATOM      7  C   UNL     1       2.196   8.392  18.981  0.00  0.00    +0.000 A 
ATOM      8  C   UNL     1       1.900   7.537  20.054  0.00  0.00    +0.000 A 
ATOM      9  C   UNL     1       2.554   6.289  20.141  0.00  0.00    +0.000 A 
ATOM     10  C   UNL     1       3.366   5.878  19.070  0.00  0.00    +0.000 A 
ATOM     11  C   UNL     1       4.016   4.513  19.032  0.00  0.00    +0.000 C 
ATOM     12  C   UNL     1       0.929   7.990  21.119  0.00  0.00    +0.000 C 
ATOM     13  C   UNL     1       0.109   9.237  20.784  0.00  0.00    +0.000 C 
ATOM     14  C   UNL     1       0.220   9.639  19.322  0.00  0.00    +0.000 C 
ATOM     15  N   UNL     1       1.628   9.678  18.968  0.00  0.00    +0.000 N 
ATOM     16  C   UNL     1       2.045  10.551  17.884  0.00  0.00    +0.000 C 
ENDROOT
BRANCH   9  17
ATOM     17  N   UNL     1       2.207   5.388  21.169  0.00  0.00    +0.000 N 
ATOM     18  H   UNL     1       2.610   4.463  21.054  0.00  0.00    +0.000 HD
ATOM     19  H   UNL     1       1.213   5.314  21.360  0.00  0.00    +0.000 HD
ENDBRANCH   9  17
TORSDOF 1
ENDMDL
MODEL 8
REMARK VINA RESULT:      -5.6      1.259      1.339
REMARK  Name = 
REMARK  3 active torsions:
REMARK  status: ('A' for Active; 'I' for Inactive)
REMARK    1  A    between atoms: C_1  and  N_2
REMARK    2  A    between atoms: C_9  and  N_10
REMARK    3  A    between atoms: N_16  and  C_17
REMARK                            x       y       z     vdW  Elec       q    Type
REMARK                         _______ _______ _______ _____ _____    ______ ____
ROOT
ATOM      1  C   UNL     1       5.928   5.073  14.487  0.00  0.00    +0.000 C 
ATOM      2  N   UNL     1       6.584   5.904  15.498  0.00  0.00    +0.000 NA
ATOM      3  C   UNL     1       7.416   5.119  16.417  0.00  0.00    +0.000 C 
ATOM      4  C   UNL     1       6.623   4.130  17.276  0.00  0.00    +0.000 C 
ATOM      5  C   UNL     1       5.325   4.699  17.792  0.00  0.00    +0.000 A 
ATOM      6  N   UNL     1       4.671   3.935  18.697  0.00  0.00    +0.000 NA
ATOM      7  C   UNL     1       3.547   4.421  19.266  0.00  0.00    +0.000 A 
ATOM      8  C   UNL     1       3.042   5.687  18.931  0.00  0.00    +0.000 A 
ATOM      9  C   UNL     1       3.651   6.418  17.889  0.00  0.00    +0.000 A 
ATOM     10  C   UNL     1       4.837   5.922  17.322  0.00  0.00    +0.000 A 
ATOM     11  C   UNL     1       5.613   6.693  16.278  0.00  0.00    +0.000 C 
ATOM     12  C   UNL     1       1.827   6.219  19.656  0.00  0.00    +0.000 C 
ATOM     13  C   UNL     1       1.419   5.454  20.917  0.00  0.00    +0.000 C 
ATOM     14  C   UNL     1       2.474   4.458  21.369  0.00  0.00    +0.000 C 
ATOM     15  N   UNL     1       2.860   3.654  20.223  0.00  0.00    +0.000 N 
ATOM     16  C   UNL     1       3.374   2.316  20.459  0.00  0.00    +0.000 C 
ENDROOT
BRANCH   9  17
ATOM     17  N   UNL     1       3.204   7.724  17.597  0.00  0.00    +0.000 N 
ATOM     18  H   UNL     1       3.725   8.176  16.850  0.00  0.00    +0.000 HD
ATOM     19  H   UNL     1       3.133   8.344  18.396  0.00  0.00    +0.000 HD
ENDBRANCH   9  17
TORSDOF 1
ENDMDL
MODEL 9
REMARK VINA RESULT:      -5.6      1.189      4.993
REMARK  Name = 
REMARK  3 active torsions:
REMARK  status: ('A' for Active; 'I' for Inactive)
REMARK    1  A    between atoms: C_1  and  N_2
REMARK    2  A    between atoms: C_9  and  N_10
REMARK    3  A    between atoms: N_16  and  C_17
REMARK                            x       y       z     vdW  Elec       q    Type
REMARK                         _______ _______ _______ _____ _____    ______ ____
ROOT
ATOM      1  C   UNL     1       1.755   3.056  21.456  0.00  0.00    +0.000 C 
ATOM      2  N   UNL     1       1.443   2.795  20.050  0.00  0.00    +0.000 NA
ATOM      3  C   UNL     1       2.290   1.745  19.472  0.00  0.00    +0.000 C 
ATOM      4  C   UNL     1       3.775   2.112  19.411  0.00  0.00    +0.000 C 
ATOM      5  C   UNL     1       4.017   3.540  18.990  0.00  0.00    +0.000 A 
ATOM      6  N   UNL     1       5.308   3.868  18.749  0.00  0.00    +0.000 NA
ATOM      7  C   UNL     1       5.587   5.105  18.285  0.00  0.00    +0.000 A 
ATOM      8  C   UNL     1       4.577   6.052  18.062  0.00  0.00    +0.000 A 
ATOM      9  C   UNL     1       3.252   5.750  18.445  0.00  0.00    +0.000 A 
ATOM     10  C   UNL     1       2.962   4.453  18.898  0.00  0.00    +0.000 A 
ATOM     11  C   UNL     1       1.553   4.013  19.226  0.00  0.00    +0.000 C 
ATOM     12  C   UNL     1       4.934   7.394  17.465  0.00  0.00    +0.000 C 
ATOM     13  C   UNL     1       6.339   7.502  16.868  0.00  0.00    +0.000 C 
ATOM     14  C   UNL     1       7.029   6.154  16.737  0.00  0.00    +0.000 C 
ATOM     15  N   UNL     1       6.919   5.462  18.009  0.00  0.00    +0.000 N 
ATOM     16  C   UNL     1       7.930   4.475  18.349  0.00  0.00    +0.000 C 
ENDROOT
BRANCH   9  17
ATOM     17  N   UNL     1       2.215   6.661  18.153  0.00  0.00    +0.000 N 
ATOM     18  H   UNL     1       1.600   6.352  17.405  0.00  0.00    +0.000 HD
ATOM     19  H   UNL     1       2.514   7.615  17.986  0.00  0.00    +0.000 HD
ENDBRANCH   9  17
TORSDOF 1
ENDMDL
