MODEL 1
REMARK VINA RESULT:      -9.1      0.000      0.000
REMARK  Name = 
REMARK  5 active torsions:
REMARK  status: ('A' for Active; 'I' for Inactive)
REMARK    1  A    between atoms: C_2  and  C_3
REMARK    2  A    between atoms: C_7  and  S_8
REMARK    3  A    between atoms: S_8  and  N_11
REMARK    4  A    between atoms: N_11  and  C_12
REMARK    5  A    between atoms: C_15  and  C_16
REMARK                            x       y       z     vdW  Elec       q    Type
REMARK                         _______ _______ _______ _____ _____    ______ ____
ROOT
ATOM      1  C   UNL     1       1.997   6.714  19.240  0.00  0.00    +0.000 A 
ATOM      2  C   UNL     1       1.747   6.439  20.594  0.00  0.00    +0.000 A 
ATOM      3  C   UNL     1       1.964   5.176  21.124  0.00  0.00    +0.000 A 
ATOM      4  C   UNL     1       2.267   4.123  20.274  0.00  0.00    +0.000 A 
ATOM      5  C   UNL     1       2.356   4.353  18.895  0.00  0.00    +0.000 A 
ATOM      6  C   UNL     1       2.262   5.649  18.369  0.00  0.00    +0.000 A 
ENDROOT
BRANCH   1   8
ATOM      7  O   UNL     1       2.149   8.288  17.533  0.00  0.00    +0.000 OA
ATOM      8  C   UNL     1       1.924   8.115  18.725  0.00  0.00    +0.000 C 
ATOM      9  N   UNL     1       1.581   9.153  19.596  0.00  0.00    +0.000 N 
ATOM     10  C   UNL     1       1.285  10.494  19.057  0.00  0.00    +0.000 C 
ATOM     11  C   UNL     1      -0.057  11.058  19.612  0.00  0.00    +0.000 C 
ATOM     12  N   UNL     1      -0.103  10.949  21.078  0.00  0.00    +0.000 NA
ATOM     13  C   UNL     1      -1.336  11.362  21.725  0.00  0.00    +0.000 C 
ATOM     14  C   UNL     1      -1.178  10.760  23.124  0.00  0.00    +0.000 C 
ATOM     15  C   UNL     1      -0.204   9.584  22.972  0.00  0.00    +0.000 C 
ATOM     16  C   UNL     1       0.092   9.549  21.484  0.00  0.00    +0.000 C 
ATOM     17  C   UNL     1       1.501   9.106  21.072  0.00  0.00    +0.000 C 
ENDBRANCH   1   8
BRANCH   5  18
ATOM     18  S   UNL     1       2.616   2.945  17.839  0.00  0.00    +0.000 S 
ATOM     19  O   UNL     1       2.033   1.788  18.475  0.00  0.00    +0.000 OA
ATOM     20  O   UNL     1       2.231   3.339  16.503  0.00  0.00    +0.000 OA
BRANCH  18  21
ATOM     21  N   UNL     1       4.305   2.795  17.818  0.00  0.00    +0.000 N 
ATOM     22  H   UNL     1       4.620   2.026  17.229  0.00  0.00    +0.000 HD
BRANCH  21  23
ATOM     23  C   UNL     1       5.082   3.983  17.815  0.00  0.00    +0.000 A 
ATOM     24  C   UNL     1       5.294   4.648  16.610  0.00  0.00    +0.000 A 
ATOM     25  C   UNL     1       6.101   5.786  16.573  0.00  0.00    +0.000 A 
ATOM     26  C   UNL     1       6.722   6.256  17.740  0.00  0.00    +0.000 A 
ATOM     27  C   UNL     1       6.513   5.566  18.945  0.00  0.00    +0.000 A 
ATOM     28  C   UNL     1       5.684   4.442  18.986  0.00  0.00    +0.000 A 
BRANCH  26  29
ATOM     29  C   UNL     1       7.595   7.488  17.713  0.00  0.00    +0.000 C 
ATOM     30  F   UNL     1       8.528   7.515  18.707  0.00  0.00    +0.000 F 
ATOM     31  F   UNL     1       8.294   7.597  16.548  0.00  0.00    +0.000 F 
ATOM     32  F   UNL     1       6.887   8.643  17.832  0.00  0.00    +0.000 F 
ENDBRANCH  26  29
ENDBRANCH  21  23
ENDBRANCH  18  21
ENDBRANCH   5  18
TORSDOF 5
ENDMDL
MODEL 2
REMARK VINA RESULT:      -9.0      0.144      1.111
REMARK  Name = 
REMARK  5 active torsions:
REMARK  status: ('A' for Active; 'I' for Inactive)
REMARK    1  A    between atoms: C_2  and  C_3
REMARK    2  A    between atoms: C_7  and  S_8
REMARK    3  A    between atoms: S_8  and  N_11
REMARK    4  A    between atoms: N_11  and  C_12
REMARK    5  A    between atoms: C_15  and  C_16
REMARK                            x       y       z     vdW  Elec       q    Type
REMARK                         _______ _______ _______ _____ _____    ______ ____
ROOT
ATOM      1  C   UNL     1       2.031   6.842  19.175  0.00  0.00    +0.000 A 
ATOM      2  C   UNL     1       1.825   6.578  20.539  0.00  0.00    +0.000 A 
ATOM      3  C   UNL     1       2.037   5.314  21.068  0.00  0.00    +0.000 A 
ATOM      4  C   UNL     1       2.288   4.251  20.213  0.00  0.00    +0.000 A 
ATOM      5  C   UNL     1       2.332   4.473  18.831  0.00  0.00    +0.000 A 
ATOM      6  C   UNL     1       2.244   5.768  18.302  0.00  0.00    +0.000 A 
ENDROOT
BRANCH   1   8
ATOM      7  O   UNL     1       2.209   8.412  17.467  0.00  0.00    +0.000 OA
ATOM      8  C   UNL     1       1.967   8.242  18.656  0.00  0.00    +0.000 C 
ATOM      9  N   UNL     1       1.611   9.283  19.520  0.00  0.00    +0.000 N 
ATOM     10  C   UNL     1       1.324  10.622  18.972  0.00  0.00    +0.000 C 
ATOM     11  C   UNL     1      -0.026  11.188  19.506  0.00  0.00    +0.000 C 
ATOM     12  N   UNL     1      -0.093  11.083  20.972  0.00  0.00    +0.000 NA
ATOM     13  C   UNL     1      -1.336  11.499  21.600  0.00  0.00    +0.000 C 
ATOM     14  C   UNL     1      -1.198  10.899  23.002  0.00  0.00    +0.000 C 
ATOM     15  C   UNL     1      -0.223   9.723  22.867  0.00  0.00    +0.000 C 
ATOM     16  C   UNL     1       0.095   9.684  21.384  0.00  0.00    +0.000 C 
ATOM     17  C   UNL     1       1.510   9.239  20.995  0.00  0.00    +0.000 C 
ENDBRANCH   1   8
BRANCH   5  18
ATOM     18  S   UNL     1       2.526   3.056  17.773  0.00  0.00    +0.000 S 
ATOM     19  O   UNL     1       1.837   1.941  18.379  0.00  0.00    +0.000 OA
ATOM     20  O   UNL     1       2.220   3.484  16.427  0.00  0.00    +0.000 OA
BRANCH  18  21
ATOM     21  N   UNL     1       4.199   2.782  17.812  0.00  0.00    +0.000 N 
ATOM     22  H   UNL     1       4.471   1.957  17.280  0.00  0.00    +0.000 HD
BRANCH  21  23
ATOM     23  C   UNL     1       5.063   3.908  17.761  0.00  0.00    +0.000 A 
ATOM     24  C   UNL     1       5.666   4.349  18.935  0.00  0.00    +0.000 A 
ATOM     25  C   UNL     1       6.475   5.487  18.919  0.00  0.00    +0.000 A 
ATOM     26  C   UNL     1       6.668   6.206  17.731  0.00  0.00    +0.000 A 
ATOM     27  C   UNL     1       6.040   5.758  16.556  0.00  0.00    +0.000 A 
ATOM     28  C   UNL     1       5.252   4.604  16.568  0.00  0.00    +0.000 A 
BRANCH  26  29
ATOM     29  C   UNL     1       7.542   7.438  17.700  0.00  0.00    +0.000 C 
ATOM     30  F   UNL     1       8.239   7.581  16.537  0.00  0.00    +0.000 F 
ATOM     31  F   UNL     1       6.819   8.584  17.841  0.00  0.00    +0.000 F 
ATOM     32  F   UNL     1       8.467   7.456  18.696  0.00  0.00    +0.000 F 
ENDBRANCH  26  29
ENDBRANCH  21  23
ENDBRANCH  18  21
ENDBRANCH   5  18
TORSDOF 5
ENDMDL
MODEL 3
REMARK VINA RESULT:      -8.9      4.282      6.460
REMARK  Name = 
REMARK  5 active torsions:
REMARK  status: ('A' for Active; 'I' for Inactive)
REMARK    1  A    between atoms: C_2  and  C_3
REMARK    2  A    between atoms: C_7  and  S_8
REMARK    3  A    between atoms: S_8  and  N_11
REMARK    4  A    between atoms: N_11  and  C_12
REMARK    5  A    between atoms: C_15  and  C_16
REMARK                            x       y       z     vdW  Elec       q    Type
REMARK                         _______ _______ _______ _____ _____    ______ ____
ROOT
ATOM      1  C   UNL     1      -1.376  11.190  18.719  0.00  0.00    +0.000 A 
ATOM      2  C   UNL     1      -0.472  12.262  18.625  0.00  0.00    +0.000 A 
ATOM      3  C   UNL     1       0.696  12.285  19.371  0.00  0.00    +0.000 A 
ATOM      4  C   UNL     1       0.898  11.326  20.352  0.00  0.00    +0.000 A 
ATOM      5  C   UNL     1      -0.077  10.344  20.569  0.00  0.00    +0.000 A 
ATOM      6  C   UNL     1      -1.200  10.242  19.735  0.00  0.00    +0.000 A 
ENDROOT
BRANCH   1   8
ATOM      7  O   UNL     1      -2.359  10.516  16.722  0.00  0.00    +0.000 OA
ATOM      8  C   UNL     1      -2.540  11.096  17.786  0.00  0.00    +0.000 C 
ATOM      9  N   UNL     1      -3.773  11.635  18.164  0.00  0.00    +0.000 N 
ATOM     10  C   UNL     1      -4.974  11.349  17.357  0.00  0.00    +0.000 C 
ATOM     11  C   UNL     1      -6.160  10.855  18.239  0.00  0.00    +0.000 C 
ATOM     12  N   UNL     1      -6.373  11.757  19.381  0.00  0.00    +0.000 NA
ATOM     13  C   UNL     1      -7.397  11.371  20.336  0.00  0.00    +0.000 C 
ATOM     14  C   UNL     1      -7.073  12.274  21.530  0.00  0.00    +0.000 C 
ATOM     15  C   UNL     1      -5.588  12.635  21.399  0.00  0.00    +0.000 C 
ATOM     16  C   UNL     1      -5.136  11.870  20.169  0.00  0.00    +0.000 C 
ATOM     17  C   UNL     1      -4.056  12.532  19.305  0.00  0.00    +0.000 C 
ENDBRANCH   1   8
BRANCH   5  18
ATOM     18  S   UNL     1       0.171   9.221  21.925  0.00  0.00    +0.000 S 
ATOM     19  O   UNL     1       0.197   9.986  23.149  0.00  0.00    +0.000 OA
ATOM     20  O   UNL     1      -0.757   8.127  21.746  0.00  0.00    +0.000 OA
BRANCH  18  21
ATOM     21  N   UNL     1       1.713   8.587  21.614  0.00  0.00    +0.000 N 
ATOM     22  H   UNL     1       2.278   8.507  22.457  0.00  0.00    +0.000 HD
BRANCH  21  23
ATOM     23  C   UNL     1       1.829   7.553  20.647  0.00  0.00    +0.000 A 
ATOM     24  C   UNL     1       1.688   6.230  21.054  0.00  0.00    +0.000 A 
ATOM     25  C   UNL     1       1.854   5.195  20.132  0.00  0.00    +0.000 A 
ATOM     26  C   UNL     1       2.184   5.476  18.799  0.00  0.00    +0.000 A 
ATOM     27  C   UNL     1       2.339   6.816  18.405  0.00  0.00    +0.000 A 
ATOM     28  C   UNL     1       2.147   7.852  19.322  0.00  0.00    +0.000 A 
BRANCH  26  29
ATOM     29  C   UNL     1       2.364   4.365  17.791  0.00  0.00    +0.000 C 
ATOM     30  F   UNL     1       2.610   3.151  18.359  0.00  0.00    +0.000 F 
ATOM     31  F   UNL     1       1.257   4.192  17.015  0.00  0.00    +0.000 F 
ATOM     32  F   UNL     1       3.391   4.592  16.929  0.00  0.00    +0.000 F 
ENDBRANCH  26  29
ENDBRANCH  21  23
ENDBRANCH  18  21
ENDBRANCH   5  18
TORSDOF 5
ENDMDL
MODEL 4
REMARK VINA RESULT:      -8.9      5.450      9.340
REMARK  Name = 
REMARK  5 active torsions:
REMARK  status: ('A' for Active; 'I' for Inactive)
REMARK    1  A    between atoms: C_2  and  C_3
REMARK    2  A    between atoms: C_7  and  S_8
REMARK    3  A    between atoms: S_8  and  N_11
REMARK    4  A    between atoms: N_11  and  C_12
REMARK    5  A    between atoms: C_15  and  C_16
REMARK                            x       y       z     vdW  Elec       q    Type
REMARK                         _______ _______ _______ _____ _____    ______ ____
ROOT
ATOM      1  C   UNL     1       2.229   8.063  18.446  0.00  0.00    +0.000 A 
ATOM      2  C   UNL     1       1.474   8.742  17.475  0.00  0.00    +0.000 A 
ATOM      3  C   UNL     1       0.622   9.779  17.821  0.00  0.00    +0.000 A 
ATOM      4  C   UNL     1       0.377  10.042  19.160  0.00  0.00    +0.000 A 
ATOM      5  C   UNL     1       1.000   9.261  20.142  0.00  0.00    +0.000 A 
ATOM      6  C   UNL     1       1.957   8.294  19.800  0.00  0.00    +0.000 A 
ENDROOT
BRANCH   1   8
ATOM      7  O   UNL     1       4.264   7.498  17.469  0.00  0.00    +0.000 OA
ATOM      8  C   UNL     1       3.268   7.068  18.039  0.00  0.00    +0.000 C 
ATOM      9  N   UNL     1       3.085   5.716  18.343  0.00  0.00    +0.000 N 
ATOM     10  C   UNL     1       4.197   4.767  18.153  0.00  0.00    +0.000 C 
ATOM     11  C   UNL     1       4.432   3.888  19.418  0.00  0.00    +0.000 C 
ATOM     12  N   UNL     1       3.170   3.290  19.880  0.00  0.00    +0.000 NA
ATOM     13  C   UNL     1       3.227   2.511  21.105  0.00  0.00    +0.000 C 
ATOM     14  C   UNL     1       1.745   2.397  21.476  0.00  0.00    +0.000 C 
ATOM     15  C   UNL     1       1.047   3.588  20.810  0.00  0.00    +0.000 C 
ATOM     16  C   UNL     1       2.180   4.346  20.143  0.00  0.00    +0.000 C 
ATOM     17  C   UNL     1       1.852   5.057  18.825  0.00  0.00    +0.000 C 
ENDBRANCH   1   8
BRANCH   5  18
ATOM     18  S   UNL     1       0.549   9.553  21.838  0.00  0.00    +0.000 S 
ATOM     19  O   UNL     1      -0.667   8.826  22.116  0.00  0.00    +0.000 OA
ATOM     20  O   UNL     1       1.739   9.355  22.635  0.00  0.00    +0.000 OA
BRANCH  18  21
ATOM     21  N   UNL     1       0.237  11.220  21.864  0.00  0.00    +0.000 N 
ATOM     22  H   UNL     1       0.805  11.732  21.191  0.00  0.00    +0.000 HD
BRANCH  21  23
ATOM     23  C   UNL     1      -1.105  11.647  22.047  0.00  0.00    +0.000 A 
ATOM     24  C   UNL     1      -1.791  12.198  20.969  0.00  0.00    +0.000 A 
ATOM     25  C   UNL     1      -3.091  12.676  21.140  0.00  0.00    +0.000 A 
ATOM     26  C   UNL     1      -3.708  12.626  22.398  0.00  0.00    +0.000 A 
ATOM     27  C   UNL     1      -2.998  12.081  23.481  0.00  0.00    +0.000 A 
ATOM     28  C   UNL     1      -1.706  11.580  23.304  0.00  0.00    +0.000 A 
BRANCH  26  29
ATOM     29  C   UNL     1      -5.116  13.138  22.596  0.00  0.00    +0.000 C 
ATOM     30  F   UNL     1      -5.294  14.418  22.166  0.00  0.00    +0.000 F 
ATOM     31  F   UNL     1      -6.033  12.390  21.919  0.00  0.00    +0.000 F 
ATOM     32  F   UNL     1      -5.509  13.121  23.898  0.00  0.00    +0.000 F 
ENDBRANCH  26  29
ENDBRANCH  21  23
ENDBRANCH  18  21
ENDBRANCH   5  18
TORSDOF 5
ENDMDL
MODEL 5
REMARK VINA RESULT:      -8.7      5.368      9.305
REMARK  Name = 
REMARK  5 active torsions:
REMARK  status: ('A' for Active; 'I' for Inactive)
REMARK    1  A    between atoms: C_2  and  C_3
REMARK    2  A    between atoms: C_7  and  S_8
REMARK    3  A    between atoms: S_8  and  N_11
REMARK    4  A    between atoms: N_11  and  C_12
REMARK    5  A    between atoms: C_15  and  C_16
REMARK                            x       y       z     vdW  Elec       q    Type
REMARK                         _______ _______ _______ _____ _____    ______ ____
ROOT
ATOM      1  C   UNL     1       2.339   7.951  18.408  0.00  0.00    +0.000 A 
ATOM      2  C   UNL     1       1.613   8.627  17.412  0.00  0.00    +0.000 A 
ATOM      3  C   UNL     1       0.769   9.680  17.727  0.00  0.00    +0.000 A 
ATOM      4  C   UNL     1       0.501   9.965  19.058  0.00  0.00    +0.000 A 
ATOM      5  C   UNL     1       1.092   9.189  20.062  0.00  0.00    +0.000 A 
ATOM      6  C   UNL     1       2.042   8.205  19.753  0.00  0.00    +0.000 A 
ENDROOT
BRANCH   1   8
ATOM      7  O   UNL     1       4.382   7.344  17.476  0.00  0.00    +0.000 OA
ATOM      8  C   UNL     1       3.371   6.936  18.036  0.00  0.00    +0.000 C 
ATOM      9  N   UNL     1       3.165   5.592  18.359  0.00  0.00    +0.000 N 
ATOM     10  C   UNL     1       4.268   4.625  18.203  0.00  0.00    +0.000 C 
ATOM     11  C   UNL     1       4.469   3.765  19.487  0.00  0.00    +0.000 C 
ATOM     12  N   UNL     1       3.192   3.191  19.936  0.00  0.00    +0.000 NA
ATOM     13  C   UNL     1       3.217   2.431  21.174  0.00  0.00    +0.000 C 
ATOM     14  C   UNL     1       1.728   2.342  21.521  0.00  0.00    +0.000 C 
ATOM     15  C   UNL     1       1.057   3.531  20.823  0.00  0.00    +0.000 C 
ATOM     16  C   UNL     1       2.211   4.263  20.164  0.00  0.00    +0.000 C 
ATOM     17  C   UNL     1       1.915   4.956  18.829  0.00  0.00    +0.000 C 
ENDBRANCH   1   8
BRANCH   5  18
ATOM     18  S   UNL     1       0.612   9.510  21.745  0.00  0.00    +0.000 S 
ATOM     19  O   UNL     1      -0.655   8.863  21.986  0.00  0.00    +0.000 OA
ATOM     20  O   UNL     1       1.763   9.237  22.575  0.00  0.00    +0.000 OA
BRANCH  18  21
ATOM     21  N   UNL     1       0.406  11.194  21.763  0.00  0.00    +0.000 N 
ATOM     22  H   UNL     1       1.020  11.668  21.102  0.00  0.00    +0.000 HD
BRANCH  21  23
ATOM     23  C   UNL     1      -0.909  11.706  21.918  0.00  0.00    +0.000 A 
ATOM     24  C   UNL     1      -1.486  11.712  23.184  0.00  0.00    +0.000 A 
ATOM     25  C   UNL     1      -2.798  12.158  23.352  0.00  0.00    +0.000 A 
ATOM     26  C   UNL     1      -3.552  12.581  22.248  0.00  0.00    +0.000 A 
ATOM     27  C   UNL     1      -2.962  12.555  20.973  0.00  0.00    +0.000 A 
ATOM     28  C   UNL     1      -1.640  12.132  20.810  0.00  0.00    +0.000 A 
BRANCH  26  29
ATOM     29  C   UNL     1      -4.971  13.069  22.416  0.00  0.00    +0.000 C 
ATOM     30  F   UNL     1      -5.774  12.783  21.353  0.00  0.00    +0.000 F 
ATOM     31  F   UNL     1      -5.581  12.511  23.499  0.00  0.00    +0.000 F 
ATOM     32  F   UNL     1      -5.052  14.415  22.596  0.00  0.00    +0.000 F 
ENDBRANCH  26  29
ENDBRANCH  21  23
ENDBRANCH  18  21
ENDBRANCH   5  18
TORSDOF 5
ENDMDL
MODEL 6
REMARK VINA RESULT:      -8.6      5.303      9.663
REMARK  Name = 
REMARK  5 active torsions:
REMARK  status: ('A' for Active; 'I' for Inactive)
REMARK    1  A    between atoms: C_2  and  C_3
REMARK    2  A    between atoms: C_7  and  S_8
REMARK    3  A    between atoms: S_8  and  N_11
REMARK    4  A    between atoms: N_11  and  C_12
REMARK    5  A    between atoms: C_15  and  C_16
REMARK                            x       y       z     vdW  Elec       q    Type
REMARK                         _______ _______ _______ _____ _____    ______ ____
ROOT
ATOM      1  C   UNL     1       2.128   7.507  19.296  0.00  0.00    +0.000 A 
ATOM      2  C   UNL     1       2.224   7.900  17.951  0.00  0.00    +0.000 A 
ATOM      3  C   UNL     1       1.912   9.192  17.555  0.00  0.00    +0.000 A 
ATOM      4  C   UNL     1       1.334  10.063  18.465  0.00  0.00    +0.000 A 
ATOM      5  C   UNL     1       1.080   9.628  19.772  0.00  0.00    +0.000 A 
ATOM      6  C   UNL     1       1.507   8.366  20.211  0.00  0.00    +0.000 A 
ENDROOT
BRANCH   1   8
ATOM      7  O   UNL     1       2.014   5.602  20.627  0.00  0.00    +0.000 OA
ATOM      8  C   UNL     1       2.630   6.168  19.731  0.00  0.00    +0.000 C 
ATOM      9  N   UNL     1       3.743   5.609  19.097  0.00  0.00    +0.000 N 
ATOM     10  C   UNL     1       4.105   4.203  19.359  0.00  0.00    +0.000 C 
ATOM     11  C   UNL     1       4.325   3.406  18.038  0.00  0.00    +0.000 C 
ATOM     12  N   UNL     1       5.235   4.129  17.138  0.00  0.00    +0.000 NA
ATOM     13  C   UNL     1       5.465   3.539  15.830  0.00  0.00    +0.000 C 
ATOM     14  C   UNL     1       6.097   4.704  15.063  0.00  0.00    +0.000 C 
ATOM     15  C   UNL     1       5.627   5.982  15.769  0.00  0.00    +0.000 C 
ATOM     16  C   UNL     1       4.707   5.474  16.863  0.00  0.00    +0.000 C 
ATOM     17  C   UNL     1       4.685   6.274  18.171  0.00  0.00    +0.000 C 
ENDBRANCH   1   8
BRANCH   5  18
ATOM     18  S   UNL     1       0.218  10.740  20.860  0.00  0.00    +0.000 S 
ATOM     19  O   UNL     1      -0.865  10.017  21.483  0.00  0.00    +0.000 OA
ATOM     20  O   UNL     1       1.217  11.421  21.652  0.00  0.00    +0.000 OA
BRANCH  18  21
ATOM     21  N   UNL     1      -0.410  11.900  19.793  0.00  0.00    +0.000 N 
ATOM     22  H   UNL     1       0.232  12.117  19.033  0.00  0.00    +0.000 HD
BRANCH  21  23
ATOM     23  C   UNL     1      -1.795  11.847  19.486  0.00  0.00    +0.000 A 
ATOM     24  C   UNL     1      -2.215  11.093  18.393  0.00  0.00    +0.000 A 
ATOM     25  C   UNL     1      -3.564  11.071  18.038  0.00  0.00    +0.000 A 
ATOM     26  C   UNL     1      -4.503  11.821  18.761  0.00  0.00    +0.000 A 
ATOM     27  C   UNL     1      -4.062  12.589  19.852  0.00  0.00    +0.000 A 
ATOM     28  C   UNL     1      -2.716  12.591  20.223  0.00  0.00    +0.000 A 
BRANCH  26  29
ATOM     29  C   UNL     1      -5.967  11.804  18.389  0.00  0.00    +0.000 C 
ATOM     30  F   UNL     1      -6.791  12.176  19.407  0.00  0.00    +0.000 F 
ATOM     31  F   UNL     1      -6.245  12.653  17.360  0.00  0.00    +0.000 F 
ATOM     32  F   UNL     1      -6.397  10.578  17.986  0.00  0.00    +0.000 F 
ENDBRANCH  26  29
ENDBRANCH  21  23
ENDBRANCH  18  21
ENDBRANCH   5  18
TORSDOF 5
ENDMDL
MODEL 7
REMARK VINA RESULT:      -8.5      5.295      9.688
REMARK  Name = 
REMARK  5 active torsions:
REMARK  status: ('A' for Active; 'I' for Inactive)
REMARK    1  A    between atoms: C_2  and  C_3
REMARK    2  A    between atoms: C_7  and  S_8
REMARK    3  A    between atoms: S_8  and  N_11
REMARK    4  A    between atoms: N_11  and  C_12
REMARK    5  A    between atoms: C_15  and  C_16
REMARK                            x       y       z     vdW  Elec       q    Type
REMARK                         _______ _______ _______ _____ _____    ______ ____
ROOT
ATOM      1  C   UNL     1       2.065   7.563  19.295  0.00  0.00    +0.000 A 
ATOM      2  C   UNL     1       2.185   7.948  17.949  0.00  0.00    +0.000 A 
ATOM      3  C   UNL     1       1.908   9.244  17.544  0.00  0.00    +0.000 A 
ATOM      4  C   UNL     1       1.339  10.133  18.443  0.00  0.00    +0.000 A 
ATOM      5  C   UNL     1       1.060   9.709  19.749  0.00  0.00    +0.000 A 
ATOM      6  C   UNL     1       1.453   8.441  20.199  0.00  0.00    +0.000 A 
ENDROOT
BRANCH   1   8
ATOM      7  O   UNL     1       1.879   5.657  20.616  0.00  0.00    +0.000 OA
ATOM      8  C   UNL     1       2.532   6.216  19.742  0.00  0.00    +0.000 C 
ATOM      9  N   UNL     1       3.654   5.639  19.140  0.00  0.00    +0.000 N 
ATOM     10  C   UNL     1       3.985   4.227  19.410  0.00  0.00    +0.000 C 
ATOM     11  C   UNL     1       4.234   3.430  18.094  0.00  0.00    +0.000 C 
ATOM     12  N   UNL     1       5.183   4.140  17.224  0.00  0.00    +0.000 NA
ATOM     13  C   UNL     1       5.444   3.549  15.923  0.00  0.00    +0.000 C 
ATOM     14  C   UNL     1       6.118   4.706  15.179  0.00  0.00    +0.000 C 
ATOM     15  C   UNL     1       5.647   5.990  15.873  0.00  0.00    +0.000 C 
ATOM     16  C   UNL     1       4.685   5.494  16.937  0.00  0.00    +0.000 C 
ATOM     17  C   UNL     1       4.636   6.291  18.246  0.00  0.00    +0.000 C 
ENDBRANCH   1   8
BRANCH   5  18
ATOM     18  S   UNL     1       0.211  10.846  20.822  0.00  0.00    +0.000 S 
ATOM     19  O   UNL     1      -0.894  10.149  21.437  0.00  0.00    +0.000 OA
ATOM     20  O   UNL     1       1.216  11.508  21.622  0.00  0.00    +0.000 OA
BRANCH  18  21
ATOM     21  N   UNL     1      -0.379  12.014  19.743  0.00  0.00    +0.000 N 
ATOM     22  H   UNL     1       0.287  12.232  19.004  0.00  0.00    +0.000 HD
BRANCH  21  23
ATOM     23  C   UNL     1      -1.754  11.968  19.393  0.00  0.00    +0.000 A 
ATOM     24  C   UNL     1      -2.671  12.678  20.163  0.00  0.00    +0.000 A 
ATOM     25  C   UNL     1      -4.034  12.603  19.872  0.00  0.00    +0.000 A 
ATOM     26  C   UNL     1      -4.493  11.797  18.820  0.00  0.00    +0.000 A 
ATOM     27  C   UNL     1      -3.558  11.073  18.061  0.00  0.00    +0.000 A 
ATOM     28  C   UNL     1      -2.192  11.170  18.337  0.00  0.00    +0.000 A 
BRANCH  26  29
ATOM     29  C   UNL     1      -5.966  11.709  18.493  0.00  0.00    +0.000 C 
ATOM     30  F   UNL     1      -6.355  10.474  18.071  0.00  0.00    +0.000 F 
ATOM     31  F   UNL     1      -6.748  11.995  19.571  0.00  0.00    +0.000 F 
ATOM     32  F   UNL     1      -6.345  12.577  17.517  0.00  0.00    +0.000 F 
ENDBRANCH  26  29
ENDBRANCH  21  23
ENDBRANCH  18  21
ENDBRANCH   5  18
TORSDOF 5
ENDMDL
MODEL 8
REMARK VINA RESULT:      -8.5      4.368      6.460
REMARK  Name = 
REMARK  5 active torsions:
REMARK  status: ('A' for Active; 'I' for Inactive)
REMARK    1  A    between atoms: C_2  and  C_3
REMARK    2  A    between atoms: C_7  and  S_8
REMARK    3  A    between atoms: S_8  and  N_11
REMARK    4  A    between atoms: N_11  and  C_12
REMARK    5  A    between atoms: C_15  and  C_16
REMARK                            x       y       z     vdW  Elec       q    Type
REMARK                         _______ _______ _______ _____ _____    ______ ____
ROOT
ATOM      1  C   UNL     1      -1.436  11.118  18.592  0.00  0.00    +0.000 A 
ATOM      2  C   UNL     1      -0.563  12.216  18.506  0.00  0.00    +0.000 A 
ATOM      3  C   UNL     1       0.638  12.236  19.198  0.00  0.00    +0.000 A 
ATOM      4  C   UNL     1       0.909  11.241  20.124  0.00  0.00    +0.000 A 
ATOM      5  C   UNL     1      -0.032  10.225  20.340  0.00  0.00    +0.000 A 
ATOM      6  C   UNL     1      -1.189  10.130  19.554  0.00  0.00    +0.000 A 
ENDROOT
BRANCH   1   8
ATOM      7  O   UNL     1      -2.513  10.442  16.645  0.00  0.00    +0.000 OA
ATOM      8  C   UNL     1      -2.639  11.035  17.710  0.00  0.00    +0.000 C 
ATOM      9  N   UNL     1      -3.846  11.599  18.133  0.00  0.00    +0.000 N 
ATOM     10  C   UNL     1      -5.084  11.327  17.380  0.00  0.00    +0.000 C 
ATOM     11  C   UNL     1      -6.240  10.862  18.316  0.00  0.00    +0.000 C 
ATOM     12  N   UNL     1      -6.389  11.779  19.456  0.00  0.00    +0.000 NA
ATOM     13  C   UNL     1      -7.379  11.421  20.458  0.00  0.00    +0.000 C 
ATOM     14  C   UNL     1      -6.990  12.330  21.627  0.00  0.00    +0.000 C 
ATOM     15  C   UNL     1      -5.506  12.663  21.431  0.00  0.00    +0.000 C 
ATOM     16  C   UNL     1      -5.119  11.878  20.191  0.00  0.00    +0.000 C 
ATOM     17  C   UNL     1      -4.065  12.512  19.275  0.00  0.00    +0.000 C 
ENDBRANCH   1   8
BRANCH   5  18
ATOM     18  S   UNL     1       0.306   9.048  21.631  0.00  0.00    +0.000 S 
ATOM     19  O   UNL     1       0.381   9.760  22.884  0.00  0.00    +0.000 OA
ATOM     20  O   UNL     1      -0.608   7.944  21.449  0.00  0.00    +0.000 OA
BRANCH  18  21
ATOM     21  N   UNL     1       1.842   8.462  21.215  0.00  0.00    +0.000 N 
ATOM     22  H   UNL     1       2.526   8.600  21.957  0.00  0.00    +0.000 HD
BRANCH  21  23
ATOM     23  C   UNL     1       1.919   7.255  20.471  0.00  0.00    +0.000 A 
ATOM     24  C   UNL     1       2.263   7.313  19.124  0.00  0.00    +0.000 A 
ATOM     25  C   UNL     1       2.291   6.145  18.359  0.00  0.00    +0.000 A 
ATOM     26  C   UNL     1       1.951   4.911  18.933  0.00  0.00    +0.000 A 
ATOM     27  C   UNL     1       1.590   4.870  20.290  0.00  0.00    +0.000 A 
ATOM     28  C   UNL     1       1.588   6.035  21.061  0.00  0.00    +0.000 A 
BRANCH  26  29
ATOM     29  C   UNL     1       1.979   3.640  18.117  0.00  0.00    +0.000 C 
ATOM     30  F   UNL     1       2.921   2.748  18.533  0.00  0.00    +0.000 F 
ATOM     31  F   UNL     1       0.792   2.973  18.165  0.00  0.00    +0.000 F 
ATOM     32  F   UNL     1       2.228   3.862  16.798  0.00  0.00    +0.000 F 
ENDBRANCH  26  29
ENDBRANCH  21  23
ENDBRANCH  18  21
ENDBRANCH   5  18
TORSDOF 5
ENDMDL
MODEL 9
REMARK VINA RESULT:      -8.4      4.409      6.513
REMARK  Name = 
REMARK  5 active torsions:
REMARK  status: ('A' for Active; 'I' for Inactive)
REMARK    1  A    between atoms: C_2  and  C_3
REMARK    2  A    between atoms: C_7  and  S_8
REMARK    3  A    between atoms: S_8  and  N_11
REMARK    4  A    between atoms: N_11  and  C_12
REMARK    5  A    between atoms: C_15  and  C_16
REMARK                            x       y       z     vdW  Elec       q    Type
REMARK                         _______ _______ _______ _____ _____    ______ ____
ROOT
ATOM      1  C   UNL     1      -1.191  11.276  18.959  0.00  0.00    +0.000 A 
ATOM      2  C   UNL     1      -0.589  12.501  19.290  0.00  0.00    +0.000 A 
ATOM      3  C   UNL     1       0.559  12.553  20.067  0.00  0.00    +0.000 A 
ATOM      4  C   UNL     1       1.026  11.396  20.671  0.00  0.00    +0.000 A 
ATOM      5  C   UNL     1       0.336  10.191  20.482  0.00  0.00    +0.000 A 
ATOM      6  C   UNL     1      -0.750  10.110  19.598  0.00  0.00    +0.000 A 
ENDROOT
BRANCH   1   8
ATOM      7  O   UNL     1      -2.109  10.679  16.907  0.00  0.00    +0.000 OA
ATOM      8  C   UNL     1      -2.321  11.227  17.983  0.00  0.00    +0.000 C 
ATOM      9  N   UNL     1      -3.561  11.768  18.334  0.00  0.00    +0.000 N 
ATOM     10  C   UNL     1      -4.735  11.524  17.477  0.00  0.00    +0.000 C 
ATOM     11  C   UNL     1      -5.958  11.017  18.300  0.00  0.00    +0.000 C 
ATOM     12  N   UNL     1      -6.200  11.885  19.462  0.00  0.00    +0.000 NA
ATOM     13  C   UNL     1      -7.262  11.482  20.368  0.00  0.00    +0.000 C 
ATOM     14  C   UNL     1      -6.971  12.342  21.601  0.00  0.00    +0.000 C 
ATOM     15  C   UNL     1      -5.478  12.688  21.535  0.00  0.00    +0.000 C 
ATOM     16  C   UNL     1      -4.991  11.957  20.297  0.00  0.00    +0.000 C 
ATOM     17  C   UNL     1      -3.874  12.632  19.493  0.00  0.00    +0.000 C 
ENDBRANCH   1   8
BRANCH   5  18
ATOM     18  S   UNL     1       0.900   8.766  21.384  0.00  0.00    +0.000 S 
ATOM     19  O   UNL     1       1.503   9.218  22.615  0.00  0.00    +0.000 OA
ATOM     20  O   UNL     1      -0.183   7.809  21.388  0.00  0.00    +0.000 OA
BRANCH  18  21
ATOM     21  N   UNL     1       2.094   8.123  20.366  0.00  0.00    +0.000 N 
ATOM     22  H   UNL     1       3.031   8.424  20.627  0.00  0.00    +0.000 HD
BRANCH  21  23
ATOM     23  C   UNL     1       1.938   6.786  19.913  0.00  0.00    +0.000 A 
ATOM     24  C   UNL     1       1.670   5.786  20.843  0.00  0.00    +0.000 A 
ATOM     25  C   UNL     1       1.568   4.456  20.429  0.00  0.00    +0.000 A 
ATOM     26  C   UNL     1       1.757   4.115  19.082  0.00  0.00    +0.000 A 
ATOM     27  C   UNL     1       2.043   5.133  18.157  0.00  0.00    +0.000 A 
ATOM     28  C   UNL     1       2.118   6.466  18.568  0.00  0.00    +0.000 A 
BRANCH  26  29
ATOM     29  C   UNL     1       1.647   2.680  18.620  0.00  0.00    +0.000 C 
ATOM     30  F   UNL     1       2.147   2.472  17.370  0.00  0.00    +0.000 F 
ATOM     31  F   UNL     1       2.325   1.826  19.436  0.00  0.00    +0.000 F 
ATOM     32  F   UNL     1       0.364   2.229  18.592  0.00  0.00    +0.000 F 
ENDBRANCH  26  29
ENDBRANCH  21  23
ENDBRANCH  18  21
ENDBRANCH   5  18
TORSDOF 5
ENDMDL
