MODEL 1
REMARK VINA RESULT:      -7.8      0.000      0.000
REMARK  Name = 
REMARK  9 active torsions:
REMARK  status: ('A' for Active; 'I' for Inactive)
REMARK    1  A    between atoms: C_1  and  C_2
REMARK    2  A    between atoms: N_4  and  C_5
REMARK    3  A    between atoms: C_5  and  C_6
REMARK    4  A    between atoms: C_9  and  N_10
REMARK    5  A    between atoms: N_10  and  C_11
REMARK    6  A    between atoms: C_12  and  C_14
REMARK    7  A    between atoms: N_17  and  C_18
REMARK    8  A    between atoms: C_18  and  C_19
REMARK    9  A    between atoms: C_23  and  C_24
REMARK                            x       y       z     vdW  Elec       q    Type
REMARK                         _______ _______ _______ _____ _____    ______ ____
ROOT
ATOM      1  N   UNL     1       1.269  10.450  18.875  0.00  0.00    +0.000 N 
ATOM      2  C   UNL     1       2.111  11.469  18.233  0.00  0.00    +0.000 C 
ATOM      3  C   UNL     1       0.005  10.787  19.430  0.00  0.00    +0.000 C 
ATOM      4  O   UNL     1      -0.798   9.967  19.881  0.00  0.00    +0.000 OA
ENDROOT
BRANCH   1   8
ATOM      5  C   UNL     1       2.842   6.430  18.840  0.00  0.00    +0.000 A 
ATOM      6  C   UNL     1       2.218   6.940  19.982  0.00  0.00    +0.000 A 
ATOM      7  C   UNL     1       1.704   8.251  20.001  0.00  0.00    +0.000 A 
ATOM      8  C   UNL     1       1.785   9.092  18.882  0.00  0.00    +0.000 A 
ATOM      9  C   UNL     1       2.398   8.554  17.734  0.00  0.00    +0.000 A 
ATOM     10  C   UNL     1       2.916   7.252  17.712  0.00  0.00    +0.000 A 
BRANCH   5  11
ATOM     11  C   UNL     1       3.465   5.043  18.810  0.00  0.00    +0.000 C 
BRANCH  11  15
ATOM     12  C   UNL     1       0.948   3.285  20.243  0.00  0.00    +0.000 C 
ATOM     13  C   UNL     1       1.119   2.777  18.807  0.00  0.00    +0.000 C 
ATOM     14  C   UNL     1       1.582   3.864  17.782  0.00  0.00    +0.000 C 
ATOM     15  N   UNL     1       3.031   4.175  17.709  0.00  0.00    +0.000 NA
ATOM     16  C   UNL     1       3.763   2.896  17.630  0.00  0.00    +0.000 C 
ATOM     17  C   UNL     1       3.388   1.872  18.721  0.00  0.00    +0.000 C 
ATOM     18  N   UNL     1       1.955   1.564  18.774  0.00  0.00    +0.000 NA
ATOM     19  H   UNL     1       1.756   0.971  19.578  0.00  0.00    +0.000 HD
ENDBRANCH  11  15
ENDBRANCH   5  11
ENDBRANCH   1   8
BRANCH   3  20
ATOM     20  C   UNL     1      -0.329  12.297  19.567  0.00  0.00    +0.000 C 
ATOM     21  C   UNL     1       0.209  12.870  20.883  0.00  0.00    +0.000 C 
ATOM     22  C   UNL     1      -0.717  12.611  22.067  0.00  0.00    +0.000 C 
ATOM     23  N   UNL     1      -2.037  13.210  21.824  0.00  0.00    +0.000 NA
ATOM     24  C   UNL     1      -2.670  12.505  20.697  0.00  0.00    +0.000 C 
ATOM     25  C   UNL     1      -1.831  12.625  19.415  0.00  0.00    +0.000 C 
BRANCH  23  26
ATOM     26  C   UNL     1      -2.834  13.115  23.063  0.00  0.00    +0.000 C 
BRANCH  26  27
ATOM     27  C   UNL     1      -3.027  14.418  23.814  0.00  0.00    +0.000 A 
ATOM     28  C   UNL     1      -4.243  15.108  23.722  0.00  0.00    +0.000 A 
ATOM     29  C   UNL     1      -4.470  16.263  24.471  0.00  0.00    +0.000 A 
ATOM     30  C   UNL     1      -3.482  16.740  25.332  0.00  0.00    +0.000 A 
ATOM     31  C   UNL     1      -2.263  16.064  25.438  0.00  0.00    +0.000 A 
ATOM     32  C   UNL     1      -2.033  14.912  24.673  0.00  0.00    +0.000 A 
BRANCH  31  33
ATOM     33  C   UNL     1      -1.258  16.543  26.350  0.00  0.00    +0.000 C 
ATOM     34  N   UNL     1      -0.457  16.946  27.085  0.00  0.00    +0.000 NA
ENDBRANCH  31  33
ENDBRANCH  26  27
ENDBRANCH  23  26
ENDBRANCH   3  20
TORSDOF 7
ENDMDL
MODEL 2
REMARK VINA RESULT:      -7.7      1.777      2.736
REMARK  Name = 
REMARK  9 active torsions:
REMARK  status: ('A' for Active; 'I' for Inactive)
REMARK    1  A    between atoms: C_1  and  C_2
REMARK    2  A    between atoms: N_4  and  C_5
REMARK    3  A    between atoms: C_5  and  C_6
REMARK    4  A    between atoms: C_9  and  N_10
REMARK    5  A    between atoms: N_10  and  C_11
REMARK    6  A    between atoms: C_12  and  C_14
REMARK    7  A    between atoms: N_17  and  C_18
REMARK    8  A    between atoms: C_18  and  C_19
REMARK    9  A    between atoms: C_23  and  C_24
REMARK                            x       y       z     vdW  Elec       q    Type
REMARK                         _______ _______ _______ _____ _____    ______ ____
ROOT
ATOM      1  N   UNL     1       0.860  10.978  19.320  0.00  0.00    +0.000 N 
ATOM      2  C   UNL     1       1.554  11.920  18.431  0.00  0.00    +0.000 C 
ATOM      3  C   UNL     1      -0.218  11.404  20.142  0.00  0.00    +0.000 C 
ATOM      4  O   UNL     1      -0.915  10.649  20.824  0.00  0.00    +0.000 OA
ENDROOT
BRANCH   1   8
ATOM      5  C   UNL     1       2.241   6.891  19.160  0.00  0.00    +0.000 A 
ATOM      6  C   UNL     1       1.826   7.455  20.368  0.00  0.00    +0.000 A 
ATOM      7  C   UNL     1       1.374   8.788  20.429  0.00  0.00    +0.000 A 
ATOM      8  C   UNL     1       1.314   9.598  19.286  0.00  0.00    +0.000 A 
ATOM      9  C   UNL     1       1.718   9.007  18.074  0.00  0.00    +0.000 A 
ATOM     10  C   UNL     1       2.172   7.683  18.010  0.00  0.00    +0.000 A 
BRANCH   5  11
ATOM     11  C   UNL     1       2.795   5.478  19.073  0.00  0.00    +0.000 C 
BRANCH  11  15
ATOM     12  C   UNL     1       1.786   2.763  20.833  0.00  0.00    +0.000 C 
ATOM     13  C   UNL     1       1.471   2.509  19.354  0.00  0.00    +0.000 C 
ATOM     14  C   UNL     1       1.103   3.791  18.537  0.00  0.00    +0.000 C 
ATOM     15  N   UNL     1       2.215   4.631  18.025  0.00  0.00    +0.000 NA
ATOM     16  C   UNL     1       3.189   3.736  17.370  0.00  0.00    +0.000 C 
ATOM     17  C   UNL     1       3.642   2.538  18.230  0.00  0.00    +0.000 C 
ATOM     18  N   UNL     1       2.534   1.710  18.719  0.00  0.00    +0.000 NA
ATOM     19  H   UNL     1       2.886   1.005  19.365  0.00  0.00    +0.000 HD
ENDBRANCH  11  15
ENDBRANCH   5  11
ENDBRANCH   1   8
BRANCH   3  20
ATOM     20  C   UNL     1      -0.457  12.934  20.261  0.00  0.00    +0.000 C 
ATOM     21  C   UNL     1       0.237  13.511  21.501  0.00  0.00    +0.000 C 
ATOM     22  C   UNL     1      -0.583  13.336  22.775  0.00  0.00    +0.000 C 
ATOM     23  N   UNL     1      -1.887  14.002  22.640  0.00  0.00    +0.000 NA
ATOM     24  C   UNL     1      -2.663  13.304  21.602  0.00  0.00    +0.000 C 
ATOM     25  C   UNL     1      -1.947  13.342  20.243  0.00  0.00    +0.000 C 
BRANCH  23  26
ATOM     26  C   UNL     1      -2.563  13.985  23.953  0.00  0.00    +0.000 C 
BRANCH  26  27
ATOM     27  C   UNL     1      -4.066  14.181  23.913  0.00  0.00    +0.000 A 
ATOM     28  C   UNL     1      -4.603  15.471  23.793  0.00  0.00    +0.000 A 
ATOM     29  C   UNL     1      -5.979  15.665  23.669  0.00  0.00    +0.000 A 
ATOM     30  C   UNL     1      -6.839  14.567  23.655  0.00  0.00    +0.000 A 
ATOM     31  C   UNL     1      -6.321  13.274  23.773  0.00  0.00    +0.000 A 
ATOM     32  C   UNL     1      -4.939  13.083  23.912  0.00  0.00    +0.000 A 
BRANCH  31  33
ATOM     33  C   UNL     1      -7.209  12.142  23.728  0.00  0.00    +0.000 C 
ATOM     34  N   UNL     1      -7.915  11.224  23.677  0.00  0.00    +0.000 NA
ENDBRANCH  31  33
ENDBRANCH  26  27
ENDBRANCH  23  26
ENDBRANCH   3  20
TORSDOF 7
ENDMDL
MODEL 3
REMARK VINA RESULT:      -7.7      2.462      3.337
REMARK  Name = 
REMARK  9 active torsions:
REMARK  status: ('A' for Active; 'I' for Inactive)
REMARK    1  A    between atoms: C_1  and  C_2
REMARK    2  A    between atoms: N_4  and  C_5
REMARK    3  A    between atoms: C_5  and  C_6
REMARK    4  A    between atoms: C_9  and  N_10
REMARK    5  A    between atoms: N_10  and  C_11
REMARK    6  A    between atoms: C_12  and  C_14
REMARK    7  A    between atoms: N_17  and  C_18
REMARK    8  A    between atoms: C_18  and  C_19
REMARK    9  A    between atoms: C_23  and  C_24
REMARK                            x       y       z     vdW  Elec       q    Type
REMARK                         _______ _______ _______ _____ _____    ______ ____
ROOT
ATOM      1  N   UNL     1       1.234  10.485  18.862  0.00  0.00    +0.000 N 
ATOM      2  C   UNL     1       2.074  11.567  18.329  0.00  0.00    +0.000 C 
ATOM      3  C   UNL     1      -0.076  10.746  19.347  0.00  0.00    +0.000 C 
ATOM      4  O   UNL     1      -0.874   9.874  19.701  0.00  0.00    +0.000 OA
ENDROOT
BRANCH   1   8
ATOM      5  C   UNL     1       2.884   6.497  18.836  0.00  0.00    +0.000 A 
ATOM      6  C   UNL     1       3.014   7.328  17.721  0.00  0.00    +0.000 A 
ATOM      7  C   UNL     1       2.478   8.630  17.722  0.00  0.00    +0.000 A 
ATOM      8  C   UNL     1       1.803   9.149  18.836  0.00  0.00    +0.000 A 
ATOM      9  C   UNL     1       1.699   8.304  19.957  0.00  0.00    +0.000 A 
ATOM     10  C   UNL     1       2.227   7.006  19.959  0.00  0.00    +0.000 A 
BRANCH   5  11
ATOM     11  C   UNL     1       3.394   5.064  18.842  0.00  0.00    +0.000 C 
BRANCH  11  15
ATOM     12  C   UNL     1       0.916   3.268  20.299  0.00  0.00    +0.000 C 
ATOM     13  C   UNL     1       1.051   2.793  18.847  0.00  0.00    +0.000 C 
ATOM     14  C   UNL     1       1.487   3.904  17.836  0.00  0.00    +0.000 C 
ATOM     15  N   UNL     1       2.933   4.221  17.733  0.00  0.00    +0.000 NA
ATOM     16  C   UNL     1       3.664   2.945  17.606  0.00  0.00    +0.000 C 
ATOM     17  C   UNL     1       3.319   1.896  18.683  0.00  0.00    +0.000 C 
ATOM     18  N   UNL     1       1.888   1.583  18.765  0.00  0.00    +0.000 NA
ATOM     19  H   UNL     1       1.711   0.971  19.560  0.00  0.00    +0.000 HD
ENDBRANCH  11  15
ENDBRANCH   5  11
ENDBRANCH   1   8
BRANCH   3  20
ATOM     20  C   UNL     1      -0.480  12.233  19.535  0.00  0.00    +0.000 C 
ATOM     21  C   UNL     1      -0.430  12.641  21.012  0.00  0.00    +0.000 C 
ATOM     22  C   UNL     1      -1.691  12.256  21.778  0.00  0.00    +0.000 C 
ATOM     23  N   UNL     1      -2.870  12.895  21.176  0.00  0.00    +0.000 NA
ATOM     24  C   UNL     1      -3.069  12.335  19.829  0.00  0.00    +0.000 C 
ATOM     25  C   UNL     1      -1.853  12.595  18.926  0.00  0.00    +0.000 C 
BRANCH  23  26
ATOM     26  C   UNL     1      -4.033  12.665  22.057  0.00  0.00    +0.000 C 
BRANCH  26  27
ATOM     27  C   UNL     1      -5.364  13.149  21.517  0.00  0.00    +0.000 A 
ATOM     28  C   UNL     1      -6.396  12.232  21.267  0.00  0.00    +0.000 A 
ATOM     29  C   UNL     1      -7.654  12.666  20.852  0.00  0.00    +0.000 A 
ATOM     30  C   UNL     1      -7.902  14.029  20.687  0.00  0.00    +0.000 A 
ATOM     31  C   UNL     1      -6.886  14.957  20.932  0.00  0.00    +0.000 A 
ATOM     32  C   UNL     1      -5.618  14.517  21.336  0.00  0.00    +0.000 A 
BRANCH  31  33
ATOM     33  C   UNL     1      -7.155  16.364  20.790  0.00  0.00    +0.000 C 
ATOM     34  N   UNL     1      -7.355  17.500  20.667  0.00  0.00    +0.000 NA
ENDBRANCH  31  33
ENDBRANCH  26  27
ENDBRANCH  23  26
ENDBRANCH   3  20
TORSDOF 7
ENDMDL
MODEL 4
REMARK VINA RESULT:      -7.7      2.601      4.532
REMARK  Name = 
REMARK  9 active torsions:
REMARK  status: ('A' for Active; 'I' for Inactive)
REMARK    1  A    between atoms: C_1  and  C_2
REMARK    2  A    between atoms: N_4  and  C_5
REMARK    3  A    between atoms: C_5  and  C_6
REMARK    4  A    between atoms: C_9  and  N_10
REMARK    5  A    between atoms: N_10  and  C_11
REMARK    6  A    between atoms: C_12  and  C_14
REMARK    7  A    between atoms: N_17  and  C_18
REMARK    8  A    between atoms: C_18  and  C_19
REMARK    9  A    between atoms: C_23  and  C_24
REMARK                            x       y       z     vdW  Elec       q    Type
REMARK                         _______ _______ _______ _____ _____    ______ ____
ROOT
ATOM      1  N   UNL     1       0.905  10.628  19.693  0.00  0.00    +0.000 N 
ATOM      2  C   UNL     1       1.472  11.725  18.896  0.00  0.00    +0.000 C 
ATOM      3  C   UNL     1      -0.171  10.855  20.593  0.00  0.00    +0.000 C 
ATOM      4  O   UNL     1      -0.766   9.965  21.206  0.00  0.00    +0.000 OA
ENDROOT
BRANCH   1   8
ATOM      5  C   UNL     1       2.582   6.690  19.129  0.00  0.00    +0.000 A 
ATOM      6  C   UNL     1       2.569   7.615  18.082  0.00  0.00    +0.000 A 
ATOM      7  C   UNL     1       2.023   8.901  18.258  0.00  0.00    +0.000 A 
ATOM      8  C   UNL     1       1.481   9.310  19.485  0.00  0.00    +0.000 A 
ATOM      9  C   UNL     1       1.521   8.373  20.534  0.00  0.00    +0.000 A 
ATOM     10  C   UNL     1       2.059   7.090  20.362  0.00  0.00    +0.000 A 
BRANCH   5  11
ATOM     11  C   UNL     1       3.104   5.273  18.951  0.00  0.00    +0.000 C 
BRANCH  11  15
ATOM     12  C   UNL     1       1.082   2.848  20.182  0.00  0.00    +0.000 C 
ATOM     13  C   UNL     1       1.146   2.680  18.659  0.00  0.00    +0.000 C 
ATOM     14  C   UNL     1       1.307   4.016  17.862  0.00  0.00    +0.000 C 
ATOM     15  N   UNL     1       2.671   4.585  17.729  0.00  0.00    +0.000 NA
ATOM     16  C   UNL     1       3.572   3.496  17.304  0.00  0.00    +0.000 C 
ATOM     17  C   UNL     1       3.497   2.223  18.171  0.00  0.00    +0.000 C 
ATOM     18  N   UNL     1       2.145   1.664  18.283  0.00  0.00    +0.000 NA
ATOM     19  H   UNL     1       2.142   0.894  18.951  0.00  0.00    +0.000 HD
ENDBRANCH  11  15
ENDBRANCH   5  11
ENDBRANCH   1   8
BRANCH   3  20
ATOM     20  C   UNL     1      -0.542  12.332  20.896  0.00  0.00    +0.000 C 
ATOM     21  C   UNL     1      -1.215  12.467  22.267  0.00  0.00    +0.000 C 
ATOM     22  C   UNL     1      -2.707  12.155  22.230  0.00  0.00    +0.000 C 
ATOM     23  N   UNL     1      -3.396  13.061  21.300  0.00  0.00    +0.000 NA
ATOM     24  C   UNL     1      -2.924  12.779  19.935  0.00  0.00    +0.000 C 
ATOM     25  C   UNL     1      -1.409  13.000  19.806  0.00  0.00    +0.000 C 
BRANCH  23  26
ATOM     26  C   UNL     1      -4.853  12.864  21.442  0.00  0.00    +0.000 C 
BRANCH  26  27
ATOM     27  C   UNL     1      -5.595  12.549  20.158  0.00  0.00    +0.000 A 
ATOM     28  C   UNL     1      -6.190  11.291  19.982  0.00  0.00    +0.000 A 
ATOM     29  C   UNL     1      -6.948  11.011  18.845  0.00  0.00    +0.000 A 
ATOM     30  C   UNL     1      -7.130  11.992  17.870  0.00  0.00    +0.000 A 
ATOM     31  C   UNL     1      -6.545  13.251  18.029  0.00  0.00    +0.000 A 
ATOM     32  C   UNL     1      -5.772  13.525  19.166  0.00  0.00    +0.000 A 
BRANCH  31  33
ATOM     33  C   UNL     1      -6.760  14.269  17.035  0.00  0.00    +0.000 C 
ATOM     34  N   UNL     1      -6.949  15.080  16.227  0.00  0.00    +0.000 NA
ENDBRANCH  31  33
ENDBRANCH  26  27
ENDBRANCH  23  26
ENDBRANCH   3  20
TORSDOF 7
ENDMDL
MODEL 5
REMARK VINA RESULT:      -7.6      1.947      2.816
REMARK  Name = 
REMARK  9 active torsions:
REMARK  status: ('A' for Active; 'I' for Inactive)
REMARK    1  A    between atoms: C_1  and  C_2
REMARK    2  A    between atoms: N_4  and  C_5
REMARK    3  A    between atoms: C_5  and  C_6
REMARK    4  A    between atoms: C_9  and  N_10
REMARK    5  A    between atoms: N_10  and  C_11
REMARK    6  A    between atoms: C_12  and  C_14
REMARK    7  A    between atoms: N_17  and  C_18
REMARK    8  A    between atoms: C_18  and  C_19
REMARK    9  A    between atoms: C_23  and  C_24
REMARK                            x       y       z     vdW  Elec       q    Type
REMARK                         _______ _______ _______ _____ _____    ______ ____
ROOT
ATOM      1  N   UNL     1       0.805  10.819  19.594  0.00  0.00    +0.000 N 
ATOM      2  C   UNL     1       1.679  11.934  19.203  0.00  0.00    +0.000 C 
ATOM      3  C   UNL     1      -0.487  11.056  20.135  0.00  0.00    +0.000 C 
ATOM      4  O   UNL     1      -1.313  10.172  20.378  0.00  0.00    +0.000 OA
ENDROOT
BRANCH   1   8
ATOM      5  C   UNL     1       2.312   6.820  18.983  0.00  0.00    +0.000 A 
ATOM      6  C   UNL     1       2.208   7.713  17.913  0.00  0.00    +0.000 A 
ATOM      7  C   UNL     1       1.716   9.019  18.105  0.00  0.00    +0.000 A 
ATOM      8  C   UNL     1       1.322   9.480  19.369  0.00  0.00    +0.000 A 
ATOM      9  C   UNL     1       1.453   8.574  20.438  0.00  0.00    +0.000 A 
ATOM     10  C   UNL     1       1.937   7.272  20.251  0.00  0.00    +0.000 A 
BRANCH   5  11
ATOM     11  C   UNL     1       2.776   5.384  18.797  0.00  0.00    +0.000 C 
BRANCH  11  15
ATOM     12  C   UNL     1       3.861   2.413  17.581  0.00  0.00    +0.000 C 
ATOM     13  C   UNL     1       3.268   2.164  18.973  0.00  0.00    +0.000 C 
ATOM     14  C   UNL     1       3.448   3.348  19.979  0.00  0.00    +0.000 C 
ATOM     15  N   UNL     1       2.481   4.472  19.908  0.00  0.00    +0.000 NA
ATOM     16  C   UNL     1       1.123   3.895  19.864  0.00  0.00    +0.000 C 
ATOM     17  C   UNL     1       0.919   2.812  18.785  0.00  0.00    +0.000 C 
ATOM     18  N   UNL     1       1.873   1.701  18.875  0.00  0.00    +0.000 NA
ATOM     19  H   UNL     1       1.758   1.078  18.077  0.00  0.00    +0.000 HD
ENDBRANCH  11  15
ENDBRANCH   5  11
ENDBRANCH   1   8
BRANCH   3  20
ATOM     20  C   UNL     1      -0.831  12.515  20.539  0.00  0.00    +0.000 C 
ATOM     21  C   UNL     1      -0.419  12.803  21.988  0.00  0.00    +0.000 C 
ATOM     22  C   UNL     1      -1.454  12.333  23.004  0.00  0.00    +0.000 C 
ATOM     23  N   UNL     1      -2.744  12.996  22.765  0.00  0.00    +0.000 NA
ATOM     24  C   UNL     1      -3.268  12.543  21.466  0.00  0.00    +0.000 C 
ATOM     25  C   UNL     1      -2.311  12.897  20.317  0.00  0.00    +0.000 C 
BRANCH  23  26
ATOM     26  C   UNL     1      -3.654  12.673  23.881  0.00  0.00    +0.000 C 
BRANCH  26  27
ATOM     27  C   UNL     1      -4.995  13.381  23.853  0.00  0.00    +0.000 A 
ATOM     28  C   UNL     1      -6.176  12.656  24.068  0.00  0.00    +0.000 A 
ATOM     29  C   UNL     1      -7.411  13.302  24.131  0.00  0.00    +0.000 A 
ATOM     30  C   UNL     1      -7.480  14.688  23.986  0.00  0.00    +0.000 A 
ATOM     31  C   UNL     1      -6.313  15.427  23.771  0.00  0.00    +0.000 A 
ATOM     32  C   UNL     1      -5.076  14.773  23.695  0.00  0.00    +0.000 A 
BRANCH  31  33
ATOM     33  C   UNL     1      -6.387  16.859  23.653  0.00  0.00    +0.000 C 
ATOM     34  N   UNL     1      -6.451  18.014  23.576  0.00  0.00    +0.000 NA
ENDBRANCH  31  33
ENDBRANCH  26  27
ENDBRANCH  23  26
ENDBRANCH   3  20
TORSDOF 7
ENDMDL
MODEL 6
REMARK VINA RESULT:      -7.6      2.517      3.443
REMARK  Name = 
REMARK  9 active torsions:
REMARK  status: ('A' for Active; 'I' for Inactive)
REMARK    1  A    between atoms: C_1  and  C_2
REMARK    2  A    between atoms: N_4  and  C_5
REMARK    3  A    between atoms: C_5  and  C_6
REMARK    4  A    between atoms: C_9  and  N_10
REMARK    5  A    between atoms: N_10  and  C_11
REMARK    6  A    between atoms: C_12  and  C_14
REMARK    7  A    between atoms: N_17  and  C_18
REMARK    8  A    between atoms: C_18  and  C_19
REMARK    9  A    between atoms: C_23  and  C_24
REMARK                            x       y       z     vdW  Elec       q    Type
REMARK                         _______ _______ _______ _____ _____    ______ ____
ROOT
ATOM      1  N   UNL     1       1.225  10.373  19.049  0.00  0.00    +0.000 N 
ATOM      2  C   UNL     1       2.034  11.422  18.412  0.00  0.00    +0.000 C 
ATOM      3  C   UNL     1      -0.031  10.675  19.641  0.00  0.00    +0.000 C 
ATOM      4  O   UNL     1      -0.810   9.830  20.090  0.00  0.00    +0.000 OA
ENDROOT
BRANCH   1   8
ATOM      5  C   UNL     1       2.867   6.385  18.881  0.00  0.00    +0.000 A 
ATOM      6  C   UNL     1       2.229   6.844  20.036  0.00  0.00    +0.000 A 
ATOM      7  C   UNL     1       1.692   8.144  20.099  0.00  0.00    +0.000 A 
ATOM      8  C   UNL     1       1.764   9.025  19.010  0.00  0.00    +0.000 A 
ATOM      9  C   UNL     1       2.392   8.538  17.848  0.00  0.00    +0.000 A 
ATOM     10  C   UNL     1       2.932   7.247  17.783  0.00  0.00    +0.000 A 
BRANCH   5  11
ATOM     11  C   UNL     1       3.514   5.011  18.806  0.00  0.00    +0.000 C 
BRANCH  11  15
ATOM     12  C   UNL     1       0.967   3.320  20.268  0.00  0.00    +0.000 C 
ATOM     13  C   UNL     1       1.114   2.801  18.832  0.00  0.00    +0.000 C 
ATOM     14  C   UNL     1       1.595   3.872  17.799  0.00  0.00    +0.000 C 
ATOM     15  N   UNL     1       3.050   4.149  17.712  0.00  0.00    +0.000 NA
ATOM     16  C   UNL     1       3.750   2.852  17.634  0.00  0.00    +0.000 C 
ATOM     17  C   UNL     1       3.360   1.842  18.732  0.00  0.00    +0.000 C 
ATOM     18  N   UNL     1       1.920   1.568  18.798  0.00  0.00    +0.000 NA
ATOM     19  H   UNL     1       1.714   0.984  19.607  0.00  0.00    +0.000 HD
ENDBRANCH  11  15
ENDBRANCH   5  11
ENDBRANCH   1   8
BRANCH   3  20
ATOM     20  C   UNL     1      -0.389  12.175  19.821  0.00  0.00    +0.000 C 
ATOM     21  C   UNL     1      -0.489  12.548  21.305  0.00  0.00    +0.000 C 
ATOM     22  C   UNL     1      -1.844  12.206  21.914  0.00  0.00    +0.000 C 
ATOM     23  N   UNL     1      -2.919  12.911  21.200  0.00  0.00    +0.000 NA
ATOM     24  C   UNL     1      -2.988  12.390  19.825  0.00  0.00    +0.000 C 
ATOM     25  C   UNL     1      -1.667  12.612  19.071  0.00  0.00    +0.000 C 
BRANCH  23  26
ATOM     26  C   UNL     1      -4.182  12.716  21.938  0.00  0.00    +0.000 C 
BRANCH  26  27
ATOM     27  C   UNL     1      -5.426  13.247  21.251  0.00  0.00    +0.000 A 
ATOM     28  C   UNL     1      -6.661  12.614  21.449  0.00  0.00    +0.000 A 
ATOM     29  C   UNL     1      -7.830  13.137  20.894  0.00  0.00    +0.000 A 
ATOM     30  C   UNL     1      -7.779  14.308  20.138  0.00  0.00    +0.000 A 
ATOM     31  C   UNL     1      -6.556  14.952  19.931  0.00  0.00    +0.000 A 
ATOM     32  C   UNL     1      -5.382  14.417  20.478  0.00  0.00    +0.000 A 
BRANCH  31  33
ATOM     33  C   UNL     1      -6.514  16.176  19.176  0.00  0.00    +0.000 C 
ATOM     34  N   UNL     1      -6.467  17.170  18.579  0.00  0.00    +0.000 NA
ENDBRANCH  31  33
ENDBRANCH  26  27
ENDBRANCH  23  26
ENDBRANCH   3  20
TORSDOF 7
ENDMDL
MODEL 7
REMARK VINA RESULT:      -7.5      2.916      5.191
REMARK  Name = 
REMARK  9 active torsions:
REMARK  status: ('A' for Active; 'I' for Inactive)
REMARK    1  A    between atoms: C_1  and  C_2
REMARK    2  A    between atoms: N_4  and  C_5
REMARK    3  A    between atoms: C_5  and  C_6
REMARK    4  A    between atoms: C_9  and  N_10
REMARK    5  A    between atoms: N_10  and  C_11
REMARK    6  A    between atoms: C_12  and  C_14
REMARK    7  A    between atoms: N_17  and  C_18
REMARK    8  A    between atoms: C_18  and  C_19
REMARK    9  A    between atoms: C_23  and  C_24
REMARK                            x       y       z     vdW  Elec       q    Type
REMARK                         _______ _______ _______ _____ _____    ______ ____
ROOT
ATOM      1  N   UNL     1      -0.212  10.419  19.851  0.00  0.00    +0.000 N 
ATOM      2  C   UNL     1      -1.465  10.418  19.082  0.00  0.00    +0.000 C 
ATOM      3  C   UNL     1       0.039  11.406  20.841  0.00  0.00    +0.000 C 
ATOM      4  O   UNL     1       1.012  11.401  21.598  0.00  0.00    +0.000 OA
ENDROOT
BRANCH   1   8
ATOM      5  C   UNL     1       2.551   7.201  19.051  0.00  0.00    +0.000 A 
ATOM      6  C   UNL     1       2.244   8.137  18.061  0.00  0.00    +0.000 A 
ATOM      7  C   UNL     1       1.342   9.189  18.314  0.00  0.00    +0.000 A 
ATOM      8  C   UNL     1       0.726   9.348  19.564  0.00  0.00    +0.000 A 
ATOM      9  C   UNL     1       1.064   8.407  20.555  0.00  0.00    +0.000 A 
ATOM     10  C   UNL     1       1.956   7.356  20.306  0.00  0.00    +0.000 A 
BRANCH   5  11
ATOM     11  C   UNL     1       3.469   6.017  18.789  0.00  0.00    +0.000 C 
BRANCH  11  15
ATOM     12  C   UNL     1       1.380   3.791  20.261  0.00  0.00    +0.000 C 
ATOM     13  C   UNL     1       1.515   3.404  18.783  0.00  0.00    +0.000 C 
ATOM     14  C   UNL     1       1.719   4.611  17.810  0.00  0.00    +0.000 C 
ATOM     15  N   UNL     1       3.091   5.158  17.660  0.00  0.00    +0.000 NA
ATOM     16  C   UNL     1       4.006   4.021  17.440  0.00  0.00    +0.000 C 
ATOM     17  C   UNL     1       3.884   2.887  18.478  0.00  0.00    +0.000 C 
ATOM     18  N   UNL     1       2.526   2.347  18.606  0.00  0.00    +0.000 NA
ATOM     19  H   UNL     1       2.487   1.682  19.377  0.00  0.00    +0.000 HD
ENDBRANCH  11  15
ENDBRANCH   5  11
ENDBRANCH   1   8
BRANCH   3  20
ATOM     20  C   UNL     1      -0.928  12.620  20.893  0.00  0.00    +0.000 C 
ATOM     21  C   UNL     1      -0.837  13.460  19.614  0.00  0.00    +0.000 C 
ATOM     22  C   UNL     1       0.323  14.449  19.633  0.00  0.00    +0.000 C 
ATOM     23  N   UNL     1       0.188  15.374  20.768  0.00  0.00    +0.000 NA
ATOM     24  C   UNL     1       0.333  14.608  22.016  0.00  0.00    +0.000 C 
ATOM     25  C   UNL     1      -0.744  13.518  22.137  0.00  0.00    +0.000 C 
BRANCH  23  26
ATOM     26  C   UNL     1       1.208  16.433  20.637  0.00  0.00    +0.000 C 
BRANCH  26  27
ATOM     27  C   UNL     1       1.969  16.446  19.325  0.00  0.00    +0.000 A 
ATOM     28  C   UNL     1       1.547  17.275  18.277  0.00  0.00    +0.000 A 
ATOM     29  C   UNL     1       2.282  17.364  17.095  0.00  0.00    +0.000 A 
ATOM     30  C   UNL     1       3.458  16.628  16.948  0.00  0.00    +0.000 A 
ATOM     31  C   UNL     1       3.894  15.796  17.983  0.00  0.00    +0.000 A 
ATOM     32  C   UNL     1       3.146  15.698  19.164  0.00  0.00    +0.000 A 
BRANCH  31  33
ATOM     33  C   UNL     1       5.123  15.062  17.838  0.00  0.00    +0.000 C 
ATOM     34  N   UNL     1       6.121  14.485  17.713  0.00  0.00    +0.000 NA
ENDBRANCH  31  33
ENDBRANCH  26  27
ENDBRANCH  23  26
ENDBRANCH   3  20
TORSDOF 7
ENDMDL
MODEL 8
REMARK VINA RESULT:      -7.4      1.855      2.366
REMARK  Name = 
REMARK  9 active torsions:
REMARK  status: ('A' for Active; 'I' for Inactive)
REMARK    1  A    between atoms: C_1  and  C_2
REMARK    2  A    between atoms: N_4  and  C_5
REMARK    3  A    between atoms: C_5  and  C_6
REMARK    4  A    between atoms: C_9  and  N_10
REMARK    5  A    between atoms: N_10  and  C_11
REMARK    6  A    between atoms: C_12  and  C_14
REMARK    7  A    between atoms: N_17  and  C_18
REMARK    8  A    between atoms: C_18  and  C_19
REMARK    9  A    between atoms: C_23  and  C_24
REMARK                            x       y       z     vdW  Elec       q    Type
REMARK                         _______ _______ _______ _____ _____    ______ ____
ROOT
ATOM      1  N   UNL     1       0.829  10.405  19.879  0.00  0.00    +0.000 N 
ATOM      2  C   UNL     1       1.212  11.471  18.943  0.00  0.00    +0.000 C 
ATOM      3  C   UNL     1      -0.094  10.650  20.931  0.00  0.00    +0.000 C 
ATOM      4  O   UNL     1      -0.544   9.779  21.680  0.00  0.00    +0.000 OA
ENDROOT
BRANCH   1   8
ATOM      5  C   UNL     1       2.613   6.544  19.141  0.00  0.00    +0.000 A 
ATOM      6  C   UNL     1       2.077   6.852  20.393  0.00  0.00    +0.000 A 
ATOM      7  C   UNL     1       1.495   8.110  20.642  0.00  0.00    +0.000 A 
ATOM      8  C   UNL     1       1.418   9.097  19.649  0.00  0.00    +0.000 A 
ATOM      9  C   UNL     1       1.944   8.761  18.387  0.00  0.00    +0.000 A 
ATOM     10  C   UNL     1       2.529   7.512  18.136  0.00  0.00    +0.000 A 
BRANCH   5  11
ATOM     11  C   UNL     1       3.307   5.220  18.861  0.00  0.00    +0.000 C 
BRANCH  11  15
ATOM     12  C   UNL     1       1.064   3.124  20.296  0.00  0.00    +0.000 C 
ATOM     13  C   UNL     1       1.104   2.814  18.794  0.00  0.00    +0.000 C 
ATOM     14  C   UNL     1       1.391   4.052  17.882  0.00  0.00    +0.000 C 
ATOM     15  N   UNL     1       2.803   4.471  17.704  0.00  0.00    +0.000 NA
ATOM     16  C   UNL     1       3.592   3.266  17.381  0.00  0.00    +0.000 C 
ATOM     17  C   UNL     1       3.397   2.088  18.358  0.00  0.00    +0.000 C 
ATOM     18  N   UNL     1       1.997   1.677  18.515  0.00  0.00    +0.000 NA
ATOM     19  H   UNL     1       1.922   0.974  19.249  0.00  0.00    +0.000 HD
ENDBRANCH  11  15
ENDBRANCH   5  11
ENDBRANCH   1   8
BRANCH   3  20
ATOM     20  C   UNL     1      -0.473  12.129  21.213  0.00  0.00    +0.000 C 
ATOM     21  C   UNL     1      -1.401  12.245  22.428  0.00  0.00    +0.000 C 
ATOM     22  C   UNL     1      -2.864  11.990  22.084  0.00  0.00    +0.000 C 
ATOM     23  N   UNL     1      -3.327  12.951  21.072  0.00  0.00    +0.000 NA
ATOM     24  C   UNL     1      -2.601  12.696  19.817  0.00  0.00    +0.000 C 
ATOM     25  C   UNL     1      -1.085  12.864  19.999  0.00  0.00    +0.000 C 
BRANCH  23  26
ATOM     26  C   UNL     1      -4.788  12.805  20.916  0.00  0.00    +0.000 C 
BRANCH  26  27
ATOM     27  C   UNL     1      -5.625  13.419  22.021  0.00  0.00    +0.000 A 
ATOM     28  C   UNL     1      -6.720  12.717  22.545  0.00  0.00    +0.000 A 
ATOM     29  C   UNL     1      -7.450  13.228  23.618  0.00  0.00    +0.000 A 
ATOM     30  C   UNL     1      -7.089  14.448  24.190  0.00  0.00    +0.000 A 
ATOM     31  C   UNL     1      -6.000  15.161  23.680  0.00  0.00    +0.000 A 
ATOM     32  C   UNL     1      -5.277  14.652  22.593  0.00  0.00    +0.000 A 
BRANCH  31  33
ATOM     33  C   UNL     1      -5.613  16.405  24.292  0.00  0.00    +0.000 C 
ATOM     34  N   UNL     1      -5.283  17.400  24.787  0.00  0.00    +0.000 NA
ENDBRANCH  31  33
ENDBRANCH  26  27
ENDBRANCH  23  26
ENDBRANCH   3  20
TORSDOF 7
ENDMDL
MODEL 9
REMARK VINA RESULT:      -7.3      1.865      3.002
REMARK  Name = 
REMARK  9 active torsions:
REMARK  status: ('A' for Active; 'I' for Inactive)
REMARK    1  A    between atoms: C_1  and  C_2
REMARK    2  A    between atoms: N_4  and  C_5
REMARK    3  A    between atoms: C_5  and  C_6
REMARK    4  A    between atoms: C_9  and  N_10
REMARK    5  A    between atoms: N_10  and  C_11
REMARK    6  A    between atoms: C_12  and  C_14
REMARK    7  A    between atoms: N_17  and  C_18
REMARK    8  A    between atoms: C_18  and  C_19
REMARK    9  A    between atoms: C_23  and  C_24
REMARK                            x       y       z     vdW  Elec       q    Type
REMARK                         _______ _______ _______ _____ _____    ______ ____
ROOT
ATOM      1  N   UNL     1       0.979  11.137  19.201  0.00  0.00    +0.000 N 
ATOM      2  C   UNL     1       1.704  12.102  18.362  0.00  0.00    +0.000 C 
ATOM      3  C   UNL     1      -0.096  11.553  20.033  0.00  0.00    +0.000 C 
ATOM      4  O   UNL     1      -0.817  10.784  20.673  0.00  0.00    +0.000 OA
ENDROOT
BRANCH   1   8
ATOM      5  C   UNL     1       2.197   7.002  18.979  0.00  0.00    +0.000 A 
ATOM      6  C   UNL     1       2.173   7.800  17.832  0.00  0.00    +0.000 A 
ATOM      7  C   UNL     1       1.776   9.150  17.897  0.00  0.00    +0.000 A 
ATOM      8  C   UNL     1       1.399   9.750  19.106  0.00  0.00    +0.000 A 
ATOM      9  C   UNL     1       1.449   8.937  20.254  0.00  0.00    +0.000 A 
ATOM     10  C   UNL     1       1.839   7.592  20.194  0.00  0.00    +0.000 A 
BRANCH   5  11
ATOM     11  C   UNL     1       2.558   5.526  18.931  0.00  0.00    +0.000 C 
BRANCH  11  15
ATOM     12  C   UNL     1       2.103   2.289  18.037  0.00  0.00    +0.000 C 
ATOM     13  C   UNL     1       3.524   2.696  17.627  0.00  0.00    +0.000 C 
ATOM     14  C   UNL     1       3.677   4.195  17.207  0.00  0.00    +0.000 C 
ATOM     15  N   UNL     1       3.835   5.204  18.284  0.00  0.00    +0.000 NA
ATOM     16  C   UNL     1       4.870   4.711  19.213  0.00  0.00    +0.000 C 
ATOM     17  C   UNL     1       4.647   3.272  19.720  0.00  0.00    +0.000 C 
ATOM     18  N   UNL     1       4.505   2.283  18.646  0.00  0.00    +0.000 NA
ATOM     19  H   UNL     1       4.253   1.377  19.039  0.00  0.00    +0.000 HD
ENDBRANCH  11  15
ENDBRANCH   5  11
ENDBRANCH   1   8
BRANCH   3  20
ATOM     20  C   UNL     1      -0.297  13.081  20.222  0.00  0.00    +0.000 C 
ATOM     21  C   UNL     1       0.375  13.577  21.507  0.00  0.00    +0.000 C 
ATOM     22  C   UNL     1      -0.485  13.363  22.748  0.00  0.00    +0.000 C 
ATOM     23  N   UNL     1      -1.766  14.070  22.611  0.00  0.00    +0.000 NA
ATOM     24  C   UNL     1      -2.530  13.446  21.518  0.00  0.00    +0.000 C 
ATOM     25  C   UNL     1      -1.775  13.530  20.183  0.00  0.00    +0.000 C 
BRANCH  23  26
ATOM     26  C   UNL     1      -2.480  14.008  23.902  0.00  0.00    +0.000 C 
BRANCH  26  27
ATOM     27  C   UNL     1      -3.975  14.248  23.831  0.00  0.00    +0.000 A 
ATOM     28  C   UNL     1      -4.469  15.543  23.614  0.00  0.00    +0.000 A 
ATOM     29  C   UNL     1      -5.836  15.771  23.461  0.00  0.00    +0.000 A 
ATOM     30  C   UNL     1      -6.732  14.703  23.515  0.00  0.00    +0.000 A 
ATOM     31  C   UNL     1      -6.258  13.406  23.730  0.00  0.00    +0.000 A 
ATOM     32  C   UNL     1      -4.884  13.181  23.897  0.00  0.00    +0.000 A 
BRANCH  31  33
ATOM     33  C   UNL     1      -7.182  12.304  23.754  0.00  0.00    +0.000 C 
ATOM     34  N   UNL     1      -7.913  11.403  23.774  0.00  0.00    +0.000 NA
ENDBRANCH  31  33
ENDBRANCH  26  27
ENDBRANCH  23  26
ENDBRANCH   3  20
TORSDOF 7
ENDMDL
