MODEL 1
REMARK VINA RESULT:      -7.5      0.000      0.000
REMARK  Name = 
REMARK  14 active torsions:
REMARK  status: ('A' for Active; 'I' for Inactive)
REMARK    1  A    between atoms: C_1  and  O_2
REMARK    2  A    between atoms: O_2  and  C_3
REMARK    3  A    between atoms: C_3  and  C_5
REMARK    4  A    between atoms: C_7  and  C_8
REMARK    5  A    between atoms: C_8  and  O_9
REMARK    6  A    between atoms: C_8  and  C_10
REMARK    7  A    between atoms: C_10  and  N_11
REMARK    8  A    between atoms: N_11  and  C_12
REMARK    9  A    between atoms: C_12  and  C_13
REMARK   10  A    between atoms: C_12  and  C_14
REMARK   11  A    between atoms: C_12  and  C_15
REMARK   12  A    between atoms: C_15  and  C_16
REMARK   13  A    between atoms: C_16  and  C_17
REMARK   14  A    between atoms: C_28  and  O_29
REMARK                            x       y       z     vdW  Elec       q    Type
REMARK                         _______ _______ _______ _____ _____    ______ ____
ROOT
ATOM      1  C   UNL     1       1.654   3.275  18.113  0.00  0.00    +0.000 C 
ENDROOT
BRANCH   1   2
ATOM      2  N   UNL     1       1.448   2.515  19.372  0.00  0.00    +0.000 NA
ATOM      3  H   UNL     1       2.016   1.632  19.356  0.00  0.00    +0.000 HD
BRANCH   2   4
ATOM      4  C   UNL     1       1.801   3.305  20.589  0.00  0.00    +0.000 C 
ATOM      5  C   UNL     1       1.230   2.615  21.859  0.00  0.00    +0.000 C 
ATOM      6  C   UNL     1       3.343   3.405  20.766  0.00  0.00    +0.000 C 
BRANCH   4   7
ATOM      7  C   UNL     1       1.209   4.739  20.478  0.00  0.00    +0.000 C 
BRANCH   7   8
ATOM      8  C   UNL     1       2.231   5.840  20.824  0.00  0.00    +0.000 C 
BRANCH   8   9
ATOM      9  C   UNL     1       1.628   7.186  20.636  0.00  0.00    +0.000 A 
ATOM     10  C   UNL     1       0.749   7.739  21.603  0.00  0.00    +0.000 A 
ATOM     11  C   UNL     1       0.176   9.003  21.399  0.00  0.00    +0.000 A 
ATOM     12  C   UNL     1       0.505   9.687  20.227  0.00  0.00    +0.000 A 
ATOM     13  C   UNL     1       1.353   9.164  19.311  0.00  0.00    +0.000 A 
ATOM     14  C   UNL     1       1.937   7.925  19.469  0.00  0.00    +0.000 A 
ATOM     15  O   UNL     1       1.486  10.016  18.302  0.00  0.00    +0.000 OA
ATOM     16  C   UNL     1       0.697  11.126  18.581  0.00  0.00    +0.000 C 
ATOM     17  O   UNL     1       0.092  10.874  19.811  0.00  0.00    +0.000 OA
ENDBRANCH   8   9
ENDBRANCH   7   8
ENDBRANCH   4   7
ENDBRANCH   2   4
ENDBRANCH   1   2
BRANCH   1  18
ATOM     18  C   UNL     1       2.851   2.829  17.274  0.00  0.00    +0.000 C 
BRANCH  18  21
ATOM     19  C   UNL     1       5.692   4.890  15.770  0.00  0.00    +0.000 A 
ATOM     20  C   UNL     1       4.796   3.843  16.032  0.00  0.00    +0.000 A 
ATOM     21  C   UNL     1       3.822   3.962  17.043  0.00  0.00    +0.000 A 
ATOM     22  C   UNL     1       3.766   5.138  17.805  0.00  0.00    +0.000 A 
ATOM     23  C   UNL     1       4.655   6.175  17.555  0.00  0.00    +0.000 A 
ATOM     24  C   UNL     1       5.615   6.062  16.544  0.00  0.00    +0.000 A 
BRANCH  19  25
ATOM     25  C   UNL     1       6.686   4.734  14.676  0.00  0.00    +0.000 C 
ATOM     26  O   UNL     1       7.699   5.424  14.662  0.00  0.00    +0.000 OA
BRANCH  25  28
ATOM     27  C   UNL     1       6.862   3.947  12.382  0.00  0.00    +0.000 C 
ATOM     28  O   UNL     1       6.462   3.818  13.698  0.00  0.00    +0.000 OA
ENDBRANCH  25  28
ENDBRANCH  19  25
BRANCH  24  29
ATOM     29  O   UNL     1       6.461   7.087  16.317  0.00  0.00    +0.000 OA
ATOM     30  H   UNL     1       6.971   7.499  17.032  0.00  0.00    +0.000 HD
ENDBRANCH  24  29
ENDBRANCH  18  21
BRANCH  18  31
ATOM     31  O   UNL     1       3.455   1.686  17.832  0.00  0.00    +0.000 OA
ATOM     32  H   UNL     1       2.763   0.977  17.880  0.00  0.00    +0.000 HD
ENDBRANCH  18  31
ENDBRANCH   1  18
TORSDOF 11
ENDMDL
MODEL 2
REMARK VINA RESULT:      -7.5      1.083      1.601
REMARK  Name = 
REMARK  14 active torsions:
REMARK  status: ('A' for Active; 'I' for Inactive)
REMARK    1  A    between atoms: C_1  and  O_2
REMARK    2  A    between atoms: O_2  and  C_3
REMARK    3  A    between atoms: C_3  and  C_5
REMARK    4  A    between atoms: C_7  and  C_8
REMARK    5  A    between atoms: C_8  and  O_9
REMARK    6  A    between atoms: C_8  and  C_10
REMARK    7  A    between atoms: C_10  and  N_11
REMARK    8  A    between atoms: N_11  and  C_12
REMARK    9  A    between atoms: C_12  and  C_13
REMARK   10  A    between atoms: C_12  and  C_14
REMARK   11  A    between atoms: C_12  and  C_15
REMARK   12  A    between atoms: C_15  and  C_16
REMARK   13  A    between atoms: C_16  and  C_17
REMARK   14  A    between atoms: C_28  and  O_29
REMARK                            x       y       z     vdW  Elec       q    Type
REMARK                         _______ _______ _______ _____ _____    ______ ____
ROOT
ATOM      1  C   UNL     1       3.309   2.438  18.393  0.00  0.00    +0.000 C 
ENDROOT
BRANCH   1   2
ATOM      2  N   UNL     1       3.168   2.728  19.842  0.00  0.00    +0.000 NA
ATOM      3  H   UNL     1       3.808   3.513  20.115  0.00  0.00    +0.000 HD
BRANCH   2   4
ATOM      4  C   UNL     1       1.768   3.078  20.228  0.00  0.00    +0.000 C 
ATOM      5  C   UNL     1       0.767   2.095  19.559  0.00  0.00    +0.000 C 
ATOM      6  C   UNL     1       1.566   2.973  21.766  0.00  0.00    +0.000 C 
BRANCH   4   7
ATOM      7  C   UNL     1       1.441   4.529  19.771  0.00  0.00    +0.000 C 
BRANCH   7   8
ATOM      8  C   UNL     1       2.000   5.601  20.727  0.00  0.00    +0.000 C 
BRANCH   8   9
ATOM      9  C   UNL     1       1.803   6.960  20.156  0.00  0.00    +0.000 A 
ATOM     10  C   UNL     1       2.127   7.243  18.804  0.00  0.00    +0.000 A 
ATOM     11  C   UNL     1       1.950   8.535  18.289  0.00  0.00    +0.000 A 
ATOM     12  C   UNL     1       1.446   9.516  19.145  0.00  0.00    +0.000 A 
ATOM     13  C   UNL     1       1.126   9.241  20.432  0.00  0.00    +0.000 A 
ATOM     14  C   UNL     1       1.285   7.986  20.981  0.00  0.00    +0.000 A 
ATOM     15  O   UNL     1       0.676  10.346  21.015  0.00  0.00    +0.000 OA
ATOM     16  C   UNL     1       0.707  11.364  20.069  0.00  0.00    +0.000 C 
ATOM     17  O   UNL     1       1.202  10.793  18.898  0.00  0.00    +0.000 OA
ENDBRANCH   8   9
ENDBRANCH   7   8
ENDBRANCH   4   7
ENDBRANCH   2   4
ENDBRANCH   1   2
BRANCH   1  18
ATOM     18  C   UNL     1       3.048   3.624  17.465  0.00  0.00    +0.000 C 
BRANCH  18  21
ATOM     19  C   UNL     1       6.161   4.942  15.689  0.00  0.00    +0.000 A 
ATOM     20  C   UNL     1       5.004   4.206  15.986  0.00  0.00    +0.000 A 
ATOM     21  C   UNL     1       4.309   4.408  17.195  0.00  0.00    +0.000 A 
ATOM     22  C   UNL     1       4.799   5.344  18.117  0.00  0.00    +0.000 A 
ATOM     23  C   UNL     1       5.948   6.070  17.833  0.00  0.00    +0.000 A 
ATOM     24  C   UNL     1       6.632   5.878  16.627  0.00  0.00    +0.000 A 
BRANCH  19  25
ATOM     25  C   UNL     1       6.846   4.717  14.390  0.00  0.00    +0.000 C 
ATOM     26  O   UNL     1       7.633   5.552  13.957  0.00  0.00    +0.000 OA
BRANCH  25  28
ATOM     27  C   UNL     1       6.135   3.530  12.390  0.00  0.00    +0.000 C 
ATOM     28  O   UNL     1       6.595   3.579  13.691  0.00  0.00    +0.000 OA
ENDBRANCH  25  28
ENDBRANCH  19  25
BRANCH  24  29
ATOM     29  O   UNL     1       7.740   6.601  16.373  0.00  0.00    +0.000 OA
ATOM     30  H   UNL     1       8.431   6.288  15.768  0.00  0.00    +0.000 HD
ENDBRANCH  24  29
ENDBRANCH  18  21
BRANCH  18  31
ATOM     31  O   UNL     1       2.393   3.205  16.292  0.00  0.00    +0.000 OA
ATOM     32  H   UNL     1       1.459   2.978  16.537  0.00  0.00    +0.000 HD
ENDBRANCH  18  31
ENDBRANCH   1  18
TORSDOF 11
ENDMDL
MODEL 3
REMARK VINA RESULT:      -7.4      1.462      2.685
REMARK  Name = 
REMARK  14 active torsions:
REMARK  status: ('A' for Active; 'I' for Inactive)
REMARK    1  A    between atoms: C_1  and  O_2
REMARK    2  A    between atoms: O_2  and  C_3
REMARK    3  A    between atoms: C_3  and  C_5
REMARK    4  A    between atoms: C_7  and  C_8
REMARK    5  A    between atoms: C_8  and  O_9
REMARK    6  A    between atoms: C_8  and  C_10
REMARK    7  A    between atoms: C_10  and  N_11
REMARK    8  A    between atoms: N_11  and  C_12
REMARK    9  A    between atoms: C_12  and  C_13
REMARK   10  A    between atoms: C_12  and  C_14
REMARK   11  A    between atoms: C_12  and  C_15
REMARK   12  A    between atoms: C_15  and  C_16
REMARK   13  A    between atoms: C_16  and  C_17
REMARK   14  A    between atoms: C_28  and  O_29
REMARK                            x       y       z     vdW  Elec       q    Type
REMARK                         _______ _______ _______ _____ _____    ______ ____
ROOT
ATOM      1  C   UNL     1       4.088   3.010  19.311  0.00  0.00    +0.000 C 
ENDROOT
BRANCH   1   2
ATOM      2  N   UNL     1       2.760   3.044  19.974  0.00  0.00    +0.000 NA
ATOM      3  H   UNL     1       2.874   2.964  21.014  0.00  0.00    +0.000 HD
BRANCH   2   4
ATOM      4  C   UNL     1       1.988   4.283  19.658  0.00  0.00    +0.000 C 
ATOM      5  C   UNL     1       1.505   4.251  18.180  0.00  0.00    +0.000 C 
ATOM      6  C   UNL     1       0.726   4.404  20.557  0.00  0.00    +0.000 C 
BRANCH   4   7
ATOM      7  C   UNL     1       2.887   5.535  19.873  0.00  0.00    +0.000 C 
BRANCH   7   8
ATOM      8  C   UNL     1       2.686   6.612  18.788  0.00  0.00    +0.000 C 
BRANCH   8   9
ATOM      9  C   UNL     1       2.000   7.802  19.359  0.00  0.00    +0.000 A 
ATOM     10  C   UNL     1       1.612   7.843  20.722  0.00  0.00    +0.000 A 
ATOM     11  C   UNL     1       0.951   8.967  21.237  0.00  0.00    +0.000 A 
ATOM     12  C   UNL     1       0.697  10.030  20.368  0.00  0.00    +0.000 A 
ATOM     13  C   UNL     1       1.078   9.994  19.069  0.00  0.00    +0.000 A 
ATOM     14  C   UNL     1       1.729   8.909  18.520  0.00  0.00    +0.000 A 
ATOM     15  O   UNL     1       0.712  11.124  18.475  0.00  0.00    +0.000 OA
ATOM     16  C   UNL     1       0.076  11.913  19.427  0.00  0.00    +0.000 C 
ATOM     17  O   UNL     1       0.088  11.180  20.612  0.00  0.00    +0.000 OA
ENDBRANCH   8   9
ENDBRANCH   7   8
ENDBRANCH   4   7
ENDBRANCH   2   4
ENDBRANCH   1   2
BRANCH   1  18
ATOM     18  C   UNL     1       4.066   2.638  17.829  0.00  0.00    +0.000 C 
BRANCH  18  21
ATOM     19  C   UNL     1       6.730   5.237  16.978  0.00  0.00    +0.000 A 
ATOM     20  C   UNL     1       5.790   4.471  17.681  0.00  0.00    +0.000 A 
ATOM     21  C   UNL     1       5.044   3.468  17.032  0.00  0.00    +0.000 A 
ATOM     22  C   UNL     1       5.236   3.252  15.660  0.00  0.00    +0.000 A 
ATOM     23  C   UNL     1       6.160   4.012  14.956  0.00  0.00    +0.000 A 
ATOM     24  C   UNL     1       6.909   5.001  15.603  0.00  0.00    +0.000 A 
BRANCH  19  25
ATOM     25  C   UNL     1       7.515   6.266  17.708  0.00  0.00    +0.000 C 
ATOM     26  O   UNL     1       7.908   6.047  18.848  0.00  0.00    +0.000 OA
BRANCH  25  28
ATOM     27  C   UNL     1       7.791   8.683  17.718  0.00  0.00    +0.000 C 
ATOM     28  O   UNL     1       7.795   7.448  17.098  0.00  0.00    +0.000 OA
ENDBRANCH  25  28
ENDBRANCH  19  25
BRANCH  24  29
ATOM     29  O   UNL     1       7.805   5.720  14.897  0.00  0.00    +0.000 OA
ATOM     30  H   UNL     1       8.443   6.311  15.327  0.00  0.00    +0.000 HD
ENDBRANCH  24  29
ENDBRANCH  18  21
BRANCH  18  31
ATOM     31  O   UNL     1       4.245   1.253  17.659  0.00  0.00    +0.000 OA
ATOM     32  H   UNL     1       3.814   0.999  16.802  0.00  0.00    +0.000 HD
ENDBRANCH  18  31
ENDBRANCH   1  18
TORSDOF 11
ENDMDL
MODEL 4
REMARK VINA RESULT:      -7.3      1.406      1.787
REMARK  Name = 
REMARK  14 active torsions:
REMARK  status: ('A' for Active; 'I' for Inactive)
REMARK    1  A    between atoms: C_1  and  O_2
REMARK    2  A    between atoms: O_2  and  C_3
REMARK    3  A    between atoms: C_3  and  C_5
REMARK    4  A    between atoms: C_7  and  C_8
REMARK    5  A    between atoms: C_8  and  O_9
REMARK    6  A    between atoms: C_8  and  C_10
REMARK    7  A    between atoms: C_10  and  N_11
REMARK    8  A    between atoms: N_11  and  C_12
REMARK    9  A    between atoms: C_12  and  C_13
REMARK   10  A    between atoms: C_12  and  C_14
REMARK   11  A    between atoms: C_12  and  C_15
REMARK   12  A    between atoms: C_15  and  C_16
REMARK   13  A    between atoms: C_16  and  C_17
REMARK   14  A    between atoms: C_28  and  O_29
REMARK                            x       y       z     vdW  Elec       q    Type
REMARK                         _______ _______ _______ _____ _____    ______ ____
ROOT
ATOM      1  C   UNL     1       3.294   2.736  18.547  0.00  0.00    +0.000 C 
ENDROOT
BRANCH   1   2
ATOM      2  N   UNL     1       2.665   3.256  19.787  0.00  0.00    +0.000 NA
ATOM      3  H   UNL     1       3.398   3.414  20.522  0.00  0.00    +0.000 HD
BRANCH   2   4
ATOM      4  C   UNL     1       1.911   4.526  19.564  0.00  0.00    +0.000 C 
ATOM      5  C   UNL     1       1.549   4.676  18.060  0.00  0.00    +0.000 C 
ATOM      6  C   UNL     1       0.580   4.537  20.367  0.00  0.00    +0.000 C 
BRANCH   4   7
ATOM      7  C   UNL     1       2.779   5.741  20.003  0.00  0.00    +0.000 C 
BRANCH   7   8
ATOM      8  C   UNL     1       2.740   6.904  18.992  0.00  0.00    +0.000 C 
BRANCH   8   9
ATOM      9  C   UNL     1       1.907   8.019  19.516  0.00  0.00    +0.000 A 
ATOM     10  C   UNL     1       1.454   8.029  20.860  0.00  0.00    +0.000 A 
ATOM     11  C   UNL     1       0.655   9.081  21.331  0.00  0.00    +0.000 A 
ATOM     12  C   UNL     1       0.333  10.105  20.438  0.00  0.00    +0.000 A 
ATOM     13  C   UNL     1       0.777  10.101  19.159  0.00  0.00    +0.000 A 
ATOM     14  C   UNL     1       1.562   9.087  18.654  0.00  0.00    +0.000 A 
ATOM     15  O   UNL     1       0.323  11.182  18.536  0.00  0.00    +0.000 OA
ATOM     16  C   UNL     1      -0.436  11.907  19.448  0.00  0.00    +0.000 C 
ATOM     17  O   UNL     1      -0.403  11.187  20.641  0.00  0.00    +0.000 OA
ENDBRANCH   8   9
ENDBRANCH   7   8
ENDBRANCH   4   7
ENDBRANCH   2   4
ENDBRANCH   1   2
BRANCH   1  18
ATOM     18  C   UNL     1       4.806   2.527  18.623  0.00  0.00    +0.000 C 
BRANCH  18  21
ATOM     19  C   UNL     1       6.554   4.865  16.162  0.00  0.00    +0.000 A 
ATOM     20  C   UNL     1       5.882   3.761  16.707  0.00  0.00    +0.000 A 
ATOM     21  C   UNL     1       5.561   3.715  18.078  0.00  0.00    +0.000 A 
ATOM     22  C   UNL     1       5.937   4.783  18.905  0.00  0.00    +0.000 A 
ATOM     23  C   UNL     1       6.608   5.876  18.373  0.00  0.00    +0.000 A 
ATOM     24  C   UNL     1       6.918   5.927  17.009  0.00  0.00    +0.000 A 
BRANCH  19  25
ATOM     25  C   UNL     1       6.849   4.884  14.705  0.00  0.00    +0.000 C 
ATOM     26  O   UNL     1       7.835   5.480  14.285  0.00  0.00    +0.000 OA
BRANCH  25  28
ATOM     27  C   UNL     1       6.400   3.677  12.643  0.00  0.00    +0.000 C 
ATOM     28  O   UNL     1       6.020   4.234  13.848  0.00  0.00    +0.000 OA
ENDBRANCH  25  28
ENDBRANCH  19  25
BRANCH  24  29
ATOM     29  O   UNL     1       7.563   7.003  16.517  0.00  0.00    +0.000 OA
ATOM     30  H   UNL     1       7.300   7.424  15.684  0.00  0.00    +0.000 HD
ENDBRANCH  24  29
ENDBRANCH  18  21
BRANCH  18  31
ATOM     31  O   UNL     1       5.196   2.173  19.928  0.00  0.00    +0.000 OA
ATOM     32  H   UNL     1       5.568   2.985  20.359  0.00  0.00    +0.000 HD
ENDBRANCH  18  31
ENDBRANCH   1  18
TORSDOF 11
ENDMDL
MODEL 5
REMARK VINA RESULT:      -7.3      2.474      7.388
REMARK  Name = 
REMARK  14 active torsions:
REMARK  status: ('A' for Active; 'I' for Inactive)
REMARK    1  A    between atoms: C_1  and  O_2
REMARK    2  A    between atoms: O_2  and  C_3
REMARK    3  A    between atoms: C_3  and  C_5
REMARK    4  A    between atoms: C_7  and  C_8
REMARK    5  A    between atoms: C_8  and  O_9
REMARK    6  A    between atoms: C_8  and  C_10
REMARK    7  A    between atoms: C_10  and  N_11
REMARK    8  A    between atoms: N_11  and  C_12
REMARK    9  A    between atoms: C_12  and  C_13
REMARK   10  A    between atoms: C_12  and  C_14
REMARK   11  A    between atoms: C_12  and  C_15
REMARK   12  A    between atoms: C_15  and  C_16
REMARK   13  A    between atoms: C_16  and  C_17
REMARK   14  A    between atoms: C_28  and  O_29
REMARK                            x       y       z     vdW  Elec       q    Type
REMARK                         _______ _______ _______ _____ _____    ______ ____
ROOT
ATOM      1  C   UNL     1       2.851   5.920  19.123  0.00  0.00    +0.000 C 
ENDROOT
BRANCH   1   2
ATOM      2  N   UNL     1       3.047   4.508  19.537  0.00  0.00    +0.000 NA
ATOM      3  H   UNL     1       2.430   4.285  20.357  0.00  0.00    +0.000 HD
BRANCH   2   4
ATOM      4  C   UNL     1       2.769   3.538  18.435  0.00  0.00    +0.000 C 
ATOM      5  C   UNL     1       2.149   2.234  19.014  0.00  0.00    +0.000 C 
ATOM      6  C   UNL     1       1.754   4.123  17.414  0.00  0.00    +0.000 C 
BRANCH   4   7
ATOM      7  C   UNL     1       4.091   3.187  17.694  0.00  0.00    +0.000 C 
BRANCH   7   8
ATOM      8  C   UNL     1       4.507   4.260  16.668  0.00  0.00    +0.000 C 
BRANCH   8   9
ATOM      9  C   UNL     1       5.609   5.098  17.210  0.00  0.00    +0.000 A 
ATOM     10  C   UNL     1       6.559   4.565  18.119  0.00  0.00    +0.000 A 
ATOM     11  C   UNL     1       7.580   5.376  18.633  0.00  0.00    +0.000 A 
ATOM     12  C   UNL     1       7.628   6.708  18.217  0.00  0.00    +0.000 A 
ATOM     13  C   UNL     1       6.728   7.213  17.340  0.00  0.00    +0.000 A 
ATOM     14  C   UNL     1       5.706   6.452  16.811  0.00  0.00    +0.000 A 
ATOM     15  O   UNL     1       7.001   8.494  17.122  0.00  0.00    +0.000 OA
ATOM     16  C   UNL     1       8.117   8.822  17.884  0.00  0.00    +0.000 C 
ATOM     17  O   UNL     1       8.481   7.660  18.562  0.00  0.00    +0.000 OA
ENDBRANCH   8   9
ENDBRANCH   7   8
ENDBRANCH   4   7
ENDBRANCH   2   4
ENDBRANCH   1   2
BRANCH   1  18
ATOM     18  C   UNL     1       2.362   6.859  20.225  0.00  0.00    +0.000 C 
BRANCH  18  21
ATOM     19  C   UNL     1       0.610  10.243  19.989  0.00  0.00    +0.000 A 
ATOM     20  C   UNL     1       1.072   9.010  20.471  0.00  0.00    +0.000 A 
ATOM     21  C   UNL     1       1.852   8.163  19.660  0.00  0.00    +0.000 A 
ATOM     22  C   UNL     1       2.151   8.556  18.348  0.00  0.00    +0.000 A 
ATOM     23  C   UNL     1       1.690   9.773  17.861  0.00  0.00    +0.000 A 
ATOM     24  C   UNL     1       0.925  10.619  18.670  0.00  0.00    +0.000 A 
BRANCH  19  25
ATOM     25  C   UNL     1      -0.187  11.118  20.887  0.00  0.00    +0.000 C 
ATOM     26  O   UNL     1      -1.020  11.887  20.418  0.00  0.00    +0.000 OA
BRANCH  25  28
ATOM     27  C   UNL     1      -0.897  10.569  23.147  0.00  0.00    +0.000 C 
ATOM     28  O   UNL     1       0.013  11.055  22.229  0.00  0.00    +0.000 OA
ENDBRANCH  25  28
ENDBRANCH  19  25
BRANCH  24  29
ATOM     29  O   UNL     1       0.497  11.798  18.176  0.00  0.00    +0.000 OA
ATOM     30  H   UNL     1       0.645  12.635  18.642  0.00  0.00    +0.000 HD
ENDBRANCH  24  29
ENDBRANCH  18  21
BRANCH  18  31
ATOM     31  O   UNL     1       1.429   6.211  21.056  0.00  0.00    +0.000 OA
ATOM     32  H   UNL     1       0.524   6.485  20.758  0.00  0.00    +0.000 HD
ENDBRANCH  18  31
ENDBRANCH   1  18
TORSDOF 11
ENDMDL
MODEL 6
REMARK VINA RESULT:      -7.3      1.421      1.646
REMARK  Name = 
REMARK  14 active torsions:
REMARK  status: ('A' for Active; 'I' for Inactive)
REMARK    1  A    between atoms: C_1  and  O_2
REMARK    2  A    between atoms: O_2  and  C_3
REMARK    3  A    between atoms: C_3  and  C_5
REMARK    4  A    between atoms: C_7  and  C_8
REMARK    5  A    between atoms: C_8  and  O_9
REMARK    6  A    between atoms: C_8  and  C_10
REMARK    7  A    between atoms: C_10  and  N_11
REMARK    8  A    between atoms: N_11  and  C_12
REMARK    9  A    between atoms: C_12  and  C_13
REMARK   10  A    between atoms: C_12  and  C_14
REMARK   11  A    between atoms: C_12  and  C_15
REMARK   12  A    between atoms: C_15  and  C_16
REMARK   13  A    between atoms: C_16  and  C_17
REMARK   14  A    between atoms: C_28  and  O_29
REMARK                            x       y       z     vdW  Elec       q    Type
REMARK                         _______ _______ _______ _____ _____    ______ ____
ROOT
ATOM      1  C   UNL     1       3.607   2.571  18.132  0.00  0.00    +0.000 C 
ENDROOT
BRANCH   1   2
ATOM      2  N   UNL     1       2.594   1.918  18.999  0.00  0.00    +0.000 NA
ATOM      3  H   UNL     1       3.062   1.470  19.824  0.00  0.00    +0.000 HD
BRANCH   2   4
ATOM      4  C   UNL     1       1.549   2.869  19.483  0.00  0.00    +0.000 C 
ATOM      5  C   UNL     1       0.175   2.527  18.841  0.00  0.00    +0.000 C 
ATOM      6  C   UNL     1       1.377   2.777  21.026  0.00  0.00    +0.000 C 
BRANCH   4   7
ATOM      7  C   UNL     1       1.942   4.325  19.102  0.00  0.00    +0.000 C 
BRANCH   7   8
ATOM      8  C   UNL     1       2.332   5.182  20.322  0.00  0.00    +0.000 C 
BRANCH   8   9
ATOM      9  C   UNL     1       2.008   6.612  20.078  0.00  0.00    +0.000 A 
ATOM     10  C   UNL     1       1.357   7.397  21.064  0.00  0.00    +0.000 A 
ATOM     11  C   UNL     1       1.044   8.740  20.808  0.00  0.00    +0.000 A 
ATOM     12  C   UNL     1       1.398   9.267  19.564  0.00  0.00    +0.000 A 
ATOM     13  C   UNL     1       2.031   8.520  18.628  0.00  0.00    +0.000 A 
ATOM     14  C   UNL     1       2.356   7.196  18.836  0.00  0.00    +0.000 A 
ATOM     15  O   UNL     1       2.244   9.262  17.548  0.00  0.00    +0.000 OA
ATOM     16  C   UNL     1       1.733  10.530  17.800  0.00  0.00    +0.000 C 
ATOM     17  O   UNL     1       1.206  10.488  19.090  0.00  0.00    +0.000 OA
ENDBRANCH   8   9
ENDBRANCH   7   8
ENDBRANCH   4   7
ENDBRANCH   2   4
ENDBRANCH   1   2
BRANCH   1  18
ATOM     18  C   UNL     1       4.993   2.729  18.758  0.00  0.00    +0.000 C 
BRANCH  18  21
ATOM     19  C   UNL     1       6.723   4.970  16.196  0.00  0.00    +0.000 A 
ATOM     20  C   UNL     1       6.056   3.888  16.788  0.00  0.00    +0.000 A 
ATOM     21  C   UNL     1       5.743   3.896  18.162  0.00  0.00    +0.000 A 
ATOM     22  C   UNL     1       6.123   4.996  18.944  0.00  0.00    +0.000 A 
ATOM     23  C   UNL     1       6.790   6.068  18.365  0.00  0.00    +0.000 A 
ATOM     24  C   UNL     1       7.091   6.065  16.999  0.00  0.00    +0.000 A 
BRANCH  19  25
ATOM     25  C   UNL     1       7.010   4.933  14.739  0.00  0.00    +0.000 C 
ATOM     26  O   UNL     1       7.959   5.560  14.281  0.00  0.00    +0.000 OA
BRANCH  25  28
ATOM     27  C   UNL     1       6.531   3.817  12.631  0.00  0.00    +0.000 C 
ATOM     28  O   UNL     1       6.214   4.195  13.921  0.00  0.00    +0.000 OA
ENDBRANCH  25  28
ENDBRANCH  19  25
BRANCH  24  29
ATOM     29  O   UNL     1       7.733   7.121  16.461  0.00  0.00    +0.000 OA
ATOM     30  H   UNL     1       8.060   7.114  15.548  0.00  0.00    +0.000 HD
ENDBRANCH  24  29
ENDBRANCH  18  21
BRANCH  18  31
ATOM     31  O   UNL     1       4.903   2.785  20.161  0.00  0.00    +0.000 OA
ATOM     32  H   UNL     1       4.005   2.452  20.416  0.00  0.00    +0.000 HD
ENDBRANCH  18  31
ENDBRANCH   1  18
TORSDOF 11
ENDMDL
MODEL 7
REMARK VINA RESULT:      -7.1      2.172      7.622
REMARK  Name = 
REMARK  14 active torsions:
REMARK  status: ('A' for Active; 'I' for Inactive)
REMARK    1  A    between atoms: C_1  and  O_2
REMARK    2  A    between atoms: O_2  and  C_3
REMARK    3  A    between atoms: C_3  and  C_5
REMARK    4  A    between atoms: C_7  and  C_8
REMARK    5  A    between atoms: C_8  and  O_9
REMARK    6  A    between atoms: C_8  and  C_10
REMARK    7  A    between atoms: C_10  and  N_11
REMARK    8  A    between atoms: N_11  and  C_12
REMARK    9  A    between atoms: C_12  and  C_13
REMARK   10  A    between atoms: C_12  and  C_14
REMARK   11  A    between atoms: C_12  and  C_15
REMARK   12  A    between atoms: C_15  and  C_16
REMARK   13  A    between atoms: C_16  and  C_17
REMARK   14  A    between atoms: C_28  and  O_29
REMARK                            x       y       z     vdW  Elec       q    Type
REMARK                         _______ _______ _______ _____ _____    ______ ____
ROOT
ATOM      1  C   UNL     1       2.048   6.349  20.254  0.00  0.00    +0.000 C 
ENDROOT
BRANCH   1   2
ATOM      2  N   UNL     1       3.025   5.232  20.274  0.00  0.00    +0.000 NA
ATOM      3  H   UNL     1       3.477   5.166  21.219  0.00  0.00    +0.000 HD
BRANCH   2   4
ATOM      4  C   UNL     1       2.405   3.916  19.934  0.00  0.00    +0.000 C 
ATOM      5  C   UNL     1       3.063   2.782  20.769  0.00  0.00    +0.000 C 
ATOM      6  C   UNL     1       0.884   3.910  20.258  0.00  0.00    +0.000 C 
BRANCH   4   7
ATOM      7  C   UNL     1       2.602   3.614  18.420  0.00  0.00    +0.000 C 
BRANCH   7   8
ATOM      8  C   UNL     1       4.020   3.107  18.089  0.00  0.00    +0.000 C 
BRANCH   8   9
ATOM      9  C   UNL     1       4.893   4.239  17.677  0.00  0.00    +0.000 A 
ATOM     10  C   UNL     1       4.806   4.798  16.377  0.00  0.00    +0.000 A 
ATOM     11  C   UNL     1       5.650   5.853  16.001  0.00  0.00    +0.000 A 
ATOM     12  C   UNL     1       6.561   6.328  16.947  0.00  0.00    +0.000 A 
ATOM     13  C   UNL     1       6.635   5.801  18.192  0.00  0.00    +0.000 A 
ATOM     14  C   UNL     1       5.827   4.762  18.603  0.00  0.00    +0.000 A 
ATOM     15  O   UNL     1       7.581   6.432  18.877  0.00  0.00    +0.000 OA
ATOM     16  C   UNL     1       8.132   7.399  18.044  0.00  0.00    +0.000 C 
ATOM     17  O   UNL     1       7.456   7.297  16.829  0.00  0.00    +0.000 OA
ENDBRANCH   8   9
ENDBRANCH   7   8
ENDBRANCH   4   7
ENDBRANCH   2   4
ENDBRANCH   1   2
BRANCH   1  18
ATOM     18  C   UNL     1       2.093   7.229  19.004  0.00  0.00    +0.000 C 
BRANCH  18  21
ATOM     19  C   UNL     1       0.511  10.186  20.830  0.00  0.00    +0.000 A 
ATOM     20  C   UNL     1       0.969   8.896  20.524  0.00  0.00    +0.000 A 
ATOM     21  C   UNL     1       1.580   8.621  19.285  0.00  0.00    +0.000 A 
ATOM     22  C   UNL     1       1.710   9.652  18.343  0.00  0.00    +0.000 A 
ATOM     23  C   UNL     1       1.252  10.929  18.636  0.00  0.00    +0.000 A 
ATOM     24  C   UNL     1       0.655  11.205  19.871  0.00  0.00    +0.000 A 
BRANCH  19  25
ATOM     25  C   UNL     1      -0.103  10.439  22.160  0.00  0.00    +0.000 C 
ATOM     26  O   UNL     1       0.452  10.042  23.179  0.00  0.00    +0.000 OA
BRANCH  25  28
ATOM     27  C   UNL     1      -1.568  12.110  23.148  0.00  0.00    +0.000 C 
ATOM     28  O   UNL     1      -1.279  11.115  22.234  0.00  0.00    +0.000 OA
ENDBRANCH  25  28
ENDBRANCH  19  25
BRANCH  24  29
ATOM     29  O   UNL     1       0.226  12.456  20.133  0.00  0.00    +0.000 OA
ATOM     30  H   UNL     1      -0.552  12.834  19.695  0.00  0.00    +0.000 HD
ENDBRANCH  24  29
ENDBRANCH  18  21
BRANCH  18  31
ATOM     31  O   UNL     1       3.378   7.217  18.431  0.00  0.00    +0.000 OA
ATOM     32  H   UNL     1       4.011   6.897  19.124  0.00  0.00    +0.000 HD
ENDBRANCH  18  31
ENDBRANCH   1  18
TORSDOF 11
ENDMDL
MODEL 8
REMARK VINA RESULT:      -7.1      1.922      2.805
REMARK  Name = 
REMARK  14 active torsions:
REMARK  status: ('A' for Active; 'I' for Inactive)
REMARK    1  A    between atoms: C_1  and  O_2
REMARK    2  A    between atoms: O_2  and  C_3
REMARK    3  A    between atoms: C_3  and  C_5
REMARK    4  A    between atoms: C_7  and  C_8
REMARK    5  A    between atoms: C_8  and  O_9
REMARK    6  A    between atoms: C_8  and  C_10
REMARK    7  A    between atoms: C_10  and  N_11
REMARK    8  A    between atoms: N_11  and  C_12
REMARK    9  A    between atoms: C_12  and  C_13
REMARK   10  A    between atoms: C_12  and  C_14
REMARK   11  A    between atoms: C_12  and  C_15
REMARK   12  A    between atoms: C_15  and  C_16
REMARK   13  A    between atoms: C_16  and  C_17
REMARK   14  A    between atoms: C_28  and  O_29
REMARK                            x       y       z     vdW  Elec       q    Type
REMARK                         _______ _______ _______ _____ _____    ______ ____
ROOT
ATOM      1  C   UNL     1       3.710   3.910  20.166  0.00  0.00    +0.000 C 
ENDROOT
BRANCH   1   2
ATOM      2  N   UNL     1       3.620   5.386  20.033  0.00  0.00    +0.000 NA
ATOM      3  H   UNL     1       4.312   5.726  19.321  0.00  0.00    +0.000 HD
BRANCH   2   4
ATOM      4  C   UNL     1       2.252   5.850  19.650  0.00  0.00    +0.000 C 
ATOM      5  C   UNL     1       2.044   5.692  18.118  0.00  0.00    +0.000 C 
ATOM      6  C   UNL     1       1.154   5.007  20.359  0.00  0.00    +0.000 C 
BRANCH   4   7
ATOM      7  C   UNL     1       2.074   7.346  20.038  0.00  0.00    +0.000 C 
BRANCH   7   8
ATOM      8  C   UNL     1       1.059   7.554  21.179  0.00  0.00    +0.000 C 
BRANCH   8   9
ATOM      9  C   UNL     1       0.508   8.935  21.138  0.00  0.00    +0.000 A 
ATOM     10  C   UNL     1       0.336   9.622  19.909  0.00  0.00    +0.000 A 
ATOM     11  C   UNL     1      -0.169  10.930  19.892  0.00  0.00    +0.000 A 
ATOM     12  C   UNL     1      -0.495  11.518  21.116  0.00  0.00    +0.000 A 
ATOM     13  C   UNL     1      -0.342  10.858  22.287  0.00  0.00    +0.000 A 
ATOM     14  C   UNL     1       0.152   9.572  22.351  0.00  0.00    +0.000 A 
ATOM     15  O   UNL     1      -0.722  11.646  23.286  0.00  0.00    +0.000 OA
ATOM     16  C   UNL     1      -1.136  12.854  22.736  0.00  0.00    +0.000 C 
ATOM     17  O   UNL     1      -0.974  12.729  21.357  0.00  0.00    +0.000 OA
ENDBRANCH   8   9
ENDBRANCH   7   8
ENDBRANCH   4   7
ENDBRANCH   2   4
ENDBRANCH   1   2
BRANCH   1  18
ATOM     18  C   UNL     1       4.579   3.215  19.118  0.00  0.00    +0.000 C 
BRANCH  18  21
ATOM     19  C   UNL     1       6.585   4.928  16.357  0.00  0.00    +0.000 A 
ATOM     20  C   UNL     1       5.768   4.021  17.046  0.00  0.00    +0.000 A 
ATOM     21  C   UNL     1       5.493   4.192  18.417  0.00  0.00    +0.000 A 
ATOM     22  C   UNL     1       6.064   5.276  19.099  0.00  0.00    +0.000 A 
ATOM     23  C   UNL     1       6.881   6.174  18.424  0.00  0.00    +0.000 A 
ATOM     24  C   UNL     1       7.145   6.010  17.060  0.00  0.00    +0.000 A 
BRANCH  19  25
ATOM     25  C   UNL     1       6.827   4.725  14.905  0.00  0.00    +0.000 C 
ATOM     26  O   UNL     1       7.600   5.459  14.301  0.00  0.00    +0.000 OA
BRANCH  25  28
ATOM     27  C   UNL     1       6.059   3.607  12.886  0.00  0.00    +0.000 C 
ATOM     28  O   UNL     1       6.185   3.717  14.257  0.00  0.00    +0.000 OA
ENDBRANCH  25  28
ENDBRANCH  19  25
BRANCH  24  29
ATOM     29  O   UNL     1       7.934   6.901  16.427  0.00  0.00    +0.000 OA
ATOM     30  H   UNL     1       7.678   7.830  16.322  0.00  0.00    +0.000 HD
ENDBRANCH  24  29
ENDBRANCH  18  21
BRANCH  18  31
ATOM     31  O   UNL     1       5.263   2.122  19.681  0.00  0.00    +0.000 OA
ATOM     32  H   UNL     1       6.147   2.450  19.990  0.00  0.00    +0.000 HD
ENDBRANCH  18  31
ENDBRANCH   1  18
TORSDOF 11
ENDMDL
MODEL 9
REMARK VINA RESULT:      -7.1      1.953      7.194
REMARK  Name = 
REMARK  14 active torsions:
REMARK  status: ('A' for Active; 'I' for Inactive)
REMARK    1  A    between atoms: C_1  and  O_2
REMARK    2  A    between atoms: O_2  and  C_3
REMARK    3  A    between atoms: C_3  and  C_5
REMARK    4  A    between atoms: C_7  and  C_8
REMARK    5  A    between atoms: C_8  and  O_9
REMARK    6  A    between atoms: C_8  and  C_10
REMARK    7  A    between atoms: C_10  and  N_11
REMARK    8  A    between atoms: N_11  and  C_12
REMARK    9  A    between atoms: C_12  and  C_13
REMARK   10  A    between atoms: C_12  and  C_14
REMARK   11  A    between atoms: C_12  and  C_15
REMARK   12  A    between atoms: C_15  and  C_16
REMARK   13  A    between atoms: C_16  and  C_17
REMARK   14  A    between atoms: C_28  and  O_29
REMARK                            x       y       z     vdW  Elec       q    Type
REMARK                         _______ _______ _______ _____ _____    ______ ____
ROOT
ATOM      1  C   UNL     1       2.392   5.674  19.838  0.00  0.00    +0.000 C 
ENDROOT
BRANCH   1   2
ATOM      2  N   UNL     1       1.330   4.639  19.776  0.00  0.00    +0.000 NA
ATOM      3  H   UNL     1       0.846   4.676  18.846  0.00  0.00    +0.000 HD
BRANCH   2   4
ATOM      4  C   UNL     1       1.853   3.259  20.004  0.00  0.00    +0.000 C 
ATOM      5  C   UNL     1       1.388   2.733  21.391  0.00  0.00    +0.000 C 
ATOM      6  C   UNL     1       1.320   2.271  18.929  0.00  0.00    +0.000 C 
BRANCH   4   7
ATOM      7  C   UNL     1       3.408   3.269  19.958  0.00  0.00    +0.000 C 
BRANCH   7   8
ATOM      8  C   UNL     1       3.972   2.811  18.598  0.00  0.00    +0.000 C 
BRANCH   8   9
ATOM      9  C   UNL     1       4.743   3.911  17.959  0.00  0.00    +0.000 A 
ATOM     10  C   UNL     1       4.539   4.256  16.598  0.00  0.00    +0.000 A 
ATOM     11  C   UNL     1       5.288   5.284  16.008  0.00  0.00    +0.000 A 
ATOM     12  C   UNL     1       6.224   5.948  16.804  0.00  0.00    +0.000 A 
ATOM     13  C   UNL     1       6.409   5.626  18.105  0.00  0.00    +0.000 A 
ATOM     14  C   UNL     1       5.697   4.621  18.725  0.00  0.00    +0.000 A 
ATOM     15  O   UNL     1       7.354   6.406  18.619  0.00  0.00    +0.000 OA
ATOM     16  C   UNL     1       7.788   7.259  17.611  0.00  0.00    +0.000 C 
ATOM     17  O   UNL     1       7.046   6.934  16.478  0.00  0.00    +0.000 OA
ENDBRANCH   8   9
ENDBRANCH   7   8
ENDBRANCH   4   7
ENDBRANCH   2   4
ENDBRANCH   1   2
BRANCH   1  18
ATOM     18  C   UNL     1       2.135   6.921  18.991  0.00  0.00    +0.000 C 
BRANCH  18  21
ATOM     19  C   UNL     1       0.855  10.385  19.961  0.00  0.00    +0.000 A 
ATOM     20  C   UNL     1       1.342   9.303  19.214  0.00  0.00    +0.000 A 
ATOM     21  C   UNL     1       1.645   8.074  19.833  0.00  0.00    +0.000 A 
ATOM     22  C   UNL     1       1.473   7.946  21.218  0.00  0.00    +0.000 A 
ATOM     23  C   UNL     1       0.997   9.015  21.966  0.00  0.00    +0.000 A 
ATOM     24  C   UNL     1       0.685  10.232  21.349  0.00  0.00    +0.000 A 
BRANCH  19  25
ATOM     25  C   UNL     1       0.522  11.654  19.264  0.00  0.00    +0.000 C 
ATOM     26  O   UNL     1       1.352  12.196  18.542  0.00  0.00    +0.000 OA
BRANCH  25  28
ATOM     27  C   UNL     1      -0.959  13.544  19.648  0.00  0.00    +0.000 C 
ATOM     28  O   UNL     1      -0.710  12.203  19.431  0.00  0.00    +0.000 OA
ENDBRANCH  25  28
ENDBRANCH  19  25
BRANCH  24  29
ATOM     29  O   UNL     1       0.218  11.251  22.097  0.00  0.00    +0.000 OA
ATOM     30  H   UNL     1       0.383  12.178  21.863  0.00  0.00    +0.000 HD
ENDBRANCH  24  29
ENDBRANCH  18  21
BRANCH  18  31
ATOM     31  O   UNL     1       3.265   7.240  18.215  0.00  0.00    +0.000 OA
ATOM     32  H   UNL     1       3.551   6.411  17.751  0.00  0.00    +0.000 HD
ENDBRANCH  18  31
ENDBRANCH   1  18
TORSDOF 11
ENDMDL
