MODEL 1
REMARK VINA RESULT:      -8.1      0.000      0.000
REMARK  Name = 
REMARK  6 active torsions:
REMARK  status: ('A' for Active; 'I' for Inactive)
REMARK    1  A    between atoms: C_1  and  O_2
REMARK    2  A    between atoms: O_2  and  C_3
REMARK    3  A    between atoms: C_8  and  S_9
REMARK    4  A    between atoms: S_9  and  N_12
REMARK    5  A    between atoms: C_14  and  C_15
REMARK    6  A    between atoms: C_20  and  N_21
REMARK                            x       y       z     vdW  Elec       q    Type
REMARK                         _______ _______ _______ _____ _____    ______ ____
ROOT
ATOM      1  S   UNL     1       6.921   5.391  18.159  0.00  0.00    +0.000 S 
ATOM      2  O   UNL     1       7.964   4.506  18.627  0.00  0.00    +0.000 OA
ATOM      3  O   UNL     1       7.092   6.824  18.087  0.00  0.00    +0.000 OA
ENDROOT
BRANCH   1   9
ATOM      4  C   UNL     1       5.974   3.569  12.093  0.00  0.00    +0.000 A 
ATOM      5  C   UNL     1       7.106   4.366  11.918  0.00  0.00    +0.000 A 
ATOM      6  C   UNL     1       7.727   4.996  13.006  0.00  0.00    +0.000 A 
ATOM      7  C   UNL     1       7.168   4.804  14.273  0.00  0.00    +0.000 A 
ATOM      8  N   UNL     1       7.532   5.310  15.497  0.00  0.00    +0.000 N 
ATOM      9  C   UNL     1       6.686   4.862  16.486  0.00  0.00    +0.000 A 
ATOM     10  C   UNL     1       5.759   4.038  15.875  0.00  0.00    +0.000 A 
ATOM     11  C   UNL     1       6.046   4.006  14.482  0.00  0.00    +0.000 A 
ATOM     12  C   UNL     1       5.446   3.377  13.376  0.00  0.00    +0.000 A 
ATOM     13  H   UNL     1       8.300   5.949  15.656  0.00  0.00    +0.000 HD
BRANCH   4  15
ATOM     14  C   UNL     1       3.877   3.106  11.069  0.00  0.00    +0.000 C 
ATOM     15  O   UNL     1       5.285   2.923  11.102  0.00  0.00    +0.000 OA
ENDBRANCH   4  15
ENDBRANCH   1   9
BRANCH   1  16
ATOM     16  N   UNL     1       5.469   5.031  18.926  0.00  0.00    +0.000 N 
ATOM     17  C   UNL     1       5.149   3.594  19.172  0.00  0.00    +0.000 C 
ATOM     18  C   UNL     1       3.615   3.531  19.390  0.00  0.00    +0.000 C 
ATOM     19  C   UNL     1       3.170   4.885  18.899  0.00  0.00    +0.000 A 
ATOM     20  C   UNL     1       1.881   5.391  18.832  0.00  0.00    +0.000 A 
ATOM     21  C   UNL     1       1.700   6.701  18.372  0.00  0.00    +0.000 A 
ATOM     22  C   UNL     1       2.786   7.476  17.930  0.00  0.00    +0.000 A 
ATOM     23  C   UNL     1       4.081   6.969  18.073  0.00  0.00    +0.000 A 
ATOM     24  C   UNL     1       4.258   5.674  18.534  0.00  0.00    +0.000 A 
BRANCH  22  25
ATOM     25  N   UNL     1       2.603   8.824  17.597  0.00  0.00    +0.000 N 
ATOM     26  H   UNL     1       1.762   9.236  17.994  0.00  0.00    +0.000 HD
ATOM     27  H   UNL     1       2.686   9.017  16.601  0.00  0.00    +0.000 HD
ENDBRANCH  22  25
BRANCH  18  28
ATOM     28  C   UNL     1       3.227   3.271  20.842  0.00  0.00    +0.000 C 
ATOM     29 CL   UNL     1       1.609   2.529  20.959  0.00  0.00    +0.000 Cl
ENDBRANCH  18  28
ENDBRANCH   1  16
TORSDOF 5
ENDMDL
MODEL 2
REMARK VINA RESULT:      -7.5      3.907      7.687
REMARK  Name = 
REMARK  6 active torsions:
REMARK  status: ('A' for Active; 'I' for Inactive)
REMARK    1  A    between atoms: C_1  and  O_2
REMARK    2  A    between atoms: O_2  and  C_3
REMARK    3  A    between atoms: C_8  and  S_9
REMARK    4  A    between atoms: S_9  and  N_12
REMARK    5  A    between atoms: C_14  and  C_15
REMARK    6  A    between atoms: C_20  and  N_21
REMARK                            x       y       z     vdW  Elec       q    Type
REMARK                         _______ _______ _______ _____ _____    ______ ____
ROOT
ATOM      1  S   UNL     1       2.764   4.753  19.001  0.00  0.00    +0.000 S 
ATOM      2  O   UNL     1       3.378   4.401  20.262  0.00  0.00    +0.000 OA
ATOM      3  O   UNL     1       1.583   4.087  18.499  0.00  0.00    +0.000 OA
ENDROOT
BRANCH   1   9
ATOM      4  C   UNL     1       0.890  10.811  19.895  0.00  0.00    +0.000 A 
ATOM      5  C   UNL     1       0.763  10.337  21.202  0.00  0.00    +0.000 A 
ATOM      6  C   UNL     1       1.091   9.013  21.530  0.00  0.00    +0.000 A 
ATOM      7  C   UNL     1       1.544   8.183  20.502  0.00  0.00    +0.000 A 
ATOM      8  N   UNL     1       1.902   6.856  20.516  0.00  0.00    +0.000 N 
ATOM      9  C   UNL     1       2.280   6.435  19.261  0.00  0.00    +0.000 A 
ATOM     10  C   UNL     1       2.167   7.529  18.423  0.00  0.00    +0.000 A 
ATOM     11  C   UNL     1       1.693   8.628  19.191  0.00  0.00    +0.000 A 
ATOM     12  C   UNL     1       1.365   9.962  18.887  0.00  0.00    +0.000 A 
ATOM     13  H   UNL     1       1.869   6.255  21.329  0.00  0.00    +0.000 HD
BRANCH   4  15
ATOM     14  C   UNL     1      -0.630  12.238  18.749  0.00  0.00    +0.000 C 
ATOM     15  O   UNL     1       0.586  12.074  19.466  0.00  0.00    +0.000 OA
ENDBRANCH   4  15
ENDBRANCH   1   9
BRANCH   1  16
ATOM     16  N   UNL     1       3.929   4.829  17.791  0.00  0.00    +0.000 N 
ATOM     17  C   UNL     1       3.703   4.026  16.554  0.00  0.00    +0.000 C 
ATOM     18  C   UNL     1       5.093   3.874  15.884  0.00  0.00    +0.000 C 
ATOM     19  C   UNL     1       6.024   4.305  16.989  0.00  0.00    +0.000 A 
ATOM     20  C   UNL     1       7.410   4.353  16.972  0.00  0.00    +0.000 A 
ATOM     21  C   UNL     1       8.077   4.826  18.108  0.00  0.00    +0.000 A 
ATOM     22  C   UNL     1       7.373   5.192  19.267  0.00  0.00    +0.000 A 
ATOM     23  C   UNL     1       5.975   5.202  19.236  0.00  0.00    +0.000 A 
ATOM     24  C   UNL     1       5.317   4.739  18.108  0.00  0.00    +0.000 A 
BRANCH  22  25
ATOM     25  N   UNL     1       8.044   5.784  20.345  0.00  0.00    +0.000 N 
ATOM     26  H   UNL     1       7.615   5.603  21.249  0.00  0.00    +0.000 HD
ATOM     27  H   UNL     1       8.244   6.774  20.212  0.00  0.00    +0.000 HD
ENDBRANCH  22  25
BRANCH  18  28
ATOM     28  C   UNL     1       5.245   4.714  14.620  0.00  0.00    +0.000 C 
ATOM     29 CL   UNL     1       6.159   3.838  13.363  0.00  0.00    +0.000 Cl
ENDBRANCH  18  28
ENDBRANCH   1  16
TORSDOF 5
ENDMDL
MODEL 3
REMARK VINA RESULT:      -7.5      5.139      7.593
REMARK  Name = 
REMARK  6 active torsions:
REMARK  status: ('A' for Active; 'I' for Inactive)
REMARK    1  A    between atoms: C_1  and  O_2
REMARK    2  A    between atoms: O_2  and  C_3
REMARK    3  A    between atoms: C_8  and  S_9
REMARK    4  A    between atoms: S_9  and  N_12
REMARK    5  A    between atoms: C_14  and  C_15
REMARK    6  A    between atoms: C_20  and  N_21
REMARK                            x       y       z     vdW  Elec       q    Type
REMARK                         _______ _______ _______ _____ _____    ______ ____
ROOT
ATOM      1  S   UNL     1       0.858   9.192  21.329  0.00  0.00    +0.000 S 
ATOM      2  O   UNL     1      -0.482   8.665  21.466  0.00  0.00    +0.000 OA
ATOM      3  O   UNL     1       1.732   9.396  22.462  0.00  0.00    +0.000 OA
ENDROOT
BRANCH   1   9
ATOM      4  C   UNL     1       3.868   4.801  17.770  0.00  0.00    +0.000 A 
ATOM      5  C   UNL     1       3.610   4.034  18.907  0.00  0.00    +0.000 A 
ATOM      6  C   UNL     1       2.921   4.572  20.005  0.00  0.00    +0.000 A 
ATOM      7  C   UNL     1       2.509   5.905  19.923  0.00  0.00    +0.000 A 
ATOM      8  N   UNL     1       1.856   6.696  20.836  0.00  0.00    +0.000 N 
ATOM      9  C   UNL     1       1.657   7.963  20.336  0.00  0.00    +0.000 A 
ATOM     10  C   UNL     1       2.192   7.977  19.061  0.00  0.00    +0.000 A 
ATOM     11  C   UNL     1       2.741   6.692  18.798  0.00  0.00    +0.000 A 
ATOM     12  C   UNL     1       3.427   6.128  17.706  0.00  0.00    +0.000 A 
ATOM     13  H   UNL     1       1.579   6.404  21.765  0.00  0.00    +0.000 HD
BRANCH   4  15
ATOM     14  C   UNL     1       5.278   5.361  15.937  0.00  0.00    +0.000 C 
ATOM     15  O   UNL     1       4.541   4.381  16.654  0.00  0.00    +0.000 OA
ENDBRANCH   4  15
ENDBRANCH   1   9
BRANCH   1  16
ATOM     16  N   UNL     1       0.843  10.570  20.367  0.00  0.00    +0.000 N 
ATOM     17  C   UNL     1       1.273  11.857  20.989  0.00  0.00    +0.000 C 
ATOM     18  C   UNL     1       0.688  12.979  20.092  0.00  0.00    +0.000 C 
ATOM     19  C   UNL     1      -0.309  12.223  19.250  0.00  0.00    +0.000 A 
ATOM     20  C   UNL     1      -1.158  12.721  18.273  0.00  0.00    +0.000 A 
ATOM     21  C   UNL     1      -1.982  11.824  17.583  0.00  0.00    +0.000 A 
ATOM     22  C   UNL     1      -2.002  10.456  17.905  0.00  0.00    +0.000 A 
ATOM     23  C   UNL     1      -1.088   9.969  18.844  0.00  0.00    +0.000 A 
ATOM     24  C   UNL     1      -0.268  10.857  19.521  0.00  0.00    +0.000 A 
BRANCH  22  25
ATOM     25  N   UNL     1      -2.734   9.556  17.121  0.00  0.00    +0.000 N 
ATOM     26  H   UNL     1      -2.739   9.783  16.129  0.00  0.00    +0.000 HD
ATOM     27  H   UNL     1      -3.672   9.373  17.472  0.00  0.00    +0.000 HD
ENDBRANCH  22  25
BRANCH  18  28
ATOM     28  C   UNL     1       1.747  13.692  19.257  0.00  0.00    +0.000 C 
ATOM     29 CL   UNL     1       2.516  12.579  18.094  0.00  0.00    +0.000 Cl
ENDBRANCH  18  28
ENDBRANCH   1  16
TORSDOF 5
ENDMDL
MODEL 4
REMARK VINA RESULT:      -7.5      3.817      7.694
REMARK  Name = 
REMARK  6 active torsions:
REMARK  status: ('A' for Active; 'I' for Inactive)
REMARK    1  A    between atoms: C_1  and  O_2
REMARK    2  A    between atoms: O_2  and  C_3
REMARK    3  A    between atoms: C_8  and  S_9
REMARK    4  A    between atoms: S_9  and  N_12
REMARK    5  A    between atoms: C_14  and  C_15
REMARK    6  A    between atoms: C_20  and  N_21
REMARK                            x       y       z     vdW  Elec       q    Type
REMARK                         _______ _______ _______ _____ _____    ______ ____
ROOT
ATOM      1  S   UNL     1       2.837   4.067  18.927  0.00  0.00    +0.000 S 
ATOM      2  O   UNL     1       3.472   3.531  20.110  0.00  0.00    +0.000 OA
ATOM      3  O   UNL     1       1.687   3.443  18.312  0.00  0.00    +0.000 OA
ENDROOT
BRANCH   1   9
ATOM      4  C   UNL     1       0.921   9.830  20.960  0.00  0.00    +0.000 A 
ATOM      5  C   UNL     1       1.187  10.136  19.625  0.00  0.00    +0.000 A 
ATOM      6  C   UNL     1       1.631   9.152  18.728  0.00  0.00    +0.000 A 
ATOM      7  C   UNL     1       1.805   7.856  19.221  0.00  0.00    +0.000 A 
ATOM      8  N   UNL     1       2.250   6.715  18.598  0.00  0.00    +0.000 N 
ATOM      9  C   UNL     1       2.274   5.653  19.474  0.00  0.00    +0.000 A 
ATOM     10  C   UNL     1       1.822   6.131  20.690  0.00  0.00    +0.000 A 
ATOM     11  C   UNL     1       1.537   7.516  20.544  0.00  0.00    +0.000 A 
ATOM     12  C   UNL     1       1.085   8.518  21.423  0.00  0.00    +0.000 A 
ATOM     13  H   UNL     1       2.549   6.659  17.633  0.00  0.00    +0.000 HD
BRANCH   4  15
ATOM     14  C   UNL     1      -0.395  10.216  22.904  0.00  0.00    +0.000 C 
ATOM     15  O   UNL     1       0.499  10.712  21.917  0.00  0.00    +0.000 OA
ENDBRANCH   4  15
ENDBRANCH   1   9
BRANCH   1  16
ATOM     16  N   UNL     1       3.992   4.408  17.754  0.00  0.00    +0.000 N 
ATOM     17  C   UNL     1       3.909   3.672  16.459  0.00  0.00    +0.000 C 
ATOM     18  C   UNL     1       5.315   3.783  15.815  0.00  0.00    +0.000 C 
ATOM     19  C   UNL     1       6.154   4.271  16.969  0.00  0.00    +0.000 A 
ATOM     20  C   UNL     1       7.516   4.531  16.989  0.00  0.00    +0.000 A 
ATOM     21  C   UNL     1       8.086   5.017  18.171  0.00  0.00    +0.000 A 
ATOM     22  C   UNL     1       7.318   5.186  19.336  0.00  0.00    +0.000 A 
ATOM     23  C   UNL     1       5.937   4.985  19.271  0.00  0.00    +0.000 A 
ATOM     24  C   UNL     1       5.373   4.509  18.098  0.00  0.00    +0.000 A 
BRANCH  22  25
ATOM     25  N   UNL     1       7.876   5.795  20.468  0.00  0.00    +0.000 N 
ATOM     26  H   UNL     1       7.484   5.467  21.347  0.00  0.00    +0.000 HD
ATOM     27  H   UNL     1       7.900   6.811  20.419  0.00  0.00    +0.000 HD
ENDBRANCH  22  25
BRANCH  18  28
ATOM     28  C   UNL     1       5.352   4.726  14.616  0.00  0.00    +0.000 C 
ATOM     29 CL   UNL     1       6.416   4.098  13.329  0.00  0.00    +0.000 Cl
ENDBRANCH  18  28
ENDBRANCH   1  16
TORSDOF 5
ENDMDL
MODEL 5
REMARK VINA RESULT:      -7.4      2.003      3.074
REMARK  Name = 
REMARK  6 active torsions:
REMARK  status: ('A' for Active; 'I' for Inactive)
REMARK    1  A    between atoms: C_1  and  O_2
REMARK    2  A    between atoms: O_2  and  C_3
REMARK    3  A    between atoms: C_8  and  S_9
REMARK    4  A    between atoms: S_9  and  N_12
REMARK    5  A    between atoms: C_14  and  C_15
REMARK    6  A    between atoms: C_20  and  N_21
REMARK                            x       y       z     vdW  Elec       q    Type
REMARK                         _______ _______ _______ _____ _____    ______ ____
ROOT
ATOM      1  S   UNL     1       6.154   5.723  17.905  0.00  0.00    +0.000 S 
ATOM      2  O   UNL     1       6.508   4.604  18.750  0.00  0.00    +0.000 OA
ATOM      3  O   UNL     1       6.942   6.934  17.847  0.00  0.00    +0.000 OA
ENDROOT
BRANCH   1   9
ATOM      4  C   UNL     1       6.379   3.271  11.993  0.00  0.00    +0.000 A 
ATOM      5  C   UNL     1       7.362   4.253  11.870  0.00  0.00    +0.000 A 
ATOM      6  C   UNL     1       7.706   5.077  12.952  0.00  0.00    +0.000 A 
ATOM      7  C   UNL     1       7.025   4.883  14.157  0.00  0.00    +0.000 A 
ATOM      8  N   UNL     1       7.124   5.547  15.356  0.00  0.00    +0.000 N 
ATOM      9  C   UNL     1       6.247   5.026  16.280  0.00  0.00    +0.000 A 
ATOM     10  C   UNL     1       5.575   3.992  15.653  0.00  0.00    +0.000 A 
ATOM     11  C   UNL     1       6.048   3.904  14.315  0.00  0.00    +0.000 A 
ATOM     12  C   UNL     1       5.725   3.085  13.218  0.00  0.00    +0.000 A 
ATOM     13  H   UNL     1       7.736   6.332  15.537  0.00  0.00    +0.000 HD
BRANCH   4  15
ATOM     14  C   UNL     1       6.327   1.060  11.116  0.00  0.00    +0.000 C 
ATOM     15  O   UNL     1       5.958   2.427  11.001  0.00  0.00    +0.000 OA
ENDBRANCH   4  15
ENDBRANCH   1   9
BRANCH   1  16
ATOM     16  N   UNL     1       4.531   6.111  18.108  0.00  0.00    +0.000 N 
ATOM     17  C   UNL     1       4.141   7.548  18.005  0.00  0.00    +0.000 C 
ATOM     18  C   UNL     1       2.769   7.668  18.718  0.00  0.00    +0.000 C 
ATOM     19  C   UNL     1       2.683   6.359  19.460  0.00  0.00    +0.000 A 
ATOM     20  C   UNL     1       1.672   5.913  20.298  0.00  0.00    +0.000 A 
ATOM     21  C   UNL     1       1.782   4.635  20.858  0.00  0.00    +0.000 A 
ATOM     22  C   UNL     1       2.915   3.835  20.632  0.00  0.00    +0.000 A 
ATOM     23  C   UNL     1       3.886   4.276  19.729  0.00  0.00    +0.000 A 
ATOM     24  C   UNL     1       3.772   5.540  19.171  0.00  0.00    +0.000 A 
BRANCH  22  25
ATOM     25  N   UNL     1       2.949   2.512  21.093  0.00  0.00    +0.000 N 
ATOM     26  H   UNL     1       2.369   1.873  20.555  0.00  0.00    +0.000 HD
ATOM     27  H   UNL     1       2.787   2.421  22.094  0.00  0.00    +0.000 HD
ENDBRANCH  22  25
BRANCH  18  28
ATOM     28  C   UNL     1       1.608   7.878  17.751  0.00  0.00    +0.000 C 
ATOM     29 CL   UNL     1       0.960   9.536  17.864  0.00  0.00    +0.000 Cl
ENDBRANCH  18  28
ENDBRANCH   1  16
TORSDOF 5
ENDMDL
MODEL 6
REMARK VINA RESULT:      -7.3      5.115      7.598
REMARK  Name = 
REMARK  6 active torsions:
REMARK  status: ('A' for Active; 'I' for Inactive)
REMARK    1  A    between atoms: C_1  and  O_2
REMARK    2  A    between atoms: O_2  and  C_3
REMARK    3  A    between atoms: C_8  and  S_9
REMARK    4  A    between atoms: S_9  and  N_12
REMARK    5  A    between atoms: C_14  and  C_15
REMARK    6  A    between atoms: C_20  and  N_21
REMARK                            x       y       z     vdW  Elec       q    Type
REMARK                         _______ _______ _______ _____ _____    ______ ____
ROOT
ATOM      1  S   UNL     1       0.745   9.172  21.485  0.00  0.00    +0.000 S 
ATOM      2  O   UNL     1      -0.620   8.711  21.601  0.00  0.00    +0.000 OA
ATOM      3  O   UNL     1       1.587   9.406  22.636  0.00  0.00    +0.000 OA
ENDROOT
BRANCH   1   9
ATOM      4  C   UNL     1       3.443   4.377  18.207  0.00  0.00    +0.000 A 
ATOM      5  C   UNL     1       3.807   5.447  17.388  0.00  0.00    +0.000 A 
ATOM      6  C   UNL     1       3.451   6.765  17.711  0.00  0.00    +0.000 A 
ATOM      7  C   UNL     1       2.712   6.968  18.880  0.00  0.00    +0.000 A 
ATOM      8  N   UNL     1       2.203   8.122  19.426  0.00  0.00    +0.000 N 
ATOM      9  C   UNL     1       1.524   7.856  20.594  0.00  0.00    +0.000 A 
ATOM     10  C   UNL     1       1.610   6.492  20.802  0.00  0.00    +0.000 A 
ATOM     11  C   UNL     1       2.344   5.924  19.725  0.00  0.00    +0.000 A 
ATOM     12  C   UNL     1       2.720   4.612  19.383  0.00  0.00    +0.000 A 
ATOM     13  H   UNL     1       2.287   9.044  19.018  0.00  0.00    +0.000 HD
BRANCH   4  15
ATOM     14  C   UNL     1       2.662   2.131  18.142  0.00  0.00    +0.000 C 
ATOM     15  O   UNL     1       3.726   3.058  17.978  0.00  0.00    +0.000 OA
ENDBRANCH   4  15
ENDBRANCH   1   9
BRANCH   1  16
ATOM     16  N   UNL     1       0.825  10.492  20.446  0.00  0.00    +0.000 N 
ATOM     17  C   UNL     1       1.355  11.776  20.991  0.00  0.00    +0.000 C 
ATOM     18  C   UNL     1       0.847  12.886  20.034  0.00  0.00    +0.000 C 
ATOM     19  C   UNL     1      -0.211  12.161  19.242  0.00  0.00    +0.000 A 
ATOM     20  C   UNL     1      -1.029  12.665  18.242  0.00  0.00    +0.000 A 
ATOM     21  C   UNL     1      -1.924  11.794  17.609  0.00  0.00    +0.000 A 
ATOM     22  C   UNL     1      -2.043  10.452  18.008  0.00  0.00    +0.000 A 
ATOM     23  C   UNL     1      -1.160   9.951  18.968  0.00  0.00    +0.000 A 
ATOM     24  C   UNL     1      -0.270  10.813  19.590  0.00  0.00    +0.000 A 
BRANCH  22  25
ATOM     25  N   UNL     1      -2.847   9.567  17.279  0.00  0.00    +0.000 N 
ATOM     26  H   UNL     1      -2.342   8.771  16.896  0.00  0.00    +0.000 HD
ATOM     27  H   UNL     1      -3.428  10.021  16.577  0.00  0.00    +0.000 HD
ENDBRANCH  22  25
BRANCH  18  28
ATOM     28  C   UNL     1       1.949  13.470  19.156  0.00  0.00    +0.000 C 
ATOM     29 CL   UNL     1       2.587  12.251  18.019  0.00  0.00    +0.000 Cl
ENDBRANCH  18  28
ENDBRANCH   1  16
TORSDOF 5
ENDMDL
MODEL 7
REMARK VINA RESULT:      -7.3      1.833      2.993
REMARK  Name = 
REMARK  6 active torsions:
REMARK  status: ('A' for Active; 'I' for Inactive)
REMARK    1  A    between atoms: C_1  and  O_2
REMARK    2  A    between atoms: O_2  and  C_3
REMARK    3  A    between atoms: C_8  and  S_9
REMARK    4  A    between atoms: S_9  and  N_12
REMARK    5  A    between atoms: C_14  and  C_15
REMARK    6  A    between atoms: C_20  and  N_21
REMARK                            x       y       z     vdW  Elec       q    Type
REMARK                         _______ _______ _______ _____ _____    ______ ____
ROOT
ATOM      1  S   UNL     1       6.444   5.587  17.883  0.00  0.00    +0.000 S 
ATOM      2  O   UNL     1       7.168   4.588  18.637  0.00  0.00    +0.000 OA
ATOM      3  O   UNL     1       6.902   6.953  17.761  0.00  0.00    +0.000 OA
ENDROOT
BRANCH   1   9
ATOM      4  C   UNL     1       6.453   3.283  11.908  0.00  0.00    +0.000 A 
ATOM      5  C   UNL     1       7.380   4.314  11.756  0.00  0.00    +0.000 A 
ATOM      6  C   UNL     1       7.746   5.129  12.839  0.00  0.00    +0.000 A 
ATOM      7  C   UNL     1       7.143   4.875  14.074  0.00  0.00    +0.000 A 
ATOM      8  N   UNL     1       7.277   5.516  15.282  0.00  0.00    +0.000 N 
ATOM      9  C   UNL     1       6.478   4.932  16.239  0.00  0.00    +0.000 A 
ATOM     10  C   UNL     1       5.821   3.882  15.624  0.00  0.00    +0.000 A 
ATOM     11  C   UNL     1       6.223   3.847  14.260  0.00  0.00    +0.000 A 
ATOM     12  C   UNL     1       5.878   3.038  13.162  0.00  0.00    +0.000 A 
ATOM     13  H   UNL     1       7.860   6.325  15.449  0.00  0.00    +0.000 HD
BRANCH   4  15
ATOM     14  C   UNL     1       6.356   1.068  11.045  0.00  0.00    +0.000 C 
ATOM     15  O   UNL     1       6.017   2.442  10.920  0.00  0.00    +0.000 OA
ENDBRANCH   4  15
ENDBRANCH   1   9
BRANCH   1  16
ATOM     16  N   UNL     1       4.818   5.571  18.313  0.00  0.00    +0.000 N 
ATOM     17  C   UNL     1       4.292   6.729  19.093  0.00  0.00    +0.000 C 
ATOM     18  C   UNL     1       2.988   6.230  19.767  0.00  0.00    +0.000 C 
ATOM     19  C   UNL     1       3.090   4.737  19.587  0.00  0.00    +0.000 A 
ATOM     20  C   UNL     1       2.205   3.759  20.017  0.00  0.00    +0.000 A 
ATOM     21  C   UNL     1       2.482   2.423  19.704  0.00  0.00    +0.000 A 
ATOM     22  C   UNL     1       3.656   2.062  19.022  0.00  0.00    +0.000 A 
ATOM     23  C   UNL     1       4.495   3.069  18.538  0.00  0.00    +0.000 A 
ATOM     24  C   UNL     1       4.217   4.392  18.844  0.00  0.00    +0.000 A 
BRANCH  22  25
ATOM     25  N   UNL     1       3.852   0.739  18.605  0.00  0.00    +0.000 N 
ATOM     26  H   UNL     1       4.668   0.293  19.018  0.00  0.00    +0.000 HD
ATOM     27  H   UNL     1       3.823   0.617  17.595  0.00  0.00    +0.000 HD
ENDBRANCH  22  25
BRANCH  18  28
ATOM     28  C   UNL     1       1.727   6.818  19.140  0.00  0.00    +0.000 C 
ATOM     29 CL   UNL     1       2.124   8.093  17.957  0.00  0.00    +0.000 Cl
ENDBRANCH  18  28
ENDBRANCH   1  16
TORSDOF 5
ENDMDL
MODEL 8
REMARK VINA RESULT:      -7.2      3.857      7.601
REMARK  Name = 
REMARK  6 active torsions:
REMARK  status: ('A' for Active; 'I' for Inactive)
REMARK    1  A    between atoms: C_1  and  O_2
REMARK    2  A    between atoms: O_2  and  C_3
REMARK    3  A    between atoms: C_8  and  S_9
REMARK    4  A    between atoms: S_9  and  N_12
REMARK    5  A    between atoms: C_14  and  C_15
REMARK    6  A    between atoms: C_20  and  N_21
REMARK                            x       y       z     vdW  Elec       q    Type
REMARK                         _______ _______ _______ _____ _____    ______ ____
ROOT
ATOM      1  S   UNL     1       2.735   4.689  19.030  0.00  0.00    +0.000 S 
ATOM      2  O   UNL     1       3.362   4.348  20.287  0.00  0.00    +0.000 OA
ATOM      3  O   UNL     1       1.568   3.998  18.530  0.00  0.00    +0.000 OA
ENDROOT
BRANCH   1   9
ATOM      4  C   UNL     1       0.962  10.756  20.061  0.00  0.00    +0.000 A 
ATOM      5  C   UNL     1       1.340  10.853  18.722  0.00  0.00    +0.000 A 
ATOM      6  C   UNL     1       1.800   9.734  18.013  0.00  0.00    +0.000 A 
ATOM      7  C   UNL     1       1.873   8.517  18.697  0.00  0.00    +0.000 A 
ATOM      8  N   UNL     1       2.306   7.281  18.281  0.00  0.00    +0.000 N 
ATOM      9  C   UNL     1       2.212   6.359  19.298  0.00  0.00    +0.000 A 
ATOM     10  C   UNL     1       1.696   7.026  20.394  0.00  0.00    +0.000 A 
ATOM     11  C   UNL     1       1.492   8.385  20.030  0.00  0.00    +0.000 A 
ATOM     12  C   UNL     1       1.026   9.521  20.718  0.00  0.00    +0.000 A 
ATOM     13  H   UNL     1       2.672   7.074  17.361  0.00  0.00    +0.000 HD
BRANCH   4  15
ATOM     14  C   UNL     1       0.498  13.081  20.265  0.00  0.00    +0.000 C 
ATOM     15  O   UNL     1       0.515  11.784  20.846  0.00  0.00    +0.000 OA
ENDBRANCH   4  15
ENDBRANCH   1   9
BRANCH   1  16
ATOM     16  N   UNL     1       3.893   4.798  17.816  0.00  0.00    +0.000 N 
ATOM     17  C   UNL     1       3.673   4.006  16.571  0.00  0.00    +0.000 C 
ATOM     18  C   UNL     1       5.062   3.882  15.893  0.00  0.00    +0.000 C 
ATOM     19  C   UNL     1       5.992   4.315  16.999  0.00  0.00    +0.000 A 
ATOM     20  C   UNL     1       7.377   4.383  16.977  0.00  0.00    +0.000 A 
ATOM     21  C   UNL     1       8.042   4.853  18.116  0.00  0.00    +0.000 A 
ATOM     22  C   UNL     1       7.337   5.194  19.282  0.00  0.00    +0.000 A 
ATOM     23  C   UNL     1       5.940   5.184  19.257  0.00  0.00    +0.000 A 
ATOM     24  C   UNL     1       5.283   4.724  18.126  0.00  0.00    +0.000 A 
BRANCH  22  25
ATOM     25  N   UNL     1       8.005   5.784  20.364  0.00  0.00    +0.000 N 
ATOM     26  H   UNL     1       8.940   5.415  20.521  0.00  0.00    +0.000 HD
ATOM     27  H   UNL     1       7.457   5.808  21.222  0.00  0.00    +0.000 HD
ENDBRANCH  22  25
BRANCH  18  28
ATOM     28  C   UNL     1       5.196   4.740  14.639  0.00  0.00    +0.000 C 
ATOM     29 CL   UNL     1       6.155   3.910  13.384  0.00  0.00    +0.000 Cl
ENDBRANCH  18  28
ENDBRANCH   1  16
TORSDOF 5
ENDMDL
MODEL 9
REMARK VINA RESULT:      -7.1      3.518      7.317
REMARK  Name = 
REMARK  6 active torsions:
REMARK  status: ('A' for Active; 'I' for Inactive)
REMARK    1  A    between atoms: C_1  and  O_2
REMARK    2  A    between atoms: O_2  and  C_3
REMARK    3  A    between atoms: C_8  and  S_9
REMARK    4  A    between atoms: S_9  and  N_12
REMARK    5  A    between atoms: C_14  and  C_15
REMARK    6  A    between atoms: C_20  and  N_21
REMARK                            x       y       z     vdW  Elec       q    Type
REMARK                         _______ _______ _______ _____ _____    ______ ____
ROOT
ATOM      1  S   UNL     1       3.256   4.321  18.573  0.00  0.00    +0.000 S 
ATOM      2  O   UNL     1       3.055   3.687  19.857  0.00  0.00    +0.000 OA
ATOM      3  O   UNL     1       2.589   3.871  17.372  0.00  0.00    +0.000 OA
ENDROOT
BRANCH   1   9
ATOM      4  C   UNL     1       0.978  10.227  19.541  0.00  0.00    +0.000 A 
ATOM      5  C   UNL     1       0.865   9.724  20.837  0.00  0.00    +0.000 A 
ATOM      6  C   UNL     1       1.274   8.419  21.149  0.00  0.00    +0.000 A 
ATOM      7  C   UNL     1       1.794   7.637  20.113  0.00  0.00    +0.000 A 
ATOM      8  N   UNL     1       2.238   6.337  20.111  0.00  0.00    +0.000 N 
ATOM      9  C   UNL     1       2.659   5.963  18.855  0.00  0.00    +0.000 A 
ATOM     10  C   UNL     1       2.486   7.062  18.033  0.00  0.00    +0.000 A 
ATOM     11  C   UNL     1       1.931   8.114  18.812  0.00  0.00    +0.000 A 
ATOM     12  C   UNL     1       1.521   9.429  18.526  0.00  0.00    +0.000 A 
ATOM     13  H   UNL     1       2.234   5.720  20.913  0.00  0.00    +0.000 HD
BRANCH   4  15
ATOM     14  C   UNL     1      -0.759  11.841  19.341  0.00  0.00    +0.000 C 
ATOM     15  O   UNL     1       0.598  11.476  19.128  0.00  0.00    +0.000 OA
ENDBRANCH   4  15
ENDBRANCH   1   9
BRANCH   1  16
ATOM     16  N   UNL     1       4.899   4.512  18.272  0.00  0.00    +0.000 N 
ATOM     17  C   UNL     1       5.669   5.425  19.167  0.00  0.00    +0.000 C 
ATOM     18  C   UNL     1       6.953   5.804  18.384  0.00  0.00    +0.000 C 
ATOM     19  C   UNL     1       6.617   5.349  16.987  0.00  0.00    +0.000 A 
ATOM     20  C   UNL     1       7.393   5.454  15.842  0.00  0.00    +0.000 A 
ATOM     21  C   UNL     1       6.893   4.925  14.645  0.00  0.00    +0.000 A 
ATOM     22  C   UNL     1       5.612   4.352  14.580  0.00  0.00    +0.000 A 
ATOM     23  C   UNL     1       4.880   4.195  15.760  0.00  0.00    +0.000 A 
ATOM     24  C   UNL     1       5.378   4.714  16.945  0.00  0.00    +0.000 A 
BRANCH  22  25
ATOM     25  N   UNL     1       5.183   3.714  13.409  0.00  0.00    +0.000 N 
ATOM     26  H   UNL     1       5.433   2.729  13.360  0.00  0.00    +0.000 HD
ATOM     27  H   UNL     1       5.429   4.211  12.556  0.00  0.00    +0.000 HD
ENDBRANCH  22  25
BRANCH  18  28
ATOM     28  C   UNL     1       8.210   5.138  18.938  0.00  0.00    +0.000 C 
ATOM     29 CL   UNL     1       8.343   5.368  20.702  0.00  0.00    +0.000 Cl
ENDBRANCH  18  28
ENDBRANCH   1  16
TORSDOF 5
ENDMDL
