MODEL 1
REMARK VINA RESULT:      -6.5      0.000      0.000
REMARK  Name = 
REMARK  3 active torsions:
REMARK  status: ('A' for Active; 'I' for Inactive)
REMARK    1  A    between atoms: C_6  and  O_7
REMARK    2  A    between atoms: C_8  and  C_9
REMARK    3  A    between atoms: C_9  and  C_11
REMARK                            x       y       z     vdW  Elec       q    Type
REMARK                         _______ _______ _______ _____ _____    ______ ____
ROOT
ATOM      1  O   UNL     1       3.305   1.613  18.174  0.00  0.00    +0.000 OA
ATOM      2  C   UNL     1       2.923   2.479  18.956  0.00  0.00    +0.000 C 
ATOM      3  C   UNL     1       1.807   2.162  19.931  0.00  0.00    +0.000 C 
ATOM      4  C   UNL     1       0.899   3.361  20.084  0.00  0.00    +0.000 C 
ATOM      5  C   UNL     1       1.694   4.554  20.583  0.00  0.00    +0.000 C 
ATOM      6  C   UNL     1       2.964   4.778  19.793  0.00  0.00    +0.000 C 
ATOM      7  C   UNL     1       3.536   3.851  18.997  0.00  0.00    +0.000 C 
ENDROOT
BRANCH   6   8
ATOM      8  O   UNL     1       3.518   6.033  19.965  0.00  0.00    +0.000 OA
ATOM      9  H   UNL     1       3.602   6.234  20.914  0.00  0.00    +0.000 HD
ENDBRANCH   6   8
BRANCH   7  10
ATOM     10  C   UNL     1       4.794   4.128  18.219  0.00  0.00    +0.000 C 
ATOM     11  O   UNL     1       5.877   4.143  18.816  0.00  0.00    +0.000 OA
BRANCH  10  12
ATOM     12  C   UNL     1       4.687   4.401  16.682  0.00  0.00    +0.000 C 
ATOM     13  C   UNL     1       5.094   5.825  16.216  0.00  0.00    +0.000 C 
ATOM     14  C   UNL     1       5.909   5.208  15.076  0.00  0.00    +0.000 C 
ATOM     15  C   UNL     1       5.831   3.852  15.787  0.00  0.00    +0.000 C 
ENDBRANCH  10  12
ENDBRANCH   7  10
TORSDOF 3
ENDMDL
MODEL 2
REMARK VINA RESULT:      -6.5      1.255      2.447
REMARK  Name = 
REMARK  3 active torsions:
REMARK  status: ('A' for Active; 'I' for Inactive)
REMARK    1  A    between atoms: C_6  and  O_7
REMARK    2  A    between atoms: C_8  and  C_9
REMARK    3  A    between atoms: C_9  and  C_11
REMARK                            x       y       z     vdW  Elec       q    Type
REMARK                         _______ _______ _______ _____ _____    ______ ____
ROOT
ATOM      1  O   UNL     1       3.054   6.489  19.519  0.00  0.00    +0.000 OA
ATOM      2  C   UNL     1       2.963   5.286  19.749  0.00  0.00    +0.000 C 
ATOM      3  C   UNL     1       1.629   4.708  20.172  0.00  0.00    +0.000 C 
ATOM      4  C   UNL     1       1.840   3.641  21.224  0.00  0.00    +0.000 C 
ATOM      5  C   UNL     1       2.727   2.539  20.675  0.00  0.00    +0.000 C 
ATOM      6  C   UNL     1       3.976   3.074  20.011  0.00  0.00    +0.000 C 
ATOM      7  C   UNL     1       4.134   4.353  19.608  0.00  0.00    +0.000 C 
ENDROOT
BRANCH   6   8
ATOM      8  O   UNL     1       4.966   2.126  19.830  0.00  0.00    +0.000 OA
ATOM      9  H   UNL     1       4.578   1.299  19.494  0.00  0.00    +0.000 HD
ENDBRANCH   6   8
BRANCH   7  10
ATOM     10  C   UNL     1       5.403   4.841  18.965  0.00  0.00    +0.000 C 
ATOM     11  O   UNL     1       6.381   5.088  19.681  0.00  0.00    +0.000 OA
BRANCH  10  12
ATOM     12  C   UNL     1       5.437   5.032  17.413  0.00  0.00    +0.000 C 
ATOM     13  C   UNL     1       6.738   4.571  16.701  0.00  0.00    +0.000 C 
ATOM     14  C   UNL     1       5.894   3.872  15.632  0.00  0.00    +0.000 C 
ATOM     15  C   UNL     1       4.675   3.985  16.557  0.00  0.00    +0.000 C 
ENDBRANCH  10  12
ENDBRANCH   7  10
TORSDOF 3
ENDMDL
MODEL 3
REMARK VINA RESULT:      -6.4      1.423      2.451
REMARK  Name = 
REMARK  3 active torsions:
REMARK  status: ('A' for Active; 'I' for Inactive)
REMARK    1  A    between atoms: C_6  and  O_7
REMARK    2  A    between atoms: C_8  and  C_9
REMARK    3  A    between atoms: C_9  and  C_11
REMARK                            x       y       z     vdW  Elec       q    Type
REMARK                         _______ _______ _______ _____ _____    ______ ____
ROOT
ATOM      1  O   UNL     1       3.379   6.102  17.738  0.00  0.00    +0.000 OA
ATOM      2  C   UNL     1       3.213   4.944  18.112  0.00  0.00    +0.000 C 
ATOM      3  C   UNL     1       1.848   4.304  17.970  0.00  0.00    +0.000 C 
ATOM      4  C   UNL     1       1.558   3.434  19.174  0.00  0.00    +0.000 C 
ATOM      5  C   UNL     1       2.621   2.357  19.302  0.00  0.00    +0.000 C 
ATOM      6  C   UNL     1       4.024   2.910  19.204  0.00  0.00    +0.000 C 
ATOM      7  C   UNL     1       4.329   4.123  18.696  0.00  0.00    +0.000 C 
ENDROOT
BRANCH   6   8
ATOM      8  O   UNL     1       5.001   2.050  19.672  0.00  0.00    +0.000 OA
ATOM      9  H   UNL     1       5.512   2.480  20.380  0.00  0.00    +0.000 HD
ENDBRANCH   6   8
BRANCH   7  10
ATOM     10  C   UNL     1       5.742   4.635  18.633  0.00  0.00    +0.000 C 
ATOM     11  O   UNL     1       6.257   5.101  19.657  0.00  0.00    +0.000 OA
BRANCH  10  12
ATOM     12  C   UNL     1       6.508   4.573  17.271  0.00  0.00    +0.000 C 
ATOM     13  C   UNL     1       5.727   3.951  16.081  0.00  0.00    +0.000 C 
ATOM     14  C   UNL     1       6.185   5.107  15.188  0.00  0.00    +0.000 C 
ATOM     15  C   UNL     1       6.587   5.887  16.446  0.00  0.00    +0.000 C 
ENDBRANCH  10  12
ENDBRANCH   7  10
TORSDOF 3
ENDMDL
MODEL 4
REMARK VINA RESULT:      -6.3      0.338      2.259
REMARK  Name = 
REMARK  3 active torsions:
REMARK  status: ('A' for Active; 'I' for Inactive)
REMARK    1  A    between atoms: C_6  and  O_7
REMARK    2  A    between atoms: C_8  and  C_9
REMARK    3  A    between atoms: C_9  and  C_11
REMARK                            x       y       z     vdW  Elec       q    Type
REMARK                         _______ _______ _______ _____ _____    ______ ____
ROOT
ATOM      1  O   UNL     1       3.290   5.881  19.944  0.00  0.00    +0.000 OA
ATOM      2  C   UNL     1       2.736   4.798  19.769  0.00  0.00    +0.000 C 
ATOM      3  C   UNL     1       1.345   4.575  20.324  0.00  0.00    +0.000 C 
ATOM      4  C   UNL     1       1.220   3.162  20.850  0.00  0.00    +0.000 C 
ATOM      5  C   UNL     1       1.496   2.167  19.737  0.00  0.00    +0.000 C 
ATOM      6  C   UNL     1       2.764   2.483  18.976  0.00  0.00    +0.000 C 
ATOM      7  C   UNL     1       3.387   3.680  19.003  0.00  0.00    +0.000 C 
ENDROOT
BRANCH   6   8
ATOM      8  O   UNL     1       3.241   1.430  18.218  0.00  0.00    +0.000 OA
ATOM      9  H   UNL     1       2.524   0.798  18.037  0.00  0.00    +0.000 HD
ENDBRANCH   6   8
BRANCH   7  10
ATOM     10  C   UNL     1       4.656   3.941  18.239  0.00  0.00    +0.000 C 
ATOM     11  O   UNL     1       5.741   3.848  18.827  0.00  0.00    +0.000 OA
BRANCH  10  12
ATOM     12  C   UNL     1       4.560   4.336  16.728  0.00  0.00    +0.000 C 
ATOM     13  C   UNL     1       4.920   5.808  16.386  0.00  0.00    +0.000 C 
ATOM     14  C   UNL     1       5.774   5.317  15.214  0.00  0.00    +0.000 C 
ATOM     15  C   UNL     1       5.737   3.904  15.811  0.00  0.00    +0.000 C 
ENDBRANCH  10  12
ENDBRANCH   7  10
TORSDOF 3
ENDMDL
MODEL 5
REMARK VINA RESULT:      -6.3      1.668      5.147
REMARK  Name = 
REMARK  3 active torsions:
REMARK  status: ('A' for Active; 'I' for Inactive)
REMARK    1  A    between atoms: C_6  and  O_7
REMARK    2  A    between atoms: C_8  and  C_9
REMARK    3  A    between atoms: C_9  and  C_11
REMARK                            x       y       z     vdW  Elec       q    Type
REMARK                         _______ _______ _______ _____ _____    ______ ____
ROOT
ATOM      1  O   UNL     1       2.533   7.058  17.922  0.00  0.00    +0.000 OA
ATOM      2  C   UNL     1       3.433   6.239  17.752  0.00  0.00    +0.000 C 
ATOM      3  C   UNL     1       4.848   6.725  17.517  0.00  0.00    +0.000 C 
ATOM      4  C   UNL     1       5.531   5.848  16.490  0.00  0.00    +0.000 C 
ATOM      5  C   UNL     1       5.554   4.408  16.971  0.00  0.00    +0.000 C 
ATOM      6  C   UNL     1       4.203   3.935  17.456  0.00  0.00    +0.000 C 
ATOM      7  C   UNL     1       3.184   4.756  17.786  0.00  0.00    +0.000 C 
ENDROOT
BRANCH   6   8
ATOM      8  O   UNL     1       4.091   2.560  17.553  0.00  0.00    +0.000 OA
ATOM      9  H   UNL     1       3.368   2.327  18.162  0.00  0.00    +0.000 HD
ENDBRANCH   6   8
BRANCH   7  10
ATOM     10  C   UNL     1       1.851   4.236  18.250  0.00  0.00    +0.000 C 
ATOM     11  O   UNL     1       1.069   3.762  17.416  0.00  0.00    +0.000 OA
BRANCH  10  12
ATOM     12  C   UNL     1       1.494   4.324  19.770  0.00  0.00    +0.000 C 
ATOM     13  C   UNL     1       1.136   2.981  20.463  0.00  0.00    +0.000 C 
ATOM     14  C   UNL     1       2.043   3.356  21.638  0.00  0.00    +0.000 C 
ATOM     15  C   UNL     1       2.679   4.446  20.767  0.00  0.00    +0.000 C 
ENDBRANCH  10  12
ENDBRANCH   7  10
TORSDOF 3
ENDMDL
MODEL 6
REMARK VINA RESULT:      -6.2      1.656      2.044
REMARK  Name = 
REMARK  3 active torsions:
REMARK  status: ('A' for Active; 'I' for Inactive)
REMARK    1  A    between atoms: C_6  and  O_7
REMARK    2  A    between atoms: C_8  and  C_9
REMARK    3  A    between atoms: C_9  and  C_11
REMARK                            x       y       z     vdW  Elec       q    Type
REMARK                         _______ _______ _______ _____ _____    ______ ____
ROOT
ATOM      1  O   UNL     1       1.433   4.066  17.116  0.00  0.00    +0.000 OA
ATOM      2  C   UNL     1       2.114   3.519  17.980  0.00  0.00    +0.000 C 
ATOM      3  C   UNL     1       1.482   2.473  18.874  0.00  0.00    +0.000 C 
ATOM      4  C   UNL     1       2.015   2.608  20.284  0.00  0.00    +0.000 C 
ATOM      5  C   UNL     1       3.525   2.442  20.285  0.00  0.00    +0.000 C 
ATOM      6  C   UNL     1       4.204   3.290  19.233  0.00  0.00    +0.000 C 
ATOM      7  C   UNL     1       3.570   3.839  18.175  0.00  0.00    +0.000 C 
ENDROOT
BRANCH   6   8
ATOM      8  O   UNL     1       5.562   3.452  19.433  0.00  0.00    +0.000 OA
ATOM      9  H   UNL     1       5.874   4.249  18.969  0.00  0.00    +0.000 HD
ENDBRANCH   6   8
BRANCH   7  10
ATOM     10  C   UNL     1       4.288   4.688  17.162  0.00  0.00    +0.000 C 
ATOM     11  O   UNL     1       4.075   5.907  17.142  0.00  0.00    +0.000 OA
BRANCH  10  12
ATOM     12  C   UNL     1       5.271   3.999  16.159  0.00  0.00    +0.000 C 
ATOM     13  C   UNL     1       5.296   4.585  14.721  0.00  0.00    +0.000 C 
ATOM     14  C   UNL     1       6.827   4.559  14.748  0.00  0.00    +0.000 C 
ATOM     15  C   UNL     1       6.773   4.378  16.270  0.00  0.00    +0.000 C 
ENDBRANCH  10  12
ENDBRANCH   7  10
TORSDOF 3
ENDMDL
MODEL 7
REMARK VINA RESULT:      -6.2      1.137      1.296
REMARK  Name = 
REMARK  3 active torsions:
REMARK  status: ('A' for Active; 'I' for Inactive)
REMARK    1  A    between atoms: C_6  and  O_7
REMARK    2  A    between atoms: C_8  and  C_9
REMARK    3  A    between atoms: C_9  and  C_11
REMARK                            x       y       z     vdW  Elec       q    Type
REMARK                         _______ _______ _______ _____ _____    ______ ____
ROOT
ATOM      1  O   UNL     1       4.409   2.108  19.778  0.00  0.00    +0.000 OA
ATOM      2  C   UNL     1       3.626   3.000  20.093  0.00  0.00    +0.000 C 
ATOM      3  C   UNL     1       2.412   2.664  20.933  0.00  0.00    +0.000 C 
ATOM      4  C   UNL     1       1.221   3.471  20.466  0.00  0.00    +0.000 C 
ATOM      5  C   UNL     1       1.526   4.955  20.574  0.00  0.00    +0.000 C 
ATOM      6  C   UNL     1       2.859   5.320  19.961  0.00  0.00    +0.000 C 
ATOM      7  C   UNL     1       3.838   4.432  19.687  0.00  0.00    +0.000 C 
ENDROOT
BRANCH   6   8
ATOM      8  O   UNL     1       3.010   6.672  19.711  0.00  0.00    +0.000 OA
ATOM      9  H   UNL     1       3.748   6.816  19.093  0.00  0.00    +0.000 HD
ENDBRANCH   6   8
BRANCH   7  10
ATOM     10  C   UNL     1       5.143   4.844  19.063  0.00  0.00    +0.000 C 
ATOM     11  O   UNL     1       6.124   5.031  19.793  0.00  0.00    +0.000 OA
BRANCH  10  12
ATOM     12  C   UNL     1       5.211   5.036  17.512  0.00  0.00    +0.000 C 
ATOM     13  C   UNL     1       6.526   4.572  16.827  0.00  0.00    +0.000 C 
ATOM     14  C   UNL     1       5.703   3.875  15.741  0.00  0.00    +0.000 C 
ATOM     15  C   UNL     1       4.465   3.991  16.639  0.00  0.00    +0.000 C 
ENDBRANCH  10  12
ENDBRANCH   7  10
TORSDOF 3
ENDMDL
MODEL 8
REMARK VINA RESULT:      -6.2      2.470      3.814
REMARK  Name = 
REMARK  3 active torsions:
REMARK  status: ('A' for Active; 'I' for Inactive)
REMARK    1  A    between atoms: C_6  and  O_7
REMARK    2  A    between atoms: C_8  and  C_9
REMARK    3  A    between atoms: C_9  and  C_11
REMARK                            x       y       z     vdW  Elec       q    Type
REMARK                         _______ _______ _______ _____ _____    ______ ____
ROOT
ATOM      1  O   UNL     1       3.524   7.044  18.022  0.00  0.00    +0.000 OA
ATOM      2  C   UNL     1       3.557   5.842  17.770  0.00  0.00    +0.000 C 
ATOM      3  C   UNL     1       2.421   4.953  18.230  0.00  0.00    +0.000 C 
ATOM      4  C   UNL     1       2.964   3.618  18.691  0.00  0.00    +0.000 C 
ATOM      5  C   UNL     1       3.717   2.946  17.556  0.00  0.00    +0.000 C 
ATOM      6  C   UNL     1       4.707   3.871  16.886  0.00  0.00    +0.000 C 
ATOM      7  C   UNL     1       4.686   5.216  16.999  0.00  0.00    +0.000 C 
ENDROOT
BRANCH   6   8
ATOM      8  O   UNL     1       5.652   3.219  16.116  0.00  0.00    +0.000 OA
ATOM      9  H   UNL     1       5.447   3.331  15.171  0.00  0.00    +0.000 HD
ENDBRANCH   6   8
BRANCH   7  10
ATOM     10  C   UNL     1       5.704   6.094  16.323  0.00  0.00    +0.000 C 
ATOM     11  O   UNL     1       5.381   6.707  15.299  0.00  0.00    +0.000 OA
BRANCH  10  12
ATOM     12  C   UNL     1       7.141   6.191  16.933  0.00  0.00    +0.000 C 
ATOM     13  C   UNL     1       7.570   7.594  17.443  0.00  0.00    +0.000 C 
ATOM     14  C   UNL     1       8.110   6.953  18.724  0.00  0.00    +0.000 C 
ATOM     15  C   UNL     1       7.326   5.679  18.388  0.00  0.00    +0.000 C 
ENDBRANCH  10  12
ENDBRANCH   7  10
TORSDOF 3
ENDMDL
MODEL 9
REMARK VINA RESULT:      -6.2      1.838      2.687
REMARK  Name = 
REMARK  3 active torsions:
REMARK  status: ('A' for Active; 'I' for Inactive)
REMARK    1  A    between atoms: C_6  and  O_7
REMARK    2  A    between atoms: C_8  and  C_9
REMARK    3  A    between atoms: C_9  and  C_11
REMARK                            x       y       z     vdW  Elec       q    Type
REMARK                         _______ _______ _______ _____ _____    ______ ____
ROOT
ATOM      1  O   UNL     1       2.279   5.648  18.292  0.00  0.00    +0.000 OA
ATOM      2  C   UNL     1       2.461   4.680  19.026  0.00  0.00    +0.000 C 
ATOM      3  C   UNL     1       1.397   4.298  20.033  0.00  0.00    +0.000 C 
ATOM      4  C   UNL     1       2.045   3.840  21.321  0.00  0.00    +0.000 C 
ATOM      5  C   UNL     1       2.950   2.651  21.051  0.00  0.00    +0.000 C 
ATOM      6  C   UNL     1       3.882   2.882  19.883  0.00  0.00    +0.000 C 
ATOM      7  C   UNL     1       3.707   3.841  18.950  0.00  0.00    +0.000 C 
ENDROOT
BRANCH   6   8
ATOM      8  O   UNL     1       4.948   2.003  19.833  0.00  0.00    +0.000 OA
ATOM      9  H   UNL     1       5.196   1.832  18.907  0.00  0.00    +0.000 HD
ENDBRANCH   6   8
BRANCH   7  10
ATOM     10  C   UNL     1       4.671   4.040  17.813  0.00  0.00    +0.000 C 
ATOM     11  O   UNL     1       4.618   3.277  16.841  0.00  0.00    +0.000 OA
BRANCH  10  12
ATOM     12  C   UNL     1       5.718   5.199  17.905  0.00  0.00    +0.000 C 
ATOM     13  C   UNL     1       6.336   5.446  19.309  0.00  0.00    +0.000 C 
ATOM     14  C   UNL     1       7.725   5.531  18.673  0.00  0.00    +0.000 C 
ATOM     15  C   UNL     1       7.155   4.892  17.400  0.00  0.00    +0.000 C 
ENDBRANCH  10  12
ENDBRANCH   7  10
TORSDOF 3
ENDMDL
