MODEL 1
REMARK VINA RESULT:      -8.1      0.000      0.000
REMARK  Name = 
REMARK  3 active torsions:
REMARK  status: ('A' for Active; 'I' for Inactive)
REMARK    1  A    between atoms: C_2  and  C_3
REMARK    2  A    between atoms: C_2  and  C_10
REMARK    3  A    between atoms: C_3  and  C_4
REMARK                            x       y       z     vdW  Elec       q    Type
REMARK                         _______ _______ _______ _____ _____    ______ ____
ROOT
ATOM      1  C   UNL     1       5.655   4.906  19.269  0.00  0.00    +0.000 A 
ATOM      2  C   UNL     1       4.397   5.439  19.474  0.00  0.00    +0.000 A 
ATOM      3  C   UNL     1       3.433   4.440  19.171  0.00  0.00    +0.000 A 
ATOM      4  C   UNL     1       2.027   4.411  19.165  0.00  0.00    +0.000 A 
ATOM      5  C   UNL     1       1.370   3.231  18.799  0.00  0.00    +0.000 A 
ATOM      6  C   UNL     1       2.096   2.091  18.459  0.00  0.00    +0.000 A 
ATOM      7  C   UNL     1       3.494   2.096  18.461  0.00  0.00    +0.000 A 
ATOM      8  C   UNL     1       4.134   3.290  18.812  0.00  0.00    +0.000 A 
ATOM      9  N   UNL     1       5.473   3.601  18.870  0.00  0.00    +0.000 N 
ATOM     10  H   UNL     1       6.226   2.968  18.639  0.00  0.00    +0.000 HD
ENDROOT
BRANCH   1  12
ATOM     11  O   UNL     1       7.659   5.316  20.412  0.00  0.00    +0.000 OA
ATOM     12  C   UNL     1       6.973   5.499  19.406  0.00  0.00    +0.000 C 
BRANCH  12  13
ATOM     13  C   UNL     1       7.498   6.334  18.262  0.00  0.00    +0.000 C 
BRANCH  13  14
ATOM     14  C   UNL     1       6.946   5.907  16.935  0.00  0.00    +0.000 A 
ATOM     15  C   UNL     1       5.919   6.615  16.318  0.00  0.00    +0.000 A 
ATOM     16  N   UNL     1       5.363   6.231  15.144  0.00  0.00    +0.000 NA
ATOM     17  C   UNL     1       5.871   5.102  14.605  0.00  0.00    +0.000 A 
ATOM     18  C   UNL     1       6.893   4.391  15.208  0.00  0.00    +0.000 A 
ATOM     19  N   UNL     1       7.454   4.774  16.379  0.00  0.00    +0.000 NA
ENDBRANCH  13  14
ENDBRANCH  12  13
ENDBRANCH   1  12
TORSDOF 3
ENDMDL
MODEL 2
REMARK VINA RESULT:      -7.7      0.698      1.172
REMARK  Name = 
REMARK  3 active torsions:
REMARK  status: ('A' for Active; 'I' for Inactive)
REMARK    1  A    between atoms: C_2  and  C_3
REMARK    2  A    between atoms: C_2  and  C_10
REMARK    3  A    between atoms: C_3  and  C_4
REMARK                            x       y       z     vdW  Elec       q    Type
REMARK                         _______ _______ _______ _____ _____    ______ ____
ROOT
ATOM      1  C   UNL     1       5.585   4.883  19.304  0.00  0.00    +0.000 A 
ATOM      2  C   UNL     1       4.342   5.475  19.417  0.00  0.00    +0.000 A 
ATOM      3  C   UNL     1       3.352   4.463  19.297  0.00  0.00    +0.000 A 
ATOM      4  C   UNL     1       1.946   4.469  19.300  0.00  0.00    +0.000 A 
ATOM      5  C   UNL     1       1.258   3.260  19.149  0.00  0.00    +0.000 A 
ATOM      6  C   UNL     1       1.953   2.060  19.012  0.00  0.00    +0.000 A 
ATOM      7  C   UNL     1       3.351   2.030  19.008  0.00  0.00    +0.000 A 
ATOM      8  C   UNL     1       4.022   3.251  19.142  0.00  0.00    +0.000 A 
ATOM      9  N   UNL     1       5.369   3.533  19.141  0.00  0.00    +0.000 N 
ATOM     10  H   UNL     1       6.105   2.851  19.022  0.00  0.00    +0.000 HD
ENDROOT
BRANCH   1  12
ATOM     11  O   UNL     1       7.649   5.340  20.316  0.00  0.00    +0.000 OA
ATOM     12  C   UNL     1       6.918   5.458  19.332  0.00  0.00    +0.000 C 
BRANCH  12  13
ATOM     13  C   UNL     1       7.401   6.188  18.101  0.00  0.00    +0.000 C 
BRANCH  13  14
ATOM     14  C   UNL     1       6.772   5.675  16.840  0.00  0.00    +0.000 A 
ATOM     15  C   UNL     1       7.189   4.481  16.259  0.00  0.00    +0.000 A 
ATOM     16  N   UNL     1       6.678   4.013  15.095  0.00  0.00    +0.000 NA
ATOM     17  C   UNL     1       5.731   4.788  14.526  0.00  0.00    +0.000 A 
ATOM     18  C   UNL     1       5.306   5.975  15.095  0.00  0.00    +0.000 A 
ATOM     19  N   UNL     1       5.812   6.444  16.260  0.00  0.00    +0.000 NA
ENDBRANCH  13  14
ENDBRANCH  12  13
ENDBRANCH   1  12
TORSDOF 3
ENDMDL
MODEL 3
REMARK VINA RESULT:      -7.5      1.832      5.434
REMARK  Name = 
REMARK  3 active torsions:
REMARK  status: ('A' for Active; 'I' for Inactive)
REMARK    1  A    between atoms: C_2  and  C_3
REMARK    2  A    between atoms: C_2  and  C_10
REMARK    3  A    between atoms: C_3  and  C_4
REMARK                            x       y       z     vdW  Elec       q    Type
REMARK                         _______ _______ _______ _____ _____    ______ ____
ROOT
ATOM      1  C   UNL     1       6.746   4.652  16.430  0.00  0.00    +0.000 A 
ATOM      2  C   UNL     1       5.910   3.821  15.710  0.00  0.00    +0.000 A 
ATOM      3  C   UNL     1       6.219   3.965  14.330  0.00  0.00    +0.000 A 
ATOM      4  C   UNL     1       5.692   3.409  13.151  0.00  0.00    +0.000 A 
ATOM      5  C   UNL     1       6.240   3.780  11.917  0.00  0.00    +0.000 A 
ATOM      6  C   UNL     1       7.304   4.676  11.855  0.00  0.00    +0.000 A 
ATOM      7  C   UNL     1       7.845   5.239  13.015  0.00  0.00    +0.000 A 
ATOM      8  C   UNL     1       7.273   4.871  14.238  0.00  0.00    +0.000 A 
ATOM      9  N   UNL     1       7.567   5.278  15.518  0.00  0.00    +0.000 N 
ATOM     10  H   UNL     1       8.276   5.954  15.764  0.00  0.00    +0.000 HD
ENDROOT
BRANCH   1  12
ATOM     11  O   UNL     1       7.878   4.705  18.482  0.00  0.00    +0.000 OA
ATOM     12  C   UNL     1       6.836   4.906  17.857  0.00  0.00    +0.000 C 
BRANCH  12  13
ATOM     13  C   UNL     1       5.615   5.452  18.559  0.00  0.00    +0.000 C 
BRANCH  13  14
ATOM     14  C   UNL     1       4.615   4.386  18.892  0.00  0.00    +0.000 A 
ATOM     15  C   UNL     1       3.271   4.525  18.556  0.00  0.00    +0.000 A 
ATOM     16  N   UNL     1       2.333   3.606  18.885  0.00  0.00    +0.000 NA
ATOM     17  C   UNL     1       2.786   2.535  19.571  0.00  0.00    +0.000 A 
ATOM     18  C   UNL     1       4.119   2.385  19.909  0.00  0.00    +0.000 A 
ATOM     19  N   UNL     1       5.060   3.300  19.579  0.00  0.00    +0.000 NA
ENDBRANCH  13  14
ENDBRANCH  12  13
ENDBRANCH   1  12
TORSDOF 3
ENDMDL
MODEL 4
REMARK VINA RESULT:      -7.5      2.211      2.625
REMARK  Name = 
REMARK  3 active torsions:
REMARK  status: ('A' for Active; 'I' for Inactive)
REMARK    1  A    between atoms: C_2  and  C_3
REMARK    2  A    between atoms: C_2  and  C_10
REMARK    3  A    between atoms: C_3  and  C_4
REMARK                            x       y       z     vdW  Elec       q    Type
REMARK                         _______ _______ _______ _____ _____    ______ ____
ROOT
ATOM      1  C   UNL     1       4.392   5.183  17.231  0.00  0.00    +0.000 A 
ATOM      2  C   UNL     1       3.666   5.647  18.310  0.00  0.00    +0.000 A 
ATOM      3  C   UNL     1       2.737   4.641  18.690  0.00  0.00    +0.000 A 
ATOM      4  C   UNL     1       1.738   4.558  19.676  0.00  0.00    +0.000 A 
ATOM      5  C   UNL     1       0.975   3.389  19.779  0.00  0.00    +0.000 A 
ATOM      6  C   UNL     1       1.210   2.312  18.927  0.00  0.00    +0.000 A 
ATOM      7  C   UNL     1       2.201   2.371  17.941  0.00  0.00    +0.000 A 
ATOM      8  C   UNL     1       2.940   3.554  17.841  0.00  0.00    +0.000 A 
ATOM      9  N   UNL     1       3.939   3.910  16.964  0.00  0.00    +0.000 N 
ATOM     10  H   UNL     1       4.287   3.329  16.214  0.00  0.00    +0.000 HD
ENDROOT
BRANCH   1  12
ATOM     11  O   UNL     1       5.352   6.983  16.077  0.00  0.00    +0.000 OA
ATOM     12  C   UNL     1       5.441   5.812  16.449  0.00  0.00    +0.000 C 
BRANCH  12  13
ATOM     13  C   UNL     1       6.670   4.996  16.123  0.00  0.00    +0.000 C 
BRANCH  13  14
ATOM     14  C   UNL     1       6.842   4.775  14.650  0.00  0.00    +0.000 A 
ATOM     15  C   UNL     1       6.078   3.834  13.966  0.00  0.00    +0.000 A 
ATOM     16  N   UNL     1       6.241   3.574  12.647  0.00  0.00    +0.000 NA
ATOM     17  C   UNL     1       7.205   4.290  12.030  0.00  0.00    +0.000 A 
ATOM     18  C   UNL     1       7.970   5.229  12.698  0.00  0.00    +0.000 A 
ATOM     19  N   UNL     1       7.807   5.495  14.016  0.00  0.00    +0.000 NA
ENDBRANCH  13  14
ENDBRANCH  12  13
ENDBRANCH   1  12
TORSDOF 3
ENDMDL
MODEL 5
REMARK VINA RESULT:      -7.5      2.290      2.986
REMARK  Name = 
REMARK  3 active torsions:
REMARK  status: ('A' for Active; 'I' for Inactive)
REMARK    1  A    between atoms: C_2  and  C_3
REMARK    2  A    between atoms: C_2  and  C_10
REMARK    3  A    between atoms: C_3  and  C_4
REMARK                            x       y       z     vdW  Elec       q    Type
REMARK                         _______ _______ _______ _____ _____    ______ ____
ROOT
ATOM      1  C   UNL     1       4.202   5.090  17.219  0.00  0.00    +0.000 A 
ATOM      2  C   UNL     1       3.362   4.021  16.973  0.00  0.00    +0.000 A 
ATOM      3  C   UNL     1       2.529   3.837  18.109  0.00  0.00    +0.000 A 
ATOM      4  C   UNL     1       1.525   2.911  18.442  0.00  0.00    +0.000 A 
ATOM      5  C   UNL     1       0.887   3.012  19.684  0.00  0.00    +0.000 A 
ATOM      6  C   UNL     1       1.228   4.026  20.576  0.00  0.00    +0.000 A 
ATOM      7  C   UNL     1       2.222   4.959  20.265  0.00  0.00    +0.000 A 
ATOM      8  C   UNL     1       2.861   4.832  19.027  0.00  0.00    +0.000 A 
ATOM      9  N   UNL     1       3.880   5.569  18.469  0.00  0.00    +0.000 N 
ATOM     10  H   UNL     1       4.345   6.348  18.915  0.00  0.00    +0.000 HD
ENDROOT
BRANCH   1  12
ATOM     11  O   UNL     1       5.162   6.830  15.975  0.00  0.00    +0.000 OA
ATOM     12  C   UNL     1       5.252   5.680  16.409  0.00  0.00    +0.000 C 
BRANCH  12  13
ATOM     13  C   UNL     1       6.484   4.851  16.129  0.00  0.00    +0.000 C 
BRANCH  13  14
ATOM     14  C   UNL     1       6.757   4.699  14.663  0.00  0.00    +0.000 A 
ATOM     15  C   UNL     1       6.069   3.766  13.893  0.00  0.00    +0.000 A 
ATOM     16  N   UNL     1       6.325   3.567  12.578  0.00  0.00    +0.000 NA
ATOM     17  C   UNL     1       7.304   4.337  12.055  0.00  0.00    +0.000 A 
ATOM     18  C   UNL     1       7.993   5.269  12.810  0.00  0.00    +0.000 A 
ATOM     19  N   UNL     1       7.737   5.473  14.124  0.00  0.00    +0.000 NA
ENDBRANCH  13  14
ENDBRANCH  12  13
ENDBRANCH   1  12
TORSDOF 3
ENDMDL
MODEL 6
REMARK VINA RESULT:      -7.5      0.931      1.553
REMARK  Name = 
REMARK  3 active torsions:
REMARK  status: ('A' for Active; 'I' for Inactive)
REMARK    1  A    between atoms: C_2  and  C_3
REMARK    2  A    between atoms: C_2  and  C_10
REMARK    3  A    between atoms: C_3  and  C_4
REMARK                            x       y       z     vdW  Elec       q    Type
REMARK                         _______ _______ _______ _____ _____    ______ ____
ROOT
ATOM      1  C   UNL     1       5.389   4.914  19.396  0.00  0.00    +0.000 A 
ATOM      2  C   UNL     1       4.974   3.639  19.061  0.00  0.00    +0.000 A 
ATOM      3  C   UNL     1       3.587   3.531  19.350  0.00  0.00    +0.000 A 
ATOM      4  C   UNL     1       2.649   2.488  19.248  0.00  0.00    +0.000 A 
ATOM      5  C   UNL     1       1.324   2.722  19.634  0.00  0.00    +0.000 A 
ATOM      6  C   UNL     1       0.932   3.976  20.098  0.00  0.00    +0.000 A 
ATOM      7  C   UNL     1       1.847   5.028  20.205  0.00  0.00    +0.000 A 
ATOM      8  C   UNL     1       3.171   4.770  19.832  0.00  0.00    +0.000 A 
ATOM      9  N   UNL     1       4.279   5.584  19.859  0.00  0.00    +0.000 N 
ATOM     10  H   UNL     1       4.290   6.540  20.186  0.00  0.00    +0.000 HD
ENDROOT
BRANCH   1  12
ATOM     11  O   UNL     1       7.576   5.287  20.152  0.00  0.00    +0.000 OA
ATOM     12  C   UNL     1       6.699   5.537  19.325  0.00  0.00    +0.000 C 
BRANCH  12  13
ATOM     13  C   UNL     1       6.971   6.489  18.184  0.00  0.00    +0.000 C 
BRANCH  13  14
ATOM     14  C   UNL     1       6.656   5.891  16.845  0.00  0.00    +0.000 A 
ATOM     15  C   UNL     1       5.608   6.374  16.066  0.00  0.00    +0.000 A 
ATOM     16  N   UNL     1       5.265   5.826  14.876  0.00  0.00    +0.000 NA
ATOM     17  C   UNL     1       6.009   4.768  14.490  0.00  0.00    +0.000 A 
ATOM     18  C   UNL     1       7.053   4.280  15.254  0.00  0.00    +0.000 A 
ATOM     19  N   UNL     1       7.402   4.827  16.442  0.00  0.00    +0.000 NA
ENDBRANCH  13  14
ENDBRANCH  12  13
ENDBRANCH   1  12
TORSDOF 3
ENDMDL
MODEL 7
REMARK VINA RESULT:      -7.4      1.622      1.880
REMARK  Name = 
REMARK  3 active torsions:
REMARK  status: ('A' for Active; 'I' for Inactive)
REMARK    1  A    between atoms: C_2  and  C_3
REMARK    2  A    between atoms: C_2  and  C_10
REMARK    3  A    between atoms: C_3  and  C_4
REMARK                            x       y       z     vdW  Elec       q    Type
REMARK                         _______ _______ _______ _____ _____    ______ ____
ROOT
ATOM      1  C   UNL     1       5.437   4.564  18.328  0.00  0.00    +0.000 A 
ATOM      2  C   UNL     1       4.217   5.202  18.218  0.00  0.00    +0.000 A 
ATOM      3  C   UNL     1       3.276   4.509  19.027  0.00  0.00    +0.000 A 
ATOM      4  C   UNL     1       1.903   4.673  19.283  0.00  0.00    +0.000 A 
ATOM      5  C   UNL     1       1.261   3.784  20.152  0.00  0.00    +0.000 A 
ATOM      6  C   UNL     1       1.971   2.758  20.771  0.00  0.00    +0.000 A 
ATOM      7  C   UNL     1       3.337   2.578  20.533  0.00  0.00    +0.000 A 
ATOM      8  C   UNL     1       3.959   3.464  19.647  0.00  0.00    +0.000 A 
ATOM      9  N   UNL     1       5.260   3.514  19.201  0.00  0.00    +0.000 N 
ATOM     10  H   UNL     1       5.988   2.864  19.462  0.00  0.00    +0.000 HD
ENDROOT
BRANCH   1  12
ATOM     11  O   UNL     1       7.743   4.255  18.041  0.00  0.00    +0.000 OA
ATOM     12  C   UNL     1       6.716   4.843  17.699  0.00  0.00    +0.000 C 
BRANCH  12  13
ATOM     13  C   UNL     1       6.752   5.863  16.586  0.00  0.00    +0.000 C 
BRANCH  13  14
ATOM     14  C   UNL     1       6.706   5.235  15.225  0.00  0.00    +0.000 A 
ATOM     15  C   UNL     1       5.674   4.375  14.861  0.00  0.00    +0.000 A 
ATOM     16  N   UNL     1       5.627   3.753  13.659  0.00  0.00    +0.000 NA
ATOM     17  C   UNL     1       6.658   4.018  12.828  0.00  0.00    +0.000 A 
ATOM     18  C   UNL     1       7.688   4.872  13.178  0.00  0.00    +0.000 A 
ATOM     19  N   UNL     1       7.736   5.499  14.378  0.00  0.00    +0.000 NA
ENDBRANCH  13  14
ENDBRANCH  12  13
ENDBRANCH   1  12
TORSDOF 3
ENDMDL
MODEL 8
REMARK VINA RESULT:      -7.4      2.171      3.151
REMARK  Name = 
REMARK  3 active torsions:
REMARK  status: ('A' for Active; 'I' for Inactive)
REMARK    1  A    between atoms: C_2  and  C_3
REMARK    2  A    between atoms: C_2  and  C_10
REMARK    3  A    between atoms: C_3  and  C_4
REMARK                            x       y       z     vdW  Elec       q    Type
REMARK                         _______ _______ _______ _____ _____    ______ ____
ROOT
ATOM      1  C   UNL     1       4.481   4.069  16.637  0.00  0.00    +0.000 A 
ATOM      2  C   UNL     1       3.675   5.001  17.261  0.00  0.00    +0.000 A 
ATOM      3  C   UNL     1       2.943   4.344  18.287  0.00  0.00    +0.000 A 
ATOM      4  C   UNL     1       1.970   4.763  19.211  0.00  0.00    +0.000 A 
ATOM      5  C   UNL     1       1.434   3.831  20.107  0.00  0.00    +0.000 A 
ATOM      6  C   UNL     1       1.868   2.507  20.098  0.00  0.00    +0.000 A 
ATOM      7  C   UNL     1       2.837   2.069  19.189  0.00  0.00    +0.000 A 
ATOM      8  C   UNL     1       3.348   3.011  18.289  0.00  0.00    +0.000 A 
ATOM      9  N   UNL     1       4.270   2.869  17.278  0.00  0.00    +0.000 N 
ATOM     10  H   UNL     1       4.724   2.003  17.024  0.00  0.00    +0.000 HD
ENDROOT
BRANCH   1  12
ATOM     11  O   UNL     1       5.000   4.398  14.375  0.00  0.00    +0.000 OA
ATOM     12  C   UNL     1       5.402   4.203  15.523  0.00  0.00    +0.000 C 
BRANCH  12  13
ATOM     13  C   UNL     1       6.883   4.123  15.813  0.00  0.00    +0.000 C 
BRANCH  13  14
ATOM     14  C   UNL     1       7.318   5.091  16.871  0.00  0.00    +0.000 A 
ATOM     15  C   UNL     1       7.642   4.661  18.155  0.00  0.00    +0.000 A 
ATOM     16  N   UNL     1       7.990   5.513  19.149  0.00  0.00    +0.000 NA
ATOM     17  C   UNL     1       8.000   6.821  18.814  0.00  0.00    +0.000 A 
ATOM     18  C   UNL     1       7.681   7.260  17.542  0.00  0.00    +0.000 A 
ATOM     19  N   UNL     1       7.336   6.411  16.545  0.00  0.00    +0.000 NA
ENDBRANCH  13  14
ENDBRANCH  12  13
ENDBRANCH   1  12
TORSDOF 3
ENDMDL
MODEL 9
REMARK VINA RESULT:      -7.4      1.882      5.486
REMARK  Name = 
REMARK  3 active torsions:
REMARK  status: ('A' for Active; 'I' for Inactive)
REMARK    1  A    between atoms: C_2  and  C_3
REMARK    2  A    between atoms: C_2  and  C_10
REMARK    3  A    between atoms: C_3  and  C_4
REMARK                            x       y       z     vdW  Elec       q    Type
REMARK                         _______ _______ _______ _____ _____    ______ ____
ROOT
ATOM      1  C   UNL     1       6.642   4.636  16.396  0.00  0.00    +0.000 A 
ATOM      2  C   UNL     1       5.882   3.773  15.630  0.00  0.00    +0.000 A 
ATOM      3  C   UNL     1       6.247   3.944  14.268  0.00  0.00    +0.000 A 
ATOM      4  C   UNL     1       5.803   3.375  13.061  0.00  0.00    +0.000 A 
ATOM      5  C   UNL     1       6.390   3.783  11.858  0.00  0.00    +0.000 A 
ATOM      6  C   UNL     1       7.412   4.729  11.852  0.00  0.00    +0.000 A 
ATOM      7  C   UNL     1       7.871   5.307  13.040  0.00  0.00    +0.000 A 
ATOM      8  C   UNL     1       7.260   4.900  14.232  0.00  0.00    +0.000 A 
ATOM      9  N   UNL     1       7.474   5.309  15.528  0.00  0.00    +0.000 N 
ATOM     10  H   UNL     1       8.137   6.016  15.812  0.00  0.00    +0.000 HD
ENDROOT
BRANCH   1  12
ATOM     11  O   UNL     1       7.627   4.591  18.522  0.00  0.00    +0.000 OA
ATOM     12  C   UNL     1       6.653   4.880  17.827  0.00  0.00    +0.000 C 
BRANCH  12  13
ATOM     13  C   UNL     1       5.437   5.529  18.445  0.00  0.00    +0.000 C 
BRANCH  13  14
ATOM     14  C   UNL     1       4.264   4.598  18.528  0.00  0.00    +0.000 A 
ATOM     15  C   UNL     1       4.331   3.416  19.260  0.00  0.00    +0.000 A 
ATOM     16  N   UNL     1       3.309   2.529  19.316  0.00  0.00    +0.000 NA
ATOM     17  C   UNL     1       2.211   2.864  18.606  0.00  0.00    +0.000 A 
ATOM     18  C   UNL     1       2.132   4.037  17.876  0.00  0.00    +0.000 A 
ATOM     19  N   UNL     1       3.150   4.928  17.821  0.00  0.00    +0.000 NA
ENDBRANCH  13  14
ENDBRANCH  12  13
ENDBRANCH   1  12
TORSDOF 3
ENDMDL
