MODEL 1
REMARK VINA RESULT:      -7.7      0.000      0.000
REMARK  Name = 
REMARK  3 active torsions:
REMARK  status: ('A' for Active; 'I' for Inactive)
REMARK    1  A    between atoms: N_3  and  C_4
REMARK    2  A    between atoms: C_19  and  C_20
REMARK    3  A    between atoms: C_23  and  C_24
REMARK                            x       y       z     vdW  Elec       q    Type
REMARK                         _______ _______ _______ _____ _____    ______ ____
ROOT
ATOM      1  O   UNL     1       2.264   8.400  20.763  0.00  0.00    +0.000 OA
ATOM      2  C   UNL     1       1.922   7.814  19.739  0.00  0.00    +0.000 C 
ATOM      3  N   UNL     1       1.120   8.389  18.774  0.00  0.00    +0.000 N 
ATOM      4  N   UNL     1       2.301   6.497  19.530  0.00  0.00    +0.000 N 
ATOM      5  C   UNL     1       2.902   5.786  20.686  0.00  0.00    +0.000 C 
ATOM      6  C   UNL     1       2.054   4.579  21.164  0.00  0.00    +0.000 C 
ATOM      7  C   UNL     1       1.442   3.867  20.011  0.00  0.00    +0.000 A 
ATOM      8  C   UNL     1       0.816   2.608  19.883  0.00  0.00    +0.000 A 
ATOM      9  C   UNL     1       0.458   2.494  18.555  0.00  0.00    +0.000 A 
ATOM     10  O   UNL     1       0.827   3.602  17.854  0.00  0.00    +0.000 OA
ATOM     11  C   UNL     1       1.437   4.419  18.748  0.00  0.00    +0.000 A 
ATOM     12  C   UNL     1       2.096   5.686  18.295  0.00  0.00    +0.000 C 
ATOM     13  H   UNL     1       0.614   7.763  18.169  0.00  0.00    +0.000 HD
ENDROOT
BRANCH   3  14
ATOM     14  C   UNL     1       0.607   9.710  18.804  0.00  0.00    +0.000 A 
ATOM     15  C   UNL     1      -0.739  10.015  19.039  0.00  0.00    +0.000 A 
ATOM     16  C   UNL     1      -1.194  11.334  18.967  0.00  0.00    +0.000 A 
ATOM     17  C   UNL     1      -0.299  12.354  18.686  0.00  0.00    +0.000 A 
ATOM     18  F   UNL     1      -0.738  13.615  18.597  0.00  0.00    +0.000 F 
ATOM     19  C   UNL     1       1.050  12.082  18.496  0.00  0.00    +0.000 A 
ATOM     20  C   UNL     1       1.505  10.760  18.560  0.00  0.00    +0.000 A 
ENDBRANCH   3  14
BRANCH  12  21
ATOM     21  C   UNL     1       3.403   5.427  17.538  0.00  0.00    +0.000 A 
ATOM     22  C   UNL     1       4.161   6.503  17.051  0.00  0.00    +0.000 A 
ATOM     23  C   UNL     1       5.321   6.278  16.295  0.00  0.00    +0.000 A 
ATOM     24  C   UNL     1       5.760   4.975  16.024  0.00  0.00    +0.000 A 
ATOM     25  C   UNL     1       5.021   3.898  16.523  0.00  0.00    +0.000 A 
ATOM     26  C   UNL     1       3.865   4.123  17.270  0.00  0.00    +0.000 A 
BRANCH  24  27
ATOM     27  C   UNL     1       7.003   4.705  15.211  0.00  0.00    +0.000 C 
ATOM     28  F   UNL     1       7.421   5.774  14.477  0.00  0.00    +0.000 F 
ATOM     29  F   UNL     1       8.063   4.349  15.989  0.00  0.00    +0.000 F 
ATOM     30  F   UNL     1       6.836   3.685  14.324  0.00  0.00    +0.000 F 
ENDBRANCH  24  27
ENDBRANCH  12  21
TORSDOF 3
ENDMDL
MODEL 2
REMARK VINA RESULT:      -7.6      2.754      9.109
REMARK  Name = 
REMARK  3 active torsions:
REMARK  status: ('A' for Active; 'I' for Inactive)
REMARK    1  A    between atoms: N_3  and  C_4
REMARK    2  A    between atoms: C_19  and  C_20
REMARK    3  A    between atoms: C_23  and  C_24
REMARK                            x       y       z     vdW  Elec       q    Type
REMARK                         _______ _______ _______ _____ _____    ______ ____
ROOT
ATOM      1  O   UNL     1       1.655   7.779  20.561  0.00  0.00    +0.000 OA
ATOM      2  C   UNL     1       1.540   8.531  19.597  0.00  0.00    +0.000 C 
ATOM      3  N   UNL     1       2.024   8.224  18.340  0.00  0.00    +0.000 N 
ATOM      4  N   UNL     1       0.946   9.774  19.748  0.00  0.00    +0.000 N 
ATOM      5  C   UNL     1       0.699  10.228  21.140  0.00  0.00    +0.000 C 
ATOM      6  C   UNL     1       1.498  11.503  21.514  0.00  0.00    +0.000 C 
ATOM      7  C   UNL     1       1.573  12.442  20.363  0.00  0.00    +0.000 A 
ATOM      8  C   UNL     1       1.948  13.799  20.253  0.00  0.00    +0.000 A 
ATOM      9  C   UNL     1       1.803  14.127  18.921  0.00  0.00    +0.000 A 
ATOM     10  O   UNL     1       1.359  13.060  18.201  0.00  0.00    +0.000 OA
ATOM     11  C   UNL     1       1.209  12.049  19.092  0.00  0.00    +0.000 A 
ATOM     12  C   UNL     1       0.602  10.746  18.670  0.00  0.00    +0.000 C 
ATOM     13  H   UNL     1       2.202   8.997  17.719  0.00  0.00    +0.000 HD
ENDROOT
BRANCH   3  14
ATOM     14  C   UNL     1       2.680   7.022  17.978  0.00  0.00    +0.000 A 
ATOM     15  C   UNL     1       2.094   5.754  18.086  0.00  0.00    +0.000 A 
ATOM     16  C   UNL     1       2.829   4.602  17.794  0.00  0.00    +0.000 A 
ATOM     17  C   UNL     1       4.142   4.716  17.368  0.00  0.00    +0.000 A 
ATOM     18  F   UNL     1       4.853   3.611  17.109  0.00  0.00    +0.000 F 
ATOM     19  C   UNL     1       4.731   5.964  17.208  0.00  0.00    +0.000 A 
ATOM     20  C   UNL     1       3.998   7.118  17.507  0.00  0.00    +0.000 A 
ENDBRANCH   3  14
BRANCH  12  21
ATOM     21  C   UNL     1      -0.909  10.853  18.435  0.00  0.00    +0.000 A 
ATOM     22  C   UNL     1      -1.534  10.031  17.486  0.00  0.00    +0.000 A 
ATOM     23  C   UNL     1      -2.902  10.168  17.209  0.00  0.00    +0.000 A 
ATOM     24  C   UNL     1      -3.680  11.116  17.888  0.00  0.00    +0.000 A 
ATOM     25  C   UNL     1      -3.068  11.925  18.849  0.00  0.00    +0.000 A 
ATOM     26  C   UNL     1      -1.706  11.792  19.119  0.00  0.00    +0.000 A 
BRANCH  24  27
ATOM     27  C   UNL     1      -5.153  11.287  17.608  0.00  0.00    +0.000 C 
ATOM     28  F   UNL     1      -5.941  10.370  18.235  0.00  0.00    +0.000 F 
ATOM     29  F   UNL     1      -5.617  12.507  17.998  0.00  0.00    +0.000 F 
ATOM     30  F   UNL     1      -5.448  11.186  16.281  0.00  0.00    +0.000 F 
ENDBRANCH  24  27
ENDBRANCH  12  21
TORSDOF 3
ENDMDL
MODEL 3
REMARK VINA RESULT:      -7.6      2.778      9.175
REMARK  Name = 
REMARK  3 active torsions:
REMARK  status: ('A' for Active; 'I' for Inactive)
REMARK    1  A    between atoms: N_3  and  C_4
REMARK    2  A    between atoms: C_19  and  C_20
REMARK    3  A    between atoms: C_23  and  C_24
REMARK                            x       y       z     vdW  Elec       q    Type
REMARK                         _______ _______ _______ _____ _____    ______ ____
ROOT
ATOM      1  O   UNL     1       1.727   7.924  20.615  0.00  0.00    +0.000 OA
ATOM      2  C   UNL     1       1.582   8.641  19.629  0.00  0.00    +0.000 C 
ATOM      3  N   UNL     1       2.044   8.299  18.373  0.00  0.00    +0.000 N 
ATOM      4  N   UNL     1       0.973   9.880  19.751  0.00  0.00    +0.000 N 
ATOM      5  C   UNL     1       0.748  10.378  21.132  0.00  0.00    +0.000 C 
ATOM      6  C   UNL     1       1.536  11.675  21.445  0.00  0.00    +0.000 C 
ATOM      7  C   UNL     1       1.573  12.575  20.262  0.00  0.00    +0.000 A 
ATOM      8  C   UNL     1       1.926  13.933  20.100  0.00  0.00    +0.000 A 
ATOM      9  C   UNL     1       1.749  14.214  18.760  0.00  0.00    +0.000 A 
ATOM     10  O   UNL     1       1.305  13.117  18.086  0.00  0.00    +0.000 OA
ATOM     11  C   UNL     1       1.189  12.135  19.014  0.00  0.00    +0.000 A 
ATOM     12  C   UNL     1       0.592  10.810  18.649  0.00  0.00    +0.000 C 
ATOM     13  H   UNL     1       2.198   9.052  17.723  0.00  0.00    +0.000 HD
ENDROOT
BRANCH   3  14
ATOM     14  C   UNL     1       2.710   7.094  18.037  0.00  0.00    +0.000 A 
ATOM     15  C   UNL     1       4.013   7.043  17.528  0.00  0.00    +0.000 A 
ATOM     16  C   UNL     1       4.578   5.828  17.134  0.00  0.00    +0.000 A 
ATOM     17  C   UNL     1       3.851   4.657  17.273  0.00  0.00    +0.000 A 
ATOM     18  F   UNL     1       4.384   3.495  16.876  0.00  0.00    +0.000 F 
ATOM     19  C   UNL     1       2.573   4.675  17.820  0.00  0.00    +0.000 A 
ATOM     20  C   UNL     1       2.004   5.893  18.207  0.00  0.00    +0.000 A 
ENDBRANCH   3  14
BRANCH  12  21
ATOM     21  C   UNL     1      -0.924  10.888  18.442  0.00  0.00    +0.000 A 
ATOM     22  C   UNL     1      -1.553  10.046  17.513  0.00  0.00    +0.000 A 
ATOM     23  C   UNL     1      -2.929  10.156  17.262  0.00  0.00    +0.000 A 
ATOM     24  C   UNL     1      -3.710  11.097  17.947  0.00  0.00    +0.000 A 
ATOM     25  C   UNL     1      -3.094  11.926  18.889  0.00  0.00    +0.000 A 
ATOM     26  C   UNL     1      -1.725  11.819  19.133  0.00  0.00    +0.000 A 
BRANCH  24  27
ATOM     27  C   UNL     1      -5.191  11.238  17.694  0.00  0.00    +0.000 C 
ATOM     28  F   UNL     1      -5.527  11.218  16.374  0.00  0.00    +0.000 F 
ATOM     29  F   UNL     1      -5.913  10.242  18.279  0.00  0.00    +0.000 F 
ATOM     30  F   UNL     1      -5.698  12.401  18.191  0.00  0.00    +0.000 F 
ENDBRANCH  24  27
ENDBRANCH  12  21
TORSDOF 3
ENDMDL
MODEL 4
REMARK VINA RESULT:      -7.5      3.290      8.961
REMARK  Name = 
REMARK  3 active torsions:
REMARK  status: ('A' for Active; 'I' for Inactive)
REMARK    1  A    between atoms: N_3  and  C_4
REMARK    2  A    between atoms: C_19  and  C_20
REMARK    3  A    between atoms: C_23  and  C_24
REMARK                            x       y       z     vdW  Elec       q    Type
REMARK                         _______ _______ _______ _____ _____    ______ ____
ROOT
ATOM      1  O   UNL     1       1.155   8.216  21.770  0.00  0.00    +0.000 OA
ATOM      2  C   UNL     1       1.277   8.604  20.612  0.00  0.00    +0.000 C 
ATOM      3  N   UNL     1       1.872   7.848  19.621  0.00  0.00    +0.000 N 
ATOM      4  N   UNL     1       0.853   9.875  20.254  0.00  0.00    +0.000 N 
ATOM      5  C   UNL     1       0.493  10.793  21.364  0.00  0.00    +0.000 C 
ATOM      6  C   UNL     1       1.411  12.040  21.442  0.00  0.00    +0.000 C 
ATOM      7  C   UNL     1       1.769  12.523  20.082  0.00  0.00    +0.000 A 
ATOM      8  C   UNL     1       2.347  13.724  19.611  0.00  0.00    +0.000 A 
ATOM      9  C   UNL     1       2.427  13.594  18.239  0.00  0.00    +0.000 A 
ATOM     10  O   UNL     1       1.932  12.392  17.833  0.00  0.00    +0.000 OA
ATOM     11  C   UNL     1       1.524  11.760  18.961  0.00  0.00    +0.000 A 
ATOM     12  C   UNL     1       0.796  10.453  18.880  0.00  0.00    +0.000 C 
ATOM     13  H   UNL     1       2.239   8.346  18.826  0.00  0.00    +0.000 HD
ENDROOT
BRANCH   3  14
ATOM     14  C   UNL     1       2.391   6.539  19.779  0.00  0.00    +0.000 A 
ATOM     15  C   UNL     1       3.623   6.124  19.260  0.00  0.00    +0.000 A 
ATOM     16  C   UNL     1       4.034   4.794  19.376  0.00  0.00    +0.000 A 
ATOM     17  C   UNL     1       3.226   3.882  20.036  0.00  0.00    +0.000 A 
ATOM     18  F   UNL     1       3.611   2.603  20.130  0.00  0.00    +0.000 F 
ATOM     19  C   UNL     1       2.021   4.280  20.602  0.00  0.00    +0.000 A 
ATOM     20  C   UNL     1       1.605   5.610  20.478  0.00  0.00    +0.000 A 
ENDBRANCH   3  14
BRANCH  12  21
ATOM     21  C   UNL     1      -0.639  10.612  18.367  0.00  0.00    +0.000 A 
ATOM     22  C   UNL     1      -1.148   9.724  17.408  0.00  0.00    +0.000 A 
ATOM     23  C   UNL     1      -2.434   9.902  16.878  0.00  0.00    +0.000 A 
ATOM     24  C   UNL     1      -3.249  10.959  17.308  0.00  0.00    +0.000 A 
ATOM     25  C   UNL     1      -2.756  11.836  18.279  0.00  0.00    +0.000 A 
ATOM     26  C   UNL     1      -1.474  11.661  18.801  0.00  0.00    +0.000 A 
BRANCH  24  27
ATOM     27  C   UNL     1      -4.635  11.174  16.753  0.00  0.00    +0.000 C 
ATOM     28  F   UNL     1      -5.621  10.608  17.503  0.00  0.00    +0.000 F 
ATOM     29  F   UNL     1      -4.953  12.495  16.652  0.00  0.00    +0.000 F 
ATOM     30  F   UNL     1      -4.781  10.663  15.498  0.00  0.00    +0.000 F 
ENDBRANCH  24  27
ENDBRANCH  12  21
TORSDOF 3
ENDMDL
MODEL 5
REMARK VINA RESULT:      -7.4      4.595      7.758
REMARK  Name = 
REMARK  3 active torsions:
REMARK  status: ('A' for Active; 'I' for Inactive)
REMARK    1  A    between atoms: N_3  and  C_4
REMARK    2  A    between atoms: C_19  and  C_20
REMARK    3  A    between atoms: C_23  and  C_24
REMARK                            x       y       z     vdW  Elec       q    Type
REMARK                         _______ _______ _______ _____ _____    ______ ____
ROOT
ATOM      1  O   UNL     1      -3.178  12.527  19.625  0.00  0.00    +0.000 OA
ATOM      2  C   UNL     1      -2.252  12.341  20.410  0.00  0.00    +0.000 C 
ATOM      3  N   UNL     1      -2.419  12.319  21.781  0.00  0.00    +0.000 N 
ATOM      4  N   UNL     1      -0.957  12.190  19.939  0.00  0.00    +0.000 N 
ATOM      5  C   UNL     1      -0.729  12.509  18.506  0.00  0.00    +0.000 C 
ATOM      6  C   UNL     1       0.235  13.704  18.297  0.00  0.00    +0.000 C 
ATOM      7  C   UNL     1       1.331  13.687  19.302  0.00  0.00    +0.000 A 
ATOM      8  C   UNL     1       2.563  14.373  19.391  0.00  0.00    +0.000 A 
ATOM      9  C   UNL     1       3.161  13.931  20.554  0.00  0.00    +0.000 A 
ATOM     10  O   UNL     1       2.378  13.013  21.186  0.00  0.00    +0.000 OA
ATOM     11  C   UNL     1       1.279  12.864  20.407  0.00  0.00    +0.000 A 
ATOM     12  C   UNL     1       0.253  11.821  20.729  0.00  0.00    +0.000 C 
ATOM     13  H   UNL     1      -1.605  12.509  22.342  0.00  0.00    +0.000 HD
ENDROOT
BRANCH   3  14
ATOM     14  C   UNL     1      -3.649  12.475  22.467  0.00  0.00    +0.000 A 
ATOM     15  C   UNL     1      -4.859  12.779  21.832  0.00  0.00    +0.000 A 
ATOM     16  C   UNL     1      -6.018  13.007  22.578  0.00  0.00    +0.000 A 
ATOM     17  C   UNL     1      -5.976  12.904  23.958  0.00  0.00    +0.000 A 
ATOM     18  F   UNL     1      -7.082  13.142  24.675  0.00  0.00    +0.000 F 
ATOM     19  C   UNL     1      -4.798  12.557  24.609  0.00  0.00    +0.000 A 
ATOM     20  C   UNL     1      -3.635  12.337  23.863  0.00  0.00    +0.000 A 
ENDBRANCH   3  14
BRANCH  12  21
ATOM     21  C   UNL     1       0.744  10.402  20.425  0.00  0.00    +0.000 A 
ATOM     22  C   UNL     1       0.727   9.420  21.427  0.00  0.00    +0.000 A 
ATOM     23  C   UNL     1       1.241   8.138  21.182  0.00  0.00    +0.000 A 
ATOM     24  C   UNL     1       1.765   7.802  19.926  0.00  0.00    +0.000 A 
ATOM     25  C   UNL     1       1.766   8.769  18.917  0.00  0.00    +0.000 A 
ATOM     26  C   UNL     1       1.260  10.045  19.163  0.00  0.00    +0.000 A 
BRANCH  24  27
ATOM     27  C   UNL     1       2.325   6.431  19.638  0.00  0.00    +0.000 C 
ATOM     28  F   UNL     1       3.685   6.372  19.688  0.00  0.00    +0.000 F 
ATOM     29  F   UNL     1       1.879   5.493  20.519  0.00  0.00    +0.000 F 
ATOM     30  F   UNL     1       1.977   5.973  18.402  0.00  0.00    +0.000 F 
ENDBRANCH  24  27
ENDBRANCH  12  21
TORSDOF 3
ENDMDL
MODEL 6
REMARK VINA RESULT:      -7.3      3.189      8.946
REMARK  Name = 
REMARK  3 active torsions:
REMARK  status: ('A' for Active; 'I' for Inactive)
REMARK    1  A    between atoms: N_3  and  C_4
REMARK    2  A    between atoms: C_19  and  C_20
REMARK    3  A    between atoms: C_23  and  C_24
REMARK                            x       y       z     vdW  Elec       q    Type
REMARK                         _______ _______ _______ _____ _____    ______ ____
ROOT
ATOM      1  O   UNL     1      -0.019   9.279  17.659  0.00  0.00    +0.000 OA
ATOM      2  C   UNL     1       0.542   9.838  18.597  0.00  0.00    +0.000 C 
ATOM      3  N   UNL     1       1.594   9.273  19.290  0.00  0.00    +0.000 N 
ATOM      4  N   UNL     1       0.097  11.074  19.040  0.00  0.00    +0.000 N 
ATOM      5  C   UNL     1      -1.205  11.544  18.502  0.00  0.00    +0.000 C 
ATOM      6  C   UNL     1      -2.291  11.705  19.597  0.00  0.00    +0.000 C 
ATOM      7  C   UNL     1      -1.704  12.232  20.857  0.00  0.00    +0.000 A 
ATOM      8  C   UNL     1      -2.275  12.778  22.028  0.00  0.00    +0.000 A 
ATOM      9  C   UNL     1      -1.217  13.100  22.853  0.00  0.00    +0.000 A 
ATOM     10  O   UNL     1      -0.028  12.790  22.264  0.00  0.00    +0.000 OA
ATOM     11  C   UNL     1      -0.339  12.279  21.049  0.00  0.00    +0.000 A 
ATOM     12  C   UNL     1       0.739  11.950  20.062  0.00  0.00    +0.000 C 
ATOM     13  H   UNL     1       1.760   9.614  20.223  0.00  0.00    +0.000 HD
ENDROOT
BRANCH   3  14
ATOM     14  C   UNL     1       2.185   8.015  19.016  0.00  0.00    +0.000 A 
ATOM     15  C   UNL     1       2.054   6.897  19.850  0.00  0.00    +0.000 A 
ATOM     16  C   UNL     1       2.736   5.711  19.565  0.00  0.00    +0.000 A 
ATOM     17  C   UNL     1       3.529   5.632  18.432  0.00  0.00    +0.000 A 
ATOM     18  F   UNL     1       4.199   4.503  18.170  0.00  0.00    +0.000 F 
ATOM     19  C   UNL     1       3.637   6.712  17.564  0.00  0.00    +0.000 A 
ATOM     20  C   UNL     1       2.961   7.902  17.853  0.00  0.00    +0.000 A 
ENDBRANCH   3  14
BRANCH  12  21
ATOM     21  C   UNL     1       1.373  13.203  19.448  0.00  0.00    +0.000 A 
ATOM     22  C   UNL     1       0.770  14.457  19.626  0.00  0.00    +0.000 A 
ATOM     23  C   UNL     1       1.299  15.601  19.010  0.00  0.00    +0.000 A 
ATOM     24  C   UNL     1       2.454  15.521  18.218  0.00  0.00    +0.000 A 
ATOM     25  C   UNL     1       3.071  14.278  18.054  0.00  0.00    +0.000 A 
ATOM     26  C   UNL     1       2.541  13.140  18.662  0.00  0.00    +0.000 A 
BRANCH  24  27
ATOM     27  C   UNL     1       3.042  16.735  17.543  0.00  0.00    +0.000 C 
ATOM     28  F   UNL     1       4.237  17.129  18.065  0.00  0.00    +0.000 F 
ATOM     29  F   UNL     1       3.265  16.531  16.214  0.00  0.00    +0.000 F 
ATOM     30  F   UNL     1       2.225  17.822  17.617  0.00  0.00    +0.000 F 
ENDBRANCH  24  27
ENDBRANCH  12  21
TORSDOF 3
ENDMDL
MODEL 7
REMARK VINA RESULT:      -7.3      3.988      6.497
REMARK  Name = 
REMARK  3 active torsions:
REMARK  status: ('A' for Active; 'I' for Inactive)
REMARK    1  A    between atoms: N_3  and  C_4
REMARK    2  A    between atoms: C_19  and  C_20
REMARK    3  A    between atoms: C_23  and  C_24
REMARK                            x       y       z     vdW  Elec       q    Type
REMARK                         _______ _______ _______ _____ _____    ______ ____
ROOT
ATOM      1  O   UNL     1       1.999  13.522  21.055  0.00  0.00    +0.000 OA
ATOM      2  C   UNL     1       1.838  12.940  19.986  0.00  0.00    +0.000 C 
ATOM      3  N   UNL     1       2.485  13.308  18.823  0.00  0.00    +0.000 N 
ATOM      4  N   UNL     1       0.936  11.891  19.892  0.00  0.00    +0.000 N 
ATOM      5  C   UNL     1       0.027  11.689  21.048  0.00  0.00    +0.000 C 
ATOM      6  C   UNL     1      -1.467  11.894  20.689  0.00  0.00    +0.000 C 
ATOM      7  C   UNL     1      -1.765  11.368  19.331  0.00  0.00    +0.000 A 
ATOM      8  C   UNL     1      -2.973  11.086  18.654  0.00  0.00    +0.000 A 
ATOM      9  C   UNL     1      -2.609  10.607  17.412  0.00  0.00    +0.000 A 
ATOM     10  O   UNL     1      -1.254  10.572  17.280  0.00  0.00    +0.000 OA
ATOM     11  C   UNL     1      -0.756  11.022  18.457  0.00  0.00    +0.000 A 
ATOM     12  C   UNL     1       0.718  10.992  18.722  0.00  0.00    +0.000 C 
ATOM     13  H   UNL     1       2.056  13.029  17.955  0.00  0.00    +0.000 HD
ENDROOT
BRANCH   3  14
ATOM     14  C   UNL     1       3.424  14.360  18.697  0.00  0.00    +0.000 A 
ATOM     15  C   UNL     1       4.760  14.168  18.322  0.00  0.00    +0.000 A 
ATOM     16  C   UNL     1       5.657  15.240  18.303  0.00  0.00    +0.000 A 
ATOM     17  C   UNL     1       5.213  16.510  18.633  0.00  0.00    +0.000 A 
ATOM     18  F   UNL     1       6.077  17.533  18.634  0.00  0.00    +0.000 F 
ATOM     19  C   UNL     1       3.882  16.735  18.962  0.00  0.00    +0.000 A 
ATOM     20  C   UNL     1       2.986  15.660  18.989  0.00  0.00    +0.000 A 
ENDBRANCH   3  14
BRANCH  12  21
ATOM     21  C   UNL     1       1.241   9.572  18.966  0.00  0.00    +0.000 A 
ATOM     22  C   UNL     1       1.113   8.982  20.232  0.00  0.00    +0.000 A 
ATOM     23  C   UNL     1       1.650   7.712  20.488  0.00  0.00    +0.000 A 
ATOM     24  C   UNL     1       2.311   6.995  19.481  0.00  0.00    +0.000 A 
ATOM     25  C   UNL     1       2.425   7.569  18.211  0.00  0.00    +0.000 A 
ATOM     26  C   UNL     1       1.895   8.835  17.959  0.00  0.00    +0.000 A 
BRANCH  24  27
ATOM     27  C   UNL     1       2.901   5.629  19.731  0.00  0.00    +0.000 C 
ATOM     28  F   UNL     1       2.644   4.731  18.740  0.00  0.00    +0.000 F 
ATOM     29  F   UNL     1       4.257   5.666  19.859  0.00  0.00    +0.000 F 
ATOM     30  F   UNL     1       2.437   5.062  20.879  0.00  0.00    +0.000 F 
ENDBRANCH  24  27
ENDBRANCH  12  21
TORSDOF 3
ENDMDL
MODEL 8
REMARK VINA RESULT:      -7.3      3.915      6.290
REMARK  Name = 
REMARK  3 active torsions:
REMARK  status: ('A' for Active; 'I' for Inactive)
REMARK    1  A    between atoms: N_3  and  C_4
REMARK    2  A    between atoms: C_19  and  C_20
REMARK    3  A    between atoms: C_23  and  C_24
REMARK                            x       y       z     vdW  Elec       q    Type
REMARK                         _______ _______ _______ _____ _____    ______ ____
ROOT
ATOM      1  O   UNL     1       1.906  13.394  20.967  0.00  0.00    +0.000 OA
ATOM      2  C   UNL     1       1.811  12.774  19.911  0.00  0.00    +0.000 C 
ATOM      3  N   UNL     1       2.482  13.137  18.761  0.00  0.00    +0.000 N 
ATOM      4  N   UNL     1       0.964  11.680  19.818  0.00  0.00    +0.000 N 
ATOM      5  C   UNL     1       0.024  11.468  20.948  0.00  0.00    +0.000 C 
ATOM      6  C   UNL     1      -1.464  11.590  20.530  0.00  0.00    +0.000 C 
ATOM      7  C   UNL     1      -1.687  11.011  19.179  0.00  0.00    +0.000 A 
ATOM      8  C   UNL     1      -2.854  10.651  18.469  0.00  0.00    +0.000 A 
ATOM      9  C   UNL     1      -2.423  10.153  17.256  0.00  0.00    +0.000 A 
ATOM     10  O   UNL     1      -1.064  10.179  17.173  0.00  0.00    +0.000 OA
ATOM     11  C   UNL     1      -0.632  10.688  18.353  0.00  0.00    +0.000 A 
ATOM     12  C   UNL     1       0.832  10.737  18.670  0.00  0.00    +0.000 C 
ATOM     13  H   UNL     1       2.099  12.813  17.888  0.00  0.00    +0.000 HD
ENDROOT
BRANCH   3  14
ATOM     14  C   UNL     1       3.375  14.230  18.635  0.00  0.00    +0.000 A 
ATOM     15  C   UNL     1       4.731  14.092  18.312  0.00  0.00    +0.000 A 
ATOM     16  C   UNL     1       5.576  15.204  18.291  0.00  0.00    +0.000 A 
ATOM     17  C   UNL     1       5.062  16.460  18.567  0.00  0.00    +0.000 A 
ATOM     18  F   UNL     1       5.876  17.524  18.567  0.00  0.00    +0.000 F 
ATOM     19  C   UNL     1       3.711  16.630  18.843  0.00  0.00    +0.000 A 
ATOM     20  C   UNL     1       2.866  15.515  18.872  0.00  0.00    +0.000 A 
ENDBRANCH   3  14
BRANCH  12  21
ATOM     21  C   UNL     1       1.412   9.352  18.976  0.00  0.00    +0.000 A 
ATOM     22  C   UNL     1       2.091   8.636  17.979  0.00  0.00    +0.000 A 
ATOM     23  C   UNL     1       2.563   7.338  18.225  0.00  0.00    +0.000 A 
ATOM     24  C   UNL     1       2.385   6.734  19.478  0.00  0.00    +0.000 A 
ATOM     25  C   UNL     1       1.728   7.451  20.482  0.00  0.00    +0.000 A 
ATOM     26  C   UNL     1       1.253   8.739  20.234  0.00  0.00    +0.000 A 
BRANCH  24  27
ATOM     27  C   UNL     1       2.881   5.339  19.768  0.00  0.00    +0.000 C 
ATOM     28  F   UNL     1       4.239   5.229  19.773  0.00  0.00    +0.000 F 
ATOM     29  F   UNL     1       2.465   4.884  20.983  0.00  0.00    +0.000 F 
ATOM     30  F   UNL     1       2.436   4.427  18.859  0.00  0.00    +0.000 F 
ENDBRANCH  24  27
ENDBRANCH  12  21
TORSDOF 3
ENDMDL
MODEL 9
REMARK VINA RESULT:      -7.3      3.318      9.064
REMARK  Name = 
REMARK  3 active torsions:
REMARK  status: ('A' for Active; 'I' for Inactive)
REMARK    1  A    between atoms: N_3  and  C_4
REMARK    2  A    between atoms: C_19  and  C_20
REMARK    3  A    between atoms: C_23  and  C_24
REMARK                            x       y       z     vdW  Elec       q    Type
REMARK                         _______ _______ _______ _____ _____    ______ ____
ROOT
ATOM      1  O   UNL     1      -0.220   9.415  17.868  0.00  0.00    +0.000 OA
ATOM      2  C   UNL     1       0.371   9.987  18.779  0.00  0.00    +0.000 C 
ATOM      3  N   UNL     1       1.426   9.419  19.466  0.00  0.00    +0.000 N 
ATOM      4  N   UNL     1      -0.040  11.243  19.198  0.00  0.00    +0.000 N 
ATOM      5  C   UNL     1      -1.343  11.725  18.674  0.00  0.00    +0.000 C 
ATOM      6  C   UNL     1      -2.403  11.936  19.785  0.00  0.00    +0.000 C 
ATOM      7  C   UNL     1      -1.779  12.484  21.019  0.00  0.00    +0.000 A 
ATOM      8  C   UNL     1      -2.316  13.072  22.186  0.00  0.00    +0.000 A 
ATOM      9  C   UNL     1      -1.234  13.395  22.981  0.00  0.00    +0.000 A 
ATOM     10  O   UNL     1      -0.064  13.045  22.377  0.00  0.00    +0.000 OA
ATOM     11  C   UNL     1      -0.411  12.508  21.182  0.00  0.00    +0.000 A 
ATOM     12  C   UNL     1       0.641  12.132  20.183  0.00  0.00    +0.000 C 
ATOM     13  H   UNL     1       1.618   9.781  20.386  0.00  0.00    +0.000 HD
ENDROOT
BRANCH   3  14
ATOM     14  C   UNL     1       1.986   8.142  19.214  0.00  0.00    +0.000 A 
ATOM     15  C   UNL     1       2.691   7.820  18.047  0.00  0.00    +0.000 A 
ATOM     16  C   UNL     1       3.140   6.516  17.823  0.00  0.00    +0.000 A 
ATOM     17  C   UNL     1       2.909   5.538  18.776  0.00  0.00    +0.000 A 
ATOM     18  F   UNL     1       3.322   4.284  18.552  0.00  0.00    +0.000 F 
ATOM     19  C   UNL     1       2.254   5.843  19.963  0.00  0.00    +0.000 A 
ATOM     20  C   UNL     1       1.796   7.147  20.184  0.00  0.00    +0.000 A 
ENDBRANCH   3  14
BRANCH  12  21
ATOM     21  C   UNL     1       1.286  13.356  19.523  0.00  0.00    +0.000 A 
ATOM     22  C   UNL     1       0.650  14.605  19.581  0.00  0.00    +0.000 A 
ATOM     23  C   UNL     1       1.194  15.716  18.920  0.00  0.00    +0.000 A 
ATOM     24  C   UNL     1       2.394  15.610  18.203  0.00  0.00    +0.000 A 
ATOM     25  C   UNL     1       3.043  14.373  18.159  0.00  0.00    +0.000 A 
ATOM     26  C   UNL     1       2.499  13.267  18.811  0.00  0.00    +0.000 A 
BRANCH  24  27
ATOM     27  C   UNL     1       2.999  16.789  17.482  0.00  0.00    +0.000 C 
ATOM     28  F   UNL     1       3.178  16.583  16.147  0.00  0.00    +0.000 F 
ATOM     29  F   UNL     1       2.231  17.910  17.586  0.00  0.00    +0.000 F 
ATOM     30  F   UNL     1       4.222  17.132  17.974  0.00  0.00    +0.000 F 
ENDBRANCH  24  27
ENDBRANCH  12  21
TORSDOF 3
ENDMDL
