MODEL 1
REMARK VINA RESULT:      -7.5      0.000      0.000
REMARK  Name = 
REMARK  7 active torsions:
REMARK  status: ('A' for Active; 'I' for Inactive)
REMARK    1  A    between atoms: C_1  and  C_2
REMARK    2  A    between atoms: C_2  and  C_3
REMARK    3  A    between atoms: C_3  and  C_4
REMARK    4  A    between atoms: C_4  and  C_5
REMARK    5  A    between atoms: N_16  and  S_17
REMARK    6  A    between atoms: S_17  and  C_20
REMARK    7  A    between atoms: C_23  and  N_24
REMARK                            x       y       z     vdW  Elec       q    Type
REMARK                         _______ _______ _______ _____ _____    ______ ____
ROOT
ATOM      1  C   UNL     1       4.084   6.102  18.125  0.00  0.00    +0.000 C 
ATOM      2  C   UNL     1       3.292   4.913  17.476  0.00  0.00    +0.000 C 
ATOM      3  C   UNL     1       4.206   3.854  16.767  0.00  0.00    +0.000 C 
ATOM      4  C   UNL     1       4.304   2.466  17.405  0.00  0.00    +0.000 C 
ATOM      5  C   UNL     1       2.949   1.980  17.870  0.00  0.00    +0.000 C 
ATOM      6  N   UNL     1       2.411   2.877  18.873  0.00  0.00    +0.000 NA
ATOM      7  C   UNL     1       3.077   2.811  20.167  0.00  0.00    +0.000 C 
ATOM      8  C   UNL     1       2.138   3.347  21.251  0.00  0.00    +0.000 C 
ATOM      9  C   UNL     1       1.073   4.287  20.684  0.00  0.00    +0.000 C 
ATOM     10  C   UNL     1       1.627   5.138  19.533  0.00  0.00    +0.000 C 
ATOM     11  C   UNL     1       2.640   6.139  20.070  0.00  0.00    +0.000 C 
ATOM     12  N   UNL     1       3.187   6.978  18.985  0.00  0.00    +0.000 NA
ATOM     13  C   UNL     1       2.181   4.251  18.380  0.00  0.00    +0.000 C 
ENDROOT
BRANCH  12  14
ATOM     14  S   UNL     1       2.108   8.125  18.271  0.00  0.00    +0.000 S 
ATOM     15  O   UNL     1       2.852   9.198  17.655  0.00  0.00    +0.000 OA
ATOM     16  O   UNL     1       1.127   7.393  17.487  0.00  0.00    +0.000 OA
BRANCH  14  17
ATOM     17  C   UNL     1       1.245   8.874  19.662  0.00  0.00    +0.000 A 
ATOM     18  C   UNL     1       0.308   9.888  19.440  0.00  0.00    +0.000 A 
ATOM     19  C   UNL     1      -0.375  10.453  20.524  0.00  0.00    +0.000 A 
ATOM     20  C   UNL     1      -0.182   9.992  21.833  0.00  0.00    +0.000 A 
ATOM     21  C   UNL     1       0.775   8.996  22.042  0.00  0.00    +0.000 A 
ATOM     22  C   UNL     1       1.478   8.428  20.971  0.00  0.00    +0.000 A 
BRANCH  20  23
ATOM     23  N   UNL     1      -0.757  10.659  22.923  0.00  0.00    +0.000 N 
ATOM     24  H   UNL     1      -1.748  10.846  22.831  0.00  0.00    +0.000 HD
ATOM     25  H   UNL     1      -0.523  10.267  23.825  0.00  0.00    +0.000 HD
ENDBRANCH  20  23
ENDBRANCH  14  17
ENDBRANCH  12  14
BRANCH   1  26
ATOM     26  C   UNL     1       4.935   6.950  17.145  0.00  0.00    +0.000 C 
BRANCH  26  27
ATOM     27  C   UNL     1       6.465   6.822  17.309  0.00  0.00    +0.000 C 
BRANCH  27  29
ATOM     28  C   UNL     1       7.658   4.650  17.756  0.00  0.00    +0.000 C 
ATOM     29  C   UNL     1       6.913   5.825  18.377  0.00  0.00    +0.000 C 
ENDBRANCH  27  29
ENDBRANCH  26  27
ENDBRANCH   1  26
TORSDOF 6
ENDMDL
MODEL 2
REMARK VINA RESULT:      -7.5      3.168      6.923
REMARK  Name = 
REMARK  7 active torsions:
REMARK  status: ('A' for Active; 'I' for Inactive)
REMARK    1  A    between atoms: C_1  and  C_2
REMARK    2  A    between atoms: C_2  and  C_3
REMARK    3  A    between atoms: C_3  and  C_4
REMARK    4  A    between atoms: C_4  and  C_5
REMARK    5  A    between atoms: N_16  and  S_17
REMARK    6  A    between atoms: S_17  and  C_20
REMARK    7  A    between atoms: C_23  and  N_24
REMARK                            x       y       z     vdW  Elec       q    Type
REMARK                         _______ _______ _______ _____ _____    ______ ____
ROOT
ATOM      1  C   UNL     1       3.226   6.085  17.892  0.00  0.00    +0.000 C 
ATOM      2  C   UNL     1       3.443   5.573  19.360  0.00  0.00    +0.000 C 
ATOM      3  C   UNL     1       2.429   6.170  20.397  0.00  0.00    +0.000 C 
ATOM      4  C   UNL     1       1.399   5.216  21.007  0.00  0.00    +0.000 C 
ATOM      5  C   UNL     1       2.028   3.890  21.371  0.00  0.00    +0.000 C 
ATOM      6  N   UNL     1       2.562   3.246  20.187  0.00  0.00    +0.000 NA
ATOM      7  C   UNL     1       1.555   2.721  19.274  0.00  0.00    +0.000 C 
ATOM      8  C   UNL     1       2.181   1.634  18.396  0.00  0.00    +0.000 C 
ATOM      9  C   UNL     1       3.699   1.780  18.285  0.00  0.00    +0.000 C 
ATOM     10  C   UNL     1       4.124   3.255  18.257  0.00  0.00    +0.000 C 
ATOM     11  C   UNL     1       3.676   3.897  16.952  0.00  0.00    +0.000 C 
ATOM     12  N   UNL     1       4.077   5.318  16.893  0.00  0.00    +0.000 NA
ATOM     13  C   UNL     1       3.636   4.016  19.524  0.00  0.00    +0.000 C 
ENDROOT
BRANCH  12  14
ATOM     14  S   UNL     1       5.767   5.642  16.724  0.00  0.00    +0.000 S 
ATOM     15  O   UNL     1       5.999   7.063  16.633  0.00  0.00    +0.000 OA
ATOM     16  O   UNL     1       6.476   4.865  17.727  0.00  0.00    +0.000 OA
BRANCH  14  17
ATOM     17  C   UNL     1       6.204   4.977  15.110  0.00  0.00    +0.000 A 
ATOM     18  C   UNL     1       5.338   4.092  14.460  0.00  0.00    +0.000 A 
ATOM     19  C   UNL     1       5.673   3.593  13.195  0.00  0.00    +0.000 A 
ATOM     20  C   UNL     1       6.840   3.998  12.533  0.00  0.00    +0.000 A 
ATOM     21  C   UNL     1       7.708   4.863  13.205  0.00  0.00    +0.000 A 
ATOM     22  C   UNL     1       7.395   5.362  14.477  0.00  0.00    +0.000 A 
BRANCH  20  23
ATOM     23  N   UNL     1       7.239   3.384  11.339  0.00  0.00    +0.000 N 
ATOM     24  H   UNL     1       8.092   2.843  11.405  0.00  0.00    +0.000 HD
ATOM     25  H   UNL     1       6.503   2.883  10.859  0.00  0.00    +0.000 HD
ENDBRANCH  20  23
ENDBRANCH  14  17
ENDBRANCH  12  14
BRANCH   1  26
ATOM     26  C   UNL     1       3.359   7.616  17.694  0.00  0.00    +0.000 C 
BRANCH  26  27
ATOM     27  C   UNL     1       2.028   8.388  17.558  0.00  0.00    +0.000 C 
BRANCH  27  29
ATOM     28  C   UNL     1       0.894  10.031  19.094  0.00  0.00    +0.000 C 
ATOM     29  C   UNL     1       2.050   9.806  18.127  0.00  0.00    +0.000 C 
ENDBRANCH  27  29
ENDBRANCH  26  27
ENDBRANCH   1  26
TORSDOF 6
ENDMDL
MODEL 3
REMARK VINA RESULT:      -7.1      0.473      1.041
REMARK  Name = 
REMARK  7 active torsions:
REMARK  status: ('A' for Active; 'I' for Inactive)
REMARK    1  A    between atoms: C_1  and  C_2
REMARK    2  A    between atoms: C_2  and  C_3
REMARK    3  A    between atoms: C_3  and  C_4
REMARK    4  A    between atoms: C_4  and  C_5
REMARK    5  A    between atoms: N_16  and  S_17
REMARK    6  A    between atoms: S_17  and  C_20
REMARK    7  A    between atoms: C_23  and  N_24
REMARK                            x       y       z     vdW  Elec       q    Type
REMARK                         _______ _______ _______ _____ _____    ______ ____
ROOT
ATOM      1  C   UNL     1       4.039   6.012  18.128  0.00  0.00    +0.000 C 
ATOM      2  C   UNL     1       3.211   4.828  17.516  0.00  0.00    +0.000 C 
ATOM      3  C   UNL     1       4.089   3.742  16.801  0.00  0.00    +0.000 C 
ATOM      4  C   UNL     1       4.177   2.362  17.458  0.00  0.00    +0.000 C 
ATOM      5  C   UNL     1       2.825   1.907  17.962  0.00  0.00    +0.000 C 
ATOM      6  N   UNL     1       2.327   2.829  18.964  0.00  0.00    +0.000 NA
ATOM      7  C   UNL     1       3.023   2.770  20.243  0.00  0.00    +0.000 C 
ATOM      8  C   UNL     1       2.120   3.339  21.341  0.00  0.00    +0.000 C 
ATOM      9  C   UNL     1       1.058   4.290  20.785  0.00  0.00    +0.000 C 
ATOM     10  C   UNL     1       1.600   5.114  19.607  0.00  0.00    +0.000 C 
ATOM     11  C   UNL     1       2.643   6.104  20.106  0.00  0.00    +0.000 C 
ATOM     12  N   UNL     1       3.179   6.917  18.995  0.00  0.00    +0.000 NA
ATOM     13  C   UNL     1       2.111   4.200  18.456  0.00  0.00    +0.000 C 
ENDROOT
BRANCH  12  14
ATOM     14  S   UNL     1       2.104   8.073  18.289  0.00  0.00    +0.000 S 
ATOM     15  O   UNL     1       2.851   9.140  17.669  0.00  0.00    +0.000 OA
ATOM     16  O   UNL     1       1.112   7.348  17.513  0.00  0.00    +0.000 OA
BRANCH  14  17
ATOM     17  C   UNL     1       1.257   8.827  19.687  0.00  0.00    +0.000 A 
ATOM     18  C   UNL     1       1.548   8.410  20.989  0.00  0.00    +0.000 A 
ATOM     19  C   UNL     1       0.901   9.013  22.075  0.00  0.00    +0.000 A 
ATOM     20  C   UNL     1      -0.002  10.070  21.895  0.00  0.00    +0.000 A 
ATOM     21  C   UNL     1      -0.302  10.459  20.587  0.00  0.00    +0.000 A 
ATOM     22  C   UNL     1       0.326   9.857  19.488  0.00  0.00    +0.000 A 
BRANCH  20  23
ATOM     23  N   UNL     1      -0.751  10.566  22.969  0.00  0.00    +0.000 N 
ATOM     24  H   UNL     1      -0.708  11.571  23.088  0.00  0.00    +0.000 HD
ATOM     25  H   UNL     1      -1.699  10.215  23.017  0.00  0.00    +0.000 HD
ENDBRANCH  20  23
ENDBRANCH  14  17
ENDBRANCH  12  14
BRANCH   1  26
ATOM     26  C   UNL     1       4.881   6.830  17.115  0.00  0.00    +0.000 C 
BRANCH  26  27
ATOM     27  C   UNL     1       6.397   6.892  17.406  0.00  0.00    +0.000 C 
BRANCH  27  29
ATOM     28  C   UNL     1       7.155   5.118  15.787  0.00  0.00    +0.000 C 
ATOM     29  C   UNL     1       7.134   5.564  17.244  0.00  0.00    +0.000 C 
ENDBRANCH  27  29
ENDBRANCH  26  27
ENDBRANCH   1  26
TORSDOF 6
ENDMDL
MODEL 4
REMARK VINA RESULT:      -6.5      2.676      5.210
REMARK  Name = 
REMARK  7 active torsions:
REMARK  status: ('A' for Active; 'I' for Inactive)
REMARK    1  A    between atoms: C_1  and  C_2
REMARK    2  A    between atoms: C_2  and  C_3
REMARK    3  A    between atoms: C_3  and  C_4
REMARK    4  A    between atoms: C_4  and  C_5
REMARK    5  A    between atoms: N_16  and  S_17
REMARK    6  A    between atoms: S_17  and  C_20
REMARK    7  A    between atoms: C_23  and  N_24
REMARK                            x       y       z     vdW  Elec       q    Type
REMARK                         _______ _______ _______ _____ _____    ______ ____
ROOT
ATOM      1  C   UNL     1       5.018   3.366  18.769  0.00  0.00    +0.000 C 
ATOM      2  C   UNL     1       5.303   4.907  18.695  0.00  0.00    +0.000 C 
ATOM      3  C   UNL     1       6.444   5.388  19.658  0.00  0.00    +0.000 C 
ATOM      4  C   UNL     1       7.750   5.868  19.019  0.00  0.00    +0.000 C 
ATOM      5  C   UNL     1       7.483   6.735  17.809  0.00  0.00    +0.000 C 
ATOM      6  N   UNL     1       6.763   5.982  16.802  0.00  0.00    +0.000 NA
ATOM      7  C   UNL     1       7.555   4.966  16.121  0.00  0.00    +0.000 C 
ATOM      8  C   UNL     1       6.909   4.634  14.773  0.00  0.00    +0.000 C 
ATOM      9  C   UNL     1       5.417   4.969  14.747  0.00  0.00    +0.000 C 
ATOM     10  C   UNL     1       4.754   4.701  16.105  0.00  0.00    +0.000 C 
ATOM     11  C   UNL     1       4.709   3.203  16.371  0.00  0.00    +0.000 C 
ATOM     12  N   UNL     1       4.069   2.912  17.671  0.00  0.00    +0.000 NA
ATOM     13  C   UNL     1       5.433   5.514  17.245  0.00  0.00    +0.000 C 
ENDROOT
BRANCH  12  14
ATOM     14  S   UNL     1       2.368   3.202  17.782  0.00  0.00    +0.000 S 
ATOM     15  O   UNL     1       1.838   3.575  16.493  0.00  0.00    +0.000 OA
ATOM     16  O   UNL     1       1.770   2.095  18.508  0.00  0.00    +0.000 OA
BRANCH  14  17
ATOM     17  C   UNL     1       2.218   4.672  18.809  0.00  0.00    +0.000 A 
ATOM     18  C   UNL     1       2.394   5.940  18.246  0.00  0.00    +0.000 A 
ATOM     19  C   UNL     1       2.257   7.082  19.046  0.00  0.00    +0.000 A 
ATOM     20  C   UNL     1       1.893   6.991  20.396  0.00  0.00    +0.000 A 
ATOM     21  C   UNL     1       1.745   5.718  20.951  0.00  0.00    +0.000 A 
ATOM     22  C   UNL     1       1.892   4.564  20.169  0.00  0.00    +0.000 A 
BRANCH  20  23
ATOM     23  N   UNL     1       1.902   8.124  21.220  0.00  0.00    +0.000 N 
ATOM     24  H   UNL     1       1.845   7.928  22.212  0.00  0.00    +0.000 HD
ATOM     25  H   UNL     1       2.628   8.795  21.004  0.00  0.00    +0.000 HD
ENDBRANCH  20  23
ENDBRANCH  14  17
ENDBRANCH  12  14
BRANCH   1  26
ATOM     26  C   UNL     1       4.574   2.836  20.157  0.00  0.00    +0.000 C 
BRANCH  26  27
ATOM     27  C   UNL     1       4.891   1.350  20.434  0.00  0.00    +0.000 C 
BRANCH  27  29
ATOM     28  C   UNL     1       6.221  -0.222  21.883  0.00  0.00    +0.000 C 
ATOM     29  C   UNL     1       5.392   1.056  21.847  0.00  0.00    +0.000 C 
ENDBRANCH  27  29
ENDBRANCH  26  27
ENDBRANCH   1  26
TORSDOF 6
ENDMDL
MODEL 5
REMARK VINA RESULT:      -6.4      3.595      8.930
REMARK  Name = 
REMARK  7 active torsions:
REMARK  status: ('A' for Active; 'I' for Inactive)
REMARK    1  A    between atoms: C_1  and  C_2
REMARK    2  A    between atoms: C_2  and  C_3
REMARK    3  A    between atoms: C_3  and  C_4
REMARK    4  A    between atoms: C_4  and  C_5
REMARK    5  A    between atoms: N_16  and  S_17
REMARK    6  A    between atoms: S_17  and  C_20
REMARK    7  A    between atoms: C_23  and  N_24
REMARK                            x       y       z     vdW  Elec       q    Type
REMARK                         _______ _______ _______ _____ _____    ______ ____
ROOT
ATOM      1  C   UNL     1      -2.071  10.817  19.837  0.00  0.00    +0.000 C 
ATOM      2  C   UNL     1      -2.660  12.243  19.547  0.00  0.00    +0.000 C 
ATOM      3  C   UNL     1      -4.066  12.220  18.853  0.00  0.00    +0.000 C 
ATOM      4  C   UNL     1      -5.265  12.705  19.672  0.00  0.00    +0.000 C 
ATOM      5  C   UNL     1      -4.924  13.953  20.456  0.00  0.00    +0.000 C 
ATOM      6  N   UNL     1      -3.849  13.681  21.389  0.00  0.00    +0.000 NA
ATOM      7  C   UNL     1      -4.226  12.853  22.527  0.00  0.00    +0.000 C 
ATOM      8  C   UNL     1      -3.234  13.077  23.671  0.00  0.00    +0.000 C 
ATOM      9  C   UNL     1      -1.884  13.598  23.176  0.00  0.00    +0.000 C 
ATOM     10  C   UNL     1      -1.505  12.984  21.820  0.00  0.00    +0.000 C 
ATOM     11  C   UNL     1      -1.198  11.503  21.991  0.00  0.00    +0.000 C 
ATOM     12  N   UNL     1      -0.823  10.885  20.703  0.00  0.00    +0.000 NA
ATOM     13  C   UNL     1      -2.585  13.274  20.738  0.00  0.00    +0.000 C 
ENDROOT
BRANCH  12  14
ATOM     14  S   UNL     1       0.704  11.347  20.035  0.00  0.00    +0.000 S 
ATOM     15  O   UNL     1       0.511  12.177  18.870  0.00  0.00    +0.000 OA
ATOM     16  O   UNL     1       1.544  11.822  21.121  0.00  0.00    +0.000 OA
BRANCH  14  17
ATOM     17  C   UNL     1       1.420   9.814  19.421  0.00  0.00    +0.000 A 
ATOM     18  C   UNL     1       1.508   8.698  20.260  0.00  0.00    +0.000 A 
ATOM     19  C   UNL     1       2.048   7.501  19.772  0.00  0.00    +0.000 A 
ATOM     20  C   UNL     1       2.461   7.374  18.439  0.00  0.00    +0.000 A 
ATOM     21  C   UNL     1       2.391   8.504  17.620  0.00  0.00    +0.000 A 
ATOM     22  C   UNL     1       1.866   9.713  18.095  0.00  0.00    +0.000 A 
BRANCH  20  23
ATOM     23  N   UNL     1       3.133   6.225  18.001  0.00  0.00    +0.000 N 
ATOM     24  H   UNL     1       3.777   5.829  18.674  0.00  0.00    +0.000 HD
ATOM     25  H   UNL     1       2.535   5.524  17.583  0.00  0.00    +0.000 HD
ENDBRANCH  20  23
ENDBRANCH  14  17
ENDBRANCH  12  14
BRANCH   1  26
ATOM     26  C   UNL     1      -1.851   9.921  18.592  0.00  0.00    +0.000 C 
BRANCH  26  27
ATOM     27  C   UNL     1      -1.873  10.653  17.232  0.00  0.00    +0.000 C 
BRANCH  27  29
ATOM     28  C   UNL     1      -3.390  10.814  15.229  0.00  0.00    +0.000 C 
ATOM     29  C   UNL     1      -2.558   9.885  16.103  0.00  0.00    +0.000 C 
ENDBRANCH  27  29
ENDBRANCH  26  27
ENDBRANCH   1  26
TORSDOF 6
ENDMDL
MODEL 6
REMARK VINA RESULT:      -6.4      5.886      9.349
REMARK  Name = 
REMARK  7 active torsions:
REMARK  status: ('A' for Active; 'I' for Inactive)
REMARK    1  A    between atoms: C_1  and  C_2
REMARK    2  A    between atoms: C_2  and  C_3
REMARK    3  A    between atoms: C_3  and  C_4
REMARK    4  A    between atoms: C_4  and  C_5
REMARK    5  A    between atoms: N_16  and  S_17
REMARK    6  A    between atoms: S_17  and  C_20
REMARK    7  A    between atoms: C_23  and  N_24
REMARK                            x       y       z     vdW  Elec       q    Type
REMARK                         _______ _______ _______ _____ _____    ______ ____
ROOT
ATOM      1  C   UNL     1      -1.720  12.294  21.816  0.00  0.00    +0.000 C 
ATOM      2  C   UNL     1      -0.469  11.502  22.338  0.00  0.00    +0.000 C 
ATOM      3  C   UNL     1      -0.826  10.157  23.060  0.00  0.00    +0.000 C 
ATOM      4  C   UNL     1      -0.431   8.854  22.360  0.00  0.00    +0.000 C 
ATOM      5  C   UNL     1       0.957   8.950  21.766  0.00  0.00    +0.000 C 
ATOM      6  N   UNL     1       1.005  10.003  20.772  0.00  0.00    +0.000 NA
ATOM      7  C   UNL     1       0.302   9.703  19.532  0.00  0.00    +0.000 C 
ATOM      8  C   UNL     1       0.851  10.584  18.407  0.00  0.00    +0.000 C 
ATOM      9  C   UNL     1       1.511  11.859  18.937  0.00  0.00    +0.000 C 
ATOM     10  C   UNL     1       0.777  12.402  20.172  0.00  0.00    +0.000 C 
ATOM     11  C   UNL     1      -0.592  12.931  19.768  0.00  0.00    +0.000 C 
ATOM     12  N   UNL     1      -1.321  13.467  20.936  0.00  0.00    +0.000 NA
ATOM     13  C   UNL     1       0.723  11.349  21.316  0.00  0.00    +0.000 C 
ENDROOT
BRANCH  12  14
ATOM     14  S   UNL     1      -0.716  14.935  21.622  0.00  0.00    +0.000 S 
ATOM     15  O   UNL     1      -1.801  15.725  22.152  0.00  0.00    +0.000 OA
ATOM     16  O   UNL     1       0.410  14.600  22.478  0.00  0.00    +0.000 OA
BRANCH  14  17
ATOM     17  C   UNL     1      -0.078  15.869  20.222  0.00  0.00    +0.000 A 
ATOM     18  C   UNL     1      -0.962  16.462  19.316  0.00  0.00    +0.000 A 
ATOM     19  C   UNL     1      -0.461  17.205  18.239  0.00  0.00    +0.000 A 
ATOM     20  C   UNL     1       0.914  17.416  18.071  0.00  0.00    +0.000 A 
ATOM     21  C   UNL     1       1.786  16.797  18.971  0.00  0.00    +0.000 A 
ATOM     22  C   UNL     1       1.303  16.039  20.046  0.00  0.00    +0.000 A 
BRANCH  20  23
ATOM     23  N   UNL     1       1.411  18.032  16.916  0.00  0.00    +0.000 N 
ATOM     24  H   UNL     1       1.575  17.405  16.138  0.00  0.00    +0.000 HD
ATOM     25  H   UNL     1       0.910  18.866  16.637  0.00  0.00    +0.000 HD
ENDBRANCH  20  23
ENDBRANCH  14  17
ENDBRANCH  12  14
BRANCH   1  26
ATOM     26  C   UNL     1      -2.740  12.720  22.903  0.00  0.00    +0.000 C 
BRANCH  26  27
ATOM     27  C   UNL     1      -4.210  12.812  22.437  0.00  0.00    +0.000 C 
BRANCH  27  29
ATOM     28  C   UNL     1      -4.755  12.333  24.849  0.00  0.00    +0.000 C 
ATOM     29  C   UNL     1      -5.226  13.000  23.562  0.00  0.00    +0.000 C 
ENDBRANCH  27  29
ENDBRANCH  26  27
ENDBRANCH   1  26
TORSDOF 6
ENDMDL
MODEL 7
REMARK VINA RESULT:      -6.4      6.066      9.311
REMARK  Name = 
REMARK  7 active torsions:
REMARK  status: ('A' for Active; 'I' for Inactive)
REMARK    1  A    between atoms: C_1  and  C_2
REMARK    2  A    between atoms: C_2  and  C_3
REMARK    3  A    between atoms: C_3  and  C_4
REMARK    4  A    between atoms: C_4  and  C_5
REMARK    5  A    between atoms: N_16  and  S_17
REMARK    6  A    between atoms: S_17  and  C_20
REMARK    7  A    between atoms: C_23  and  N_24
REMARK                            x       y       z     vdW  Elec       q    Type
REMARK                         _______ _______ _______ _____ _____    ______ ____
ROOT
ATOM      1  C   UNL     1      -1.705  12.469  20.370  0.00  0.00    +0.000 C 
ATOM      2  C   UNL     1      -0.697  11.269  20.281  0.00  0.00    +0.000 C 
ATOM      3  C   UNL     1      -1.031  10.243  19.142  0.00  0.00    +0.000 C 
ATOM      4  C   UNL     1      -0.070  10.172  17.953  0.00  0.00    +0.000 C 
ATOM      5  C   UNL     1       1.371  10.223  18.408  0.00  0.00    +0.000 C 
ATOM      6  N   UNL     1       1.635  11.469  19.099  0.00  0.00    +0.000 NA
ATOM      7  C   UNL     1       1.678  12.645  18.239  0.00  0.00    +0.000 C 
ATOM      8  C   UNL     1       2.471  13.756  18.933  0.00  0.00    +0.000 C 
ATOM      9  C   UNL     1       2.497  13.588  20.453  0.00  0.00    +0.000 C 
ATOM     10  C   UNL     1       1.171  13.022  20.981  0.00  0.00    +0.000 C 
ATOM     11  C   UNL     1       0.067  14.058  20.824  0.00  0.00    +0.000 C 
ATOM     12  N   UNL     1      -1.222  13.544  21.330  0.00  0.00    +0.000 NA
ATOM     13  C   UNL     1       0.833  11.650  20.328  0.00  0.00    +0.000 C 
ENDROOT
BRANCH  12  14
ATOM     14  S   UNL     1      -1.358  13.341  23.042  0.00  0.00    +0.000 S 
ATOM     15  O   UNL     1      -1.076  11.975  23.409  0.00  0.00    +0.000 OA
ATOM     16  O   UNL     1      -0.625  14.420  23.682  0.00  0.00    +0.000 OA
BRANCH  14  17
ATOM     17  C   UNL     1      -3.106  13.584  23.396  0.00  0.00    +0.000 A 
ATOM     18  C   UNL     1      -3.834  12.582  24.045  0.00  0.00    +0.000 A 
ATOM     19  C   UNL     1      -5.189  12.784  24.336  0.00  0.00    +0.000 A 
ATOM     20  C   UNL     1      -5.830  13.994  24.039  0.00  0.00    +0.000 A 
ATOM     21  C   UNL     1      -5.097  14.977  23.369  0.00  0.00    +0.000 A 
ATOM     22  C   UNL     1      -3.744  14.787  23.058  0.00  0.00    +0.000 A 
BRANCH  20  23
ATOM     23  N   UNL     1      -7.215  14.132  24.200  0.00  0.00    +0.000 N 
ATOM     24  H   UNL     1      -7.770  13.450  23.698  0.00  0.00    +0.000 HD
ATOM     25  H   UNL     1      -7.517  14.242  25.159  0.00  0.00    +0.000 HD
ENDBRANCH  20  23
ENDBRANCH  14  17
ENDBRANCH  12  14
BRANCH   1  26
ATOM     26  C   UNL     1      -3.180  12.082  20.647  0.00  0.00    +0.000 C 
BRANCH  26  27
ATOM     27  C   UNL     1      -4.200  12.542  19.583  0.00  0.00    +0.000 C 
BRANCH  27  29
ATOM     28  C   UNL     1      -6.322  12.079  20.858  0.00  0.00    +0.000 C 
ATOM     29  C   UNL     1      -5.489  13.139  20.148  0.00  0.00    +0.000 C 
ENDBRANCH  27  29
ENDBRANCH  26  27
ENDBRANCH   1  26
TORSDOF 6
ENDMDL
MODEL 8
REMARK VINA RESULT:      -6.3      7.279      9.608
REMARK  Name = 
REMARK  7 active torsions:
REMARK  status: ('A' for Active; 'I' for Inactive)
REMARK    1  A    between atoms: C_1  and  C_2
REMARK    2  A    between atoms: C_2  and  C_3
REMARK    3  A    between atoms: C_3  and  C_4
REMARK    4  A    between atoms: C_4  and  C_5
REMARK    5  A    between atoms: N_16  and  S_17
REMARK    6  A    between atoms: S_17  and  C_20
REMARK    7  A    between atoms: C_23  and  N_24
REMARK                            x       y       z     vdW  Elec       q    Type
REMARK                         _______ _______ _______ _____ _____    ______ ____
ROOT
ATOM      1  C   UNL     1      -0.605  13.058  20.273  0.00  0.00    +0.000 C 
ATOM      2  C   UNL     1       0.957  12.926  20.345  0.00  0.00    +0.000 C 
ATOM      3  C   UNL     1       1.595  12.246  19.084  0.00  0.00    +0.000 C 
ATOM      4  C   UNL     1       2.453  13.122  18.168  0.00  0.00    +0.000 C 
ATOM      5  C   UNL     1       3.357  14.032  18.969  0.00  0.00    +0.000 C 
ATOM      6  N   UNL     1       2.567  14.921  19.797  0.00  0.00    +0.000 NA
ATOM      7  C   UNL     1       1.863  15.967  19.067  0.00  0.00    +0.000 C 
ATOM      8  C   UNL     1       1.535  17.121  20.018  0.00  0.00    +0.000 C 
ATOM      9  C   UNL     1       1.489  16.673  21.480  0.00  0.00    +0.000 C 
ATOM     10  C   UNL     1       0.913  15.256  21.618  0.00  0.00    +0.000 C 
ATOM     11  C   UNL     1      -0.569  15.265  21.272  0.00  0.00    +0.000 C 
ATOM     12  N   UNL     1      -1.154  13.915  21.402  0.00  0.00    +0.000 NA
ATOM     13  C   UNL     1       1.736  14.221  20.799  0.00  0.00    +0.000 C 
ENDROOT
BRANCH  12  14
ATOM     14  S   UNL     1      -1.310  13.287  23.006  0.00  0.00    +0.000 S 
ATOM     15  O   UNL     1      -0.684  11.991  23.101  0.00  0.00    +0.000 OA
ATOM     16  O   UNL     1      -0.928  14.335  23.938  0.00  0.00    +0.000 OA
BRANCH  14  17
ATOM     17  C   UNL     1      -3.073  12.989  23.215  0.00  0.00    +0.000 A 
ATOM     18  C   UNL     1      -3.577  12.620  24.466  0.00  0.00    +0.000 A 
ATOM     19  C   UNL     1      -4.952  12.408  24.628  0.00  0.00    +0.000 A 
ATOM     20  C   UNL     1      -5.852  12.606  23.573  0.00  0.00    +0.000 A 
ATOM     21  C   UNL     1      -5.332  12.950  22.322  0.00  0.00    +0.000 A 
ATOM     22  C   UNL     1      -3.957  13.153  22.139  0.00  0.00    +0.000 A 
BRANCH  20  23
ATOM     23  N   UNL     1      -7.201  12.251  23.703  0.00  0.00    +0.000 N 
ATOM     24  H   UNL     1      -7.552  12.257  24.653  0.00  0.00    +0.000 HD
ATOM     25  H   UNL     1      -7.824  12.726  23.062  0.00  0.00    +0.000 HD
ENDBRANCH  20  23
ENDBRANCH  14  17
ENDBRANCH  12  14
BRANCH   1  26
ATOM     26  C   UNL     1      -1.381  11.722  20.146  0.00  0.00    +0.000 C 
BRANCH  26  27
ATOM     27  C   UNL     1      -2.201  11.549  18.848  0.00  0.00    +0.000 C 
BRANCH  27  29
ATOM     28  C   UNL     1      -3.061   9.756  17.303  0.00  0.00    +0.000 C 
ATOM     29  C   UNL     1      -1.840  10.316  18.022  0.00  0.00    +0.000 C 
ENDBRANCH  27  29
ENDBRANCH  26  27
ENDBRANCH   1  26
TORSDOF 6
ENDMDL
MODEL 9
REMARK VINA RESULT:      -6.3      5.337     10.110
REMARK  Name = 
REMARK  7 active torsions:
REMARK  status: ('A' for Active; 'I' for Inactive)
REMARK    1  A    between atoms: C_1  and  C_2
REMARK    2  A    between atoms: C_2  and  C_3
REMARK    3  A    between atoms: C_3  and  C_4
REMARK    4  A    between atoms: C_4  and  C_5
REMARK    5  A    between atoms: N_16  and  S_17
REMARK    6  A    between atoms: S_17  and  C_20
REMARK    7  A    between atoms: C_23  and  N_24
REMARK                            x       y       z     vdW  Elec       q    Type
REMARK                         _______ _______ _______ _____ _____    ______ ____
ROOT
ATOM      1  C   UNL     1      -3.407  12.439  20.375  0.00  0.00    +0.000 C 
ATOM      2  C   UNL     1      -4.066  13.824  20.713  0.00  0.00    +0.000 C 
ATOM      3  C   UNL     1      -5.429  14.074  19.978  0.00  0.00    +0.000 C 
ATOM      4  C   UNL     1      -6.697  14.099  20.835  0.00  0.00    +0.000 C 
ATOM      5  C   UNL     1      -6.476  14.866  22.120  0.00  0.00    +0.000 C 
ATOM      6  N   UNL     1      -5.438  14.234  22.909  0.00  0.00    +0.000 NA
ATOM      7  C   UNL     1      -5.823  12.969  23.521  0.00  0.00    +0.000 C 
ATOM      8  C   UNL     1      -4.910  12.681  24.715  0.00  0.00    +0.000 C 
ATOM      9  C   UNL     1      -3.570  13.411  24.611  0.00  0.00    +0.000 C 
ATOM     10  C   UNL     1      -3.082  13.490  23.157  0.00  0.00    +0.000 C 
ATOM     11  C   UNL     1      -2.694  12.102  22.666  0.00  0.00    +0.000 C 
ATOM     12  N   UNL     1      -2.214  12.146  21.270  0.00  0.00    +0.000 NA
ATOM     13  C   UNL     1      -4.118  14.205  22.243  0.00  0.00    +0.000 C 
ENDROOT
BRANCH  12  14
ATOM     14  S   UNL     1      -0.685  12.906  20.998  0.00  0.00    +0.000 S 
ATOM     15  O   UNL     1      -0.845  14.072  20.163  0.00  0.00    +0.000 OA
ATOM     16  O   UNL     1      -0.012  13.032  22.280  0.00  0.00    +0.000 OA
BRANCH  14  17
ATOM     17  C   UNL     1       0.247  11.727  20.007  0.00  0.00    +0.000 A 
ATOM     18  C   UNL     1       0.074  10.354  20.209  0.00  0.00    +0.000 A 
ATOM     19  C   UNL     1       0.786   9.440  19.422  0.00  0.00    +0.000 A 
ATOM     20  C   UNL     1       1.637   9.866  18.393  0.00  0.00    +0.000 A 
ATOM     21  C   UNL     1       1.819  11.241  18.220  0.00  0.00    +0.000 A 
ATOM     22  C   UNL     1       1.125  12.170  19.008  0.00  0.00    +0.000 A 
BRANCH  20  23
ATOM     23  N   UNL     1       2.454   8.955  17.712  0.00  0.00    +0.000 N 
ATOM     24  H   UNL     1       2.118   7.999  17.717  0.00  0.00    +0.000 HD
ATOM     25  H   UNL     1       2.740   9.256  16.789  0.00  0.00    +0.000 HD
ENDBRANCH  20  23
ENDBRANCH  14  17
ENDBRANCH  12  14
BRANCH   1  26
ATOM     26  C   UNL     1      -3.065  12.211  18.880  0.00  0.00    +0.000 C 
BRANCH  26  27
ATOM     27  C   UNL     1      -3.692  10.953  18.239  0.00  0.00    +0.000 C 
BRANCH  27  29
ATOM     28  C   UNL     1      -2.552   9.965  16.222  0.00  0.00    +0.000 C 
ATOM     29  C   UNL     1      -2.683   9.920  17.740  0.00  0.00    +0.000 C 
ENDBRANCH  27  29
ENDBRANCH  26  27
ENDBRANCH   1  26
TORSDOF 6
ENDMDL
