MODEL 1
REMARK VINA RESULT:      -7.2      0.000      0.000
REMARK  Name = 
REMARK  12 active torsions:
REMARK  status: ('A' for Active; 'I' for Inactive)
REMARK    1  A    between atoms: C_1  and  C_2
REMARK    2  A    between atoms: C_2  and  C_3
REMARK    3  A    between atoms: C_5  and  C_6
REMARK    4  A    between atoms: C_6  and  N_7
REMARK    5  A    between atoms: C_8  and  C_10
REMARK    6  A    between atoms: C_13  and  O_14
REMARK    7  A    between atoms: O_14  and  C_15
REMARK    8  A    between atoms: C_16  and  O_17
REMARK    9  A    between atoms: O_17  and  C_18
REMARK   10  A    between atoms: C_18  and  C_19
REMARK   11  A    between atoms: C_19  and  O_20
REMARK   12  A    between atoms: O_20  and  C_21
REMARK                            x       y       z     vdW  Elec       q    Type
REMARK                         _______ _______ _______ _____ _____    ______ ____
ROOT
ATOM      1  C   UNL     1       3.218   6.607  18.501  0.00  0.00    +0.000 A 
ATOM      2  C   UNL     1       3.125   7.642  17.573  0.00  0.00    +0.000 A 
ATOM      3  C   UNL     1       2.298   8.733  17.840  0.00  0.00    +0.000 A 
ATOM      4  C   UNL     1       1.569   8.818  19.037  0.00  0.00    +0.000 A 
ATOM      5  C   UNL     1       1.678   7.785  19.988  0.00  0.00    +0.000 A 
ATOM      6  C   UNL     1       2.502   6.685  19.706  0.00  0.00    +0.000 A 
ENDROOT
BRANCH   1   8
ATOM      7  N   UNL     1       5.435   5.780  17.955  0.00  0.00    +0.000 N 
ATOM      8  C   UNL     1       4.121   5.460  18.217  0.00  0.00    +0.000 C 
ATOM      9  O   UNL     1       3.691   4.312  18.235  0.00  0.00    +0.000 OA
ATOM     10  H   UNL     1       5.781   6.697  18.203  0.00  0.00    +0.000 HD
BRANCH   7  11
ATOM     11  C   UNL     1       6.417   4.765  17.655  0.00  0.00    +0.000 C 
BRANCH  11  14
ATOM     12  C   UNL     1       6.808   4.506  14.017  0.00  0.00    +0.000 A 
ATOM     13  C   UNL     1       6.176   3.978  15.165  0.00  0.00    +0.000 A 
ATOM     14  C   UNL     1       6.670   4.731  16.201  0.00  0.00    +0.000 A 
ATOM     15  O   UNL     1       7.560   5.637  15.712  0.00  0.00    +0.000 OA
ATOM     16  N   UNL     1       7.649   5.499  14.338  0.00  0.00    +0.000 NA
BRANCH  12  18
ATOM     17  C   UNL     1       5.433   3.176  12.406  0.00  0.00    +0.000 C 
ATOM     18  C   UNL     1       6.623   4.101  12.598  0.00  0.00    +0.000 C 
ENDBRANCH  12  18
ENDBRANCH  11  14
ENDBRANCH   7  11
ENDBRANCH   1   8
BRANCH   4  19
ATOM     19  O   UNL     1       0.821   9.966  19.104  0.00  0.00    +0.000 OA
ATOM     20  C   UNL     1       1.470  11.223  18.992  0.00  0.00    +0.000 C 
ENDBRANCH   4  19
BRANCH   5  21
ATOM     21  O   UNL     1       0.983   7.909  21.158  0.00  0.00    +0.000 OA
BRANCH  21  22
ATOM     22  C   UNL     1       1.291   8.983  22.042  0.00  0.00    +0.000 C 
BRANCH  22  23
ATOM     23  C   UNL     1      -0.022   9.558  22.561  0.00  0.00    +0.000 C 
BRANCH  23  24
ATOM     24  O   UNL     1       0.090  10.976  22.670  0.00  0.00    +0.000 OA
ATOM     25  C   UNL     1      -1.169  11.574  22.947  0.00  0.00    +0.000 C 
ENDBRANCH  23  24
ENDBRANCH  22  23
ENDBRANCH  21  22
ENDBRANCH   5  21
TORSDOF 9
ENDMDL
MODEL 2
REMARK VINA RESULT:      -7.0      1.902      3.229
REMARK  Name = 
REMARK  12 active torsions:
REMARK  status: ('A' for Active; 'I' for Inactive)
REMARK    1  A    between atoms: C_1  and  C_2
REMARK    2  A    between atoms: C_2  and  C_3
REMARK    3  A    between atoms: C_5  and  C_6
REMARK    4  A    between atoms: C_6  and  N_7
REMARK    5  A    between atoms: C_8  and  C_10
REMARK    6  A    between atoms: C_13  and  O_14
REMARK    7  A    between atoms: O_14  and  C_15
REMARK    8  A    between atoms: C_16  and  O_17
REMARK    9  A    between atoms: O_17  and  C_18
REMARK   10  A    between atoms: C_18  and  C_19
REMARK   11  A    between atoms: C_19  and  O_20
REMARK   12  A    between atoms: O_20  and  C_21
REMARK                            x       y       z     vdW  Elec       q    Type
REMARK                         _______ _______ _______ _____ _____    ______ ____
ROOT
ATOM      1  C   UNL     1       3.750   5.377  18.108  0.00  0.00    +0.000 A 
ATOM      2  C   UNL     1       3.453   4.018  18.034  0.00  0.00    +0.000 A 
ATOM      3  C   UNL     1       2.481   3.479  18.877  0.00  0.00    +0.000 A 
ATOM      4  C   UNL     1       1.781   4.286  19.788  0.00  0.00    +0.000 A 
ATOM      5  C   UNL     1       2.062   5.664  19.851  0.00  0.00    +0.000 A 
ATOM      6  C   UNL     1       3.051   6.195  19.007  0.00  0.00    +0.000 A 
ENDROOT
BRANCH   1   8
ATOM      7  N   UNL     1       5.887   5.167  16.973  0.00  0.00    +0.000 N 
ATOM      8  C   UNL     1       4.771   5.945  17.187  0.00  0.00    +0.000 C 
ATOM      9  O   UNL     1       4.592   7.037  16.660  0.00  0.00    +0.000 OA
ATOM     10  H   UNL     1       5.864   4.187  17.221  0.00  0.00    +0.000 HD
BRANCH   7  11
ATOM     11  C   UNL     1       6.959   5.602  16.108  0.00  0.00    +0.000 C 
BRANCH  11  14
ATOM     12  C   UNL     1       6.425   3.812  12.952  0.00  0.00    +0.000 A 
ATOM     13  C   UNL     1       6.041   3.934  14.305  0.00  0.00    +0.000 A 
ATOM     14  C   UNL     1       6.847   4.930  14.799  0.00  0.00    +0.000 A 
ATOM     15  O   UNL     1       7.680   5.362  13.814  0.00  0.00    +0.000 OA
ATOM     16  N   UNL     1       7.417   4.661  12.649  0.00  0.00    +0.000 NA
BRANCH  12  18
ATOM     17  C   UNL     1       4.422   3.251  11.564  0.00  0.00    +0.000 C 
ATOM     18  C   UNL     1       5.860   2.909  11.913  0.00  0.00    +0.000 C 
ENDBRANCH  12  18
ENDBRANCH  11  14
ENDBRANCH   7  11
ENDBRANCH   1   8
BRANCH   4  19
ATOM     19  O   UNL     1       0.872   3.565  20.521  0.00  0.00    +0.000 OA
ATOM     20  C   UNL     1       1.336   2.718  21.560  0.00  0.00    +0.000 C 
ENDBRANCH   4  19
BRANCH   5  21
ATOM     21  O   UNL     1       1.343   6.430  20.724  0.00  0.00    +0.000 OA
BRANCH  21  22
ATOM     22  C   UNL     1       1.783   7.754  21.017  0.00  0.00    +0.000 C 
BRANCH  22  23
ATOM     23  C   UNL     1       0.747   8.727  20.468  0.00  0.00    +0.000 C 
BRANCH  23  24
ATOM     24  O   UNL     1      -0.209   9.026  21.483  0.00  0.00    +0.000 OA
ATOM     25  C   UNL     1       0.424   9.313  22.722  0.00  0.00    +0.000 C 
ENDBRANCH  23  24
ENDBRANCH  22  23
ENDBRANCH  21  22
ENDBRANCH   5  21
TORSDOF 9
ENDMDL
MODEL 3
REMARK VINA RESULT:      -7.0      1.943      3.619
REMARK  Name = 
REMARK  12 active torsions:
REMARK  status: ('A' for Active; 'I' for Inactive)
REMARK    1  A    between atoms: C_1  and  C_2
REMARK    2  A    between atoms: C_2  and  C_3
REMARK    3  A    between atoms: C_5  and  C_6
REMARK    4  A    between atoms: C_6  and  N_7
REMARK    5  A    between atoms: C_8  and  C_10
REMARK    6  A    between atoms: C_13  and  O_14
REMARK    7  A    between atoms: O_14  and  C_15
REMARK    8  A    between atoms: C_16  and  O_17
REMARK    9  A    between atoms: O_17  and  C_18
REMARK   10  A    between atoms: C_18  and  C_19
REMARK   11  A    between atoms: C_19  and  O_20
REMARK   12  A    between atoms: O_20  and  C_21
REMARK                            x       y       z     vdW  Elec       q    Type
REMARK                         _______ _______ _______ _____ _____    ______ ____
ROOT
ATOM      1  C   UNL     1       5.089   4.839  18.375  0.00  0.00    +0.000 A 
ATOM      2  C   UNL     1       4.735   3.688  19.076  0.00  0.00    +0.000 A 
ATOM      3  C   UNL     1       3.583   3.690  19.863  0.00  0.00    +0.000 A 
ATOM      4  C   UNL     1       2.762   4.825  19.949  0.00  0.00    +0.000 A 
ATOM      5  C   UNL     1       3.104   5.983  19.225  0.00  0.00    +0.000 A 
ATOM      6  C   UNL     1       4.271   5.977  18.444  0.00  0.00    +0.000 A 
ENDROOT
BRANCH   1   8
ATOM      7  N   UNL     1       6.151   5.313  16.242  0.00  0.00    +0.000 N 
ATOM      8  C   UNL     1       6.305   4.819  17.519  0.00  0.00    +0.000 C 
ATOM      9  O   UNL     1       7.366   4.391  17.960  0.00  0.00    +0.000 OA
ATOM     10  H   UNL     1       5.342   5.878  16.024  0.00  0.00    +0.000 HD
BRANCH   7  11
ATOM     11  C   UNL     1       7.248   5.344  15.304  0.00  0.00    +0.000 C 
BRANCH  11  14
ATOM     12  C   UNL     1       6.070   3.448  12.394  0.00  0.00    +0.000 A 
ATOM     13  C   UNL     1       5.893   3.704  13.772  0.00  0.00    +0.000 A 
ATOM     14  C   UNL     1       6.876   4.612  14.078  0.00  0.00    +0.000 A 
ATOM     15  O   UNL     1       7.612   4.868  12.963  0.00  0.00    +0.000 OA
ATOM     16  N   UNL     1       7.108   4.137  11.901  0.00  0.00    +0.000 NA
BRANCH  12  18
ATOM     17  C   UNL     1       3.934   3.193  11.119  0.00  0.00    +0.000 C 
ATOM     18  C   UNL     1       5.261   2.565  11.512  0.00  0.00    +0.000 C 
ENDBRANCH  12  18
ENDBRANCH  11  14
ENDBRANCH   7  11
ENDBRANCH   1   8
BRANCH   4  19
ATOM     19  O   UNL     1       1.684   4.620  20.772  0.00  0.00    +0.000 OA
ATOM     20  C   UNL     1       1.246   3.293  21.021  0.00  0.00    +0.000 C 
ENDBRANCH   4  19
BRANCH   5  21
ATOM     21  O   UNL     1       2.270   7.062  19.301  0.00  0.00    +0.000 OA
BRANCH  21  22
ATOM     22  C   UNL     1       2.261   8.014  18.241  0.00  0.00    +0.000 C 
BRANCH  22  23
ATOM     23  C   UNL     1       1.485   9.238  18.712  0.00  0.00    +0.000 C 
BRANCH  23  24
ATOM     24  O   UNL     1       1.129   9.076  20.084  0.00  0.00    +0.000 OA
ATOM     25  C   UNL     1      -0.064   9.782  20.395  0.00  0.00    +0.000 C 
ENDBRANCH  23  24
ENDBRANCH  22  23
ENDBRANCH  21  22
ENDBRANCH   5  21
TORSDOF 9
ENDMDL
MODEL 4
REMARK VINA RESULT:      -7.0      3.296      5.419
REMARK  Name = 
REMARK  12 active torsions:
REMARK  status: ('A' for Active; 'I' for Inactive)
REMARK    1  A    between atoms: C_1  and  C_2
REMARK    2  A    between atoms: C_2  and  C_3
REMARK    3  A    between atoms: C_5  and  C_6
REMARK    4  A    between atoms: C_6  and  N_7
REMARK    5  A    between atoms: C_8  and  C_10
REMARK    6  A    between atoms: C_13  and  O_14
REMARK    7  A    between atoms: O_14  and  C_15
REMARK    8  A    between atoms: C_16  and  O_17
REMARK    9  A    between atoms: O_17  and  C_18
REMARK   10  A    between atoms: C_18  and  C_19
REMARK   11  A    between atoms: C_19  and  O_20
REMARK   12  A    between atoms: O_20  and  C_21
REMARK                            x       y       z     vdW  Elec       q    Type
REMARK                         _______ _______ _______ _____ _____    ______ ____
ROOT
ATOM      1  C   UNL     1       4.914   5.212  16.934  0.00  0.00    +0.000 A 
ATOM      2  C   UNL     1       4.037   6.214  17.346  0.00  0.00    +0.000 A 
ATOM      3  C   UNL     1       3.419   6.117  18.593  0.00  0.00    +0.000 A 
ATOM      4  C   UNL     1       3.677   5.036  19.451  0.00  0.00    +0.000 A 
ATOM      5  C   UNL     1       4.579   4.034  19.048  0.00  0.00    +0.000 A 
ATOM      6  C   UNL     1       5.187   4.132  17.787  0.00  0.00    +0.000 A 
ENDROOT
BRANCH   1   8
ATOM      7  N   UNL     1       6.157   4.187  15.117  0.00  0.00    +0.000 N 
ATOM      8  C   UNL     1       5.586   5.338  15.614  0.00  0.00    +0.000 C 
ATOM      9  O   UNL     1       5.602   6.414  15.026  0.00  0.00    +0.000 OA
ATOM     10  H   UNL     1       5.895   3.293  15.511  0.00  0.00    +0.000 HD
BRANCH   7  11
ATOM     11  C   UNL     1       6.849   4.170  13.850  0.00  0.00    +0.000 C 
BRANCH  11  14
ATOM     12  C   UNL     1       4.495   3.000  11.293  0.00  0.00    +0.000 A 
ATOM     13  C   UNL     1       4.720   3.921  12.340  0.00  0.00    +0.000 A 
ATOM     14  C   UNL     1       5.970   3.602  12.810  0.00  0.00    +0.000 A 
ATOM     15  O   UNL     1       6.455   2.542  12.109  0.00  0.00    +0.000 OA
ATOM     16  N   UNL     1       5.529   2.160  11.152  0.00  0.00    +0.000 NA
BRANCH  12  18
ATOM     17  C   UNL     1       2.972   4.223   9.730  0.00  0.00    +0.000 C 
ATOM     18  C   UNL     1       3.313   2.900  10.395  0.00  0.00    +0.000 C 
ENDBRANCH  12  18
ENDBRANCH  11  14
ENDBRANCH   7  11
ENDBRANCH   1   8
BRANCH   4  19
ATOM     19  O   UNL     1       2.972   5.130  20.624  0.00  0.00    +0.000 OA
ATOM     20  C   UNL     1       1.784   5.907  20.657  0.00  0.00    +0.000 C 
ENDBRANCH   4  19
BRANCH   5  21
ATOM     21  O   UNL     1       4.836   3.010  19.916  0.00  0.00    +0.000 OA
BRANCH  21  22
ATOM     22  C   UNL     1       4.287   1.721  19.658  0.00  0.00    +0.000 C 
BRANCH  22  23
ATOM     23  C   UNL     1       3.141   1.887  18.667  0.00  0.00    +0.000 C 
BRANCH  23  24
ATOM     24  O   UNL     1       1.898   1.841  19.365  0.00  0.00    +0.000 OA
ATOM     25  C   UNL     1       0.908   2.622  18.711  0.00  0.00    +0.000 C 
ENDBRANCH  23  24
ENDBRANCH  22  23
ENDBRANCH  21  22
ENDBRANCH   5  21
TORSDOF 9
ENDMDL
MODEL 5
REMARK VINA RESULT:      -6.9      2.031      3.522
REMARK  Name = 
REMARK  12 active torsions:
REMARK  status: ('A' for Active; 'I' for Inactive)
REMARK    1  A    between atoms: C_1  and  C_2
REMARK    2  A    between atoms: C_2  and  C_3
REMARK    3  A    between atoms: C_5  and  C_6
REMARK    4  A    between atoms: C_6  and  N_7
REMARK    5  A    between atoms: C_8  and  C_10
REMARK    6  A    between atoms: C_13  and  O_14
REMARK    7  A    between atoms: O_14  and  C_15
REMARK    8  A    between atoms: C_16  and  O_17
REMARK    9  A    between atoms: O_17  and  C_18
REMARK   10  A    between atoms: C_18  and  C_19
REMARK   11  A    between atoms: C_19  and  O_20
REMARK   12  A    between atoms: O_20  and  C_21
REMARK                            x       y       z     vdW  Elec       q    Type
REMARK                         _______ _______ _______ _____ _____    ______ ____
ROOT
ATOM      1  C   UNL     1       4.831   4.535  18.779  0.00  0.00    +0.000 A 
ATOM      2  C   UNL     1       4.530   3.272  19.286  0.00  0.00    +0.000 A 
ATOM      3  C   UNL     1       3.330   3.074  19.970  0.00  0.00    +0.000 A 
ATOM      4  C   UNL     1       2.410   4.121  20.143  0.00  0.00    +0.000 A 
ATOM      5  C   UNL     1       2.700   5.392  19.613  0.00  0.00    +0.000 A 
ATOM      6  C   UNL     1       3.915   5.586  18.937  0.00  0.00    +0.000 A 
ENDROOT
BRANCH   1   8
ATOM      7  N   UNL     1       5.977   5.242  16.758  0.00  0.00    +0.000 N 
ATOM      8  C   UNL     1       6.101   4.729  18.030  0.00  0.00    +0.000 C 
ATOM      9  O   UNL     1       7.176   4.448  18.549  0.00  0.00    +0.000 OA
ATOM     10  H   UNL     1       5.111   5.688  16.485  0.00  0.00    +0.000 HD
BRANCH   7  11
ATOM     11  C   UNL     1       7.129   5.472  15.918  0.00  0.00    +0.000 C 
BRANCH  11  14
ATOM     12  C   UNL     1       6.382   3.737  12.775  0.00  0.00    +0.000 A 
ATOM     13  C   UNL     1       6.106   3.821  14.157  0.00  0.00    +0.000 A 
ATOM     14  C   UNL     1       6.926   4.826  14.607  0.00  0.00    +0.000 A 
ATOM     15  O   UNL     1       7.665   5.300  13.568  0.00  0.00    +0.000 OA
ATOM     16  N   UNL     1       7.325   4.618  12.413  0.00  0.00    +0.000 NA
BRANCH  12  18
ATOM     17  C   UNL     1       4.315   3.221  11.464  0.00  0.00    +0.000 C 
ATOM     18  C   UNL     1       5.756   2.842  11.765  0.00  0.00    +0.000 C 
ENDBRANCH  12  18
ENDBRANCH  11  14
ENDBRANCH   7  11
ENDBRANCH   1   8
BRANCH   4  19
ATOM     19  O   UNL     1       1.299   3.719  20.840  0.00  0.00    +0.000 OA
ATOM     20  C   UNL     1       1.419   2.668  21.787  0.00  0.00    +0.000 C 
ENDBRANCH   4  19
BRANCH   5  21
ATOM     21  O   UNL     1       1.773   6.383  19.768  0.00  0.00    +0.000 OA
BRANCH  21  22
ATOM     22  C   UNL     1       1.715   7.099  20.999  0.00  0.00    +0.000 C 
BRANCH  22  23
ATOM     23  C   UNL     1       1.358   8.548  20.685  0.00  0.00    +0.000 C 
BRANCH  23  24
ATOM     24  O   UNL     1       0.204   8.925  21.432  0.00  0.00    +0.000 OA
ATOM     25  C   UNL     1      -0.186  10.260  21.142  0.00  0.00    +0.000 C 
ENDBRANCH  23  24
ENDBRANCH  22  23
ENDBRANCH  21  22
ENDBRANCH   5  21
TORSDOF 9
ENDMDL
MODEL 6
REMARK VINA RESULT:      -6.7      3.286      8.476
REMARK  Name = 
REMARK  12 active torsions:
REMARK  status: ('A' for Active; 'I' for Inactive)
REMARK    1  A    between atoms: C_1  and  C_2
REMARK    2  A    between atoms: C_2  and  C_3
REMARK    3  A    between atoms: C_5  and  C_6
REMARK    4  A    between atoms: C_6  and  N_7
REMARK    5  A    between atoms: C_8  and  C_10
REMARK    6  A    between atoms: C_13  and  O_14
REMARK    7  A    between atoms: O_14  and  C_15
REMARK    8  A    between atoms: C_16  and  O_17
REMARK    9  A    between atoms: O_17  and  C_18
REMARK   10  A    between atoms: C_18  and  C_19
REMARK   11  A    between atoms: C_19  and  O_20
REMARK   12  A    between atoms: O_20  and  C_21
REMARK                            x       y       z     vdW  Elec       q    Type
REMARK                         _______ _______ _______ _____ _____    ______ ____
ROOT
ATOM      1  C   UNL     1       2.161   6.806  19.747  0.00  0.00    +0.000 A 
ATOM      2  C   UNL     1       2.002   5.681  20.554  0.00  0.00    +0.000 A 
ATOM      3  C   UNL     1       2.565   4.467  20.161  0.00  0.00    +0.000 A 
ATOM      4  C   UNL     1       3.307   4.360  18.974  0.00  0.00    +0.000 A 
ATOM      5  C   UNL     1       3.489   5.499  18.167  0.00  0.00    +0.000 A 
ATOM      6  C   UNL     1       2.909   6.714  18.564  0.00  0.00    +0.000 A 
ENDROOT
BRANCH   1   8
ATOM      7  N   UNL     1       1.393   9.045  19.202  0.00  0.00    +0.000 N 
ATOM      8  C   UNL     1       1.577   8.100  20.188  0.00  0.00    +0.000 C 
ATOM      9  O   UNL     1       1.278   8.277  21.364  0.00  0.00    +0.000 OA
ATOM     10  H   UNL     1       1.414   8.760  18.232  0.00  0.00    +0.000 HD
BRANCH   7  11
ATOM     11  C   UNL     1       0.843  10.347  19.494  0.00  0.00    +0.000 C 
BRANCH  11  14
ATOM     12  C   UNL     1      -2.285  10.514  17.587  0.00  0.00    +0.000 A 
ATOM     13  C   UNL     1      -1.010   9.915  17.691  0.00  0.00    +0.000 A 
ATOM     14  C   UNL     1      -0.440  10.516  18.786  0.00  0.00    +0.000 A 
ATOM     15  O   UNL     1      -1.306  11.434  19.294  0.00  0.00    +0.000 OA
ATOM     16  N   UNL     1      -2.468  11.437  18.542  0.00  0.00    +0.000 NA
BRANCH  12  18
ATOM     17  C   UNL     1      -2.907  10.435  15.166  0.00  0.00    +0.000 C 
ATOM     18  C   UNL     1      -3.360  10.224  16.601  0.00  0.00    +0.000 C 
ENDBRANCH  12  18
ENDBRANCH  11  14
ENDBRANCH   7  11
ENDBRANCH   1   8
BRANCH   4  19
ATOM     19  O   UNL     1       3.773   3.086  18.771  0.00  0.00    +0.000 OA
ATOM     20  C   UNL     1       2.983   2.170  18.029  0.00  0.00    +0.000 C 
ENDBRANCH   4  19
BRANCH   5  21
ATOM     21  O   UNL     1       4.243   5.373  17.034  0.00  0.00    +0.000 OA
BRANCH  21  22
ATOM     22  C   UNL     1       5.607   5.784  17.054  0.00  0.00    +0.000 C 
BRANCH  22  23
ATOM     23  C   UNL     1       6.302   5.172  15.844  0.00  0.00    +0.000 C 
BRANCH  23  24
ATOM     24  O   UNL     1       7.549   4.609  16.246  0.00  0.00    +0.000 OA
ATOM     25  C   UNL     1       7.677   4.593  17.661  0.00  0.00    +0.000 C 
ENDBRANCH  23  24
ENDBRANCH  22  23
ENDBRANCH  21  22
ENDBRANCH   5  21
TORSDOF 9
ENDMDL
MODEL 7
REMARK VINA RESULT:      -6.7      3.437      5.255
REMARK  Name = 
REMARK  12 active torsions:
REMARK  status: ('A' for Active; 'I' for Inactive)
REMARK    1  A    between atoms: C_1  and  C_2
REMARK    2  A    between atoms: C_2  and  C_3
REMARK    3  A    between atoms: C_5  and  C_6
REMARK    4  A    between atoms: C_6  and  N_7
REMARK    5  A    between atoms: C_8  and  C_10
REMARK    6  A    between atoms: C_13  and  O_14
REMARK    7  A    between atoms: O_14  and  C_15
REMARK    8  A    between atoms: C_16  and  O_17
REMARK    9  A    between atoms: O_17  and  C_18
REMARK   10  A    between atoms: C_18  and  C_19
REMARK   11  A    between atoms: C_19  and  O_20
REMARK   12  A    between atoms: O_20  and  C_21
REMARK                            x       y       z     vdW  Elec       q    Type
REMARK                         _______ _______ _______ _____ _____    ______ ____
ROOT
ATOM      1  C   UNL     1       3.797   5.599  17.759  0.00  0.00    +0.000 A 
ATOM      2  C   UNL     1       3.642   6.259  18.976  0.00  0.00    +0.000 A 
ATOM      3  C   UNL     1       2.682   5.811  19.883  0.00  0.00    +0.000 A 
ATOM      4  C   UNL     1       1.879   4.694  19.601  0.00  0.00    +0.000 A 
ATOM      5  C   UNL     1       2.049   4.011  18.382  0.00  0.00    +0.000 A 
ATOM      6  C   UNL     1       3.009   4.475  17.470  0.00  0.00    +0.000 A 
ENDROOT
BRANCH   1   8
ATOM      7  N   UNL     1       5.920   5.232  16.638  0.00  0.00    +0.000 N 
ATOM      8  C   UNL     1       4.841   6.070  16.810  0.00  0.00    +0.000 C 
ATOM      9  O   UNL     1       4.710   7.140  16.224  0.00  0.00    +0.000 OA
ATOM     10  H   UNL     1       5.854   4.269  16.938  0.00  0.00    +0.000 HD
BRANCH   7  11
ATOM     11  C   UNL     1       7.009   5.571  15.752  0.00  0.00    +0.000 C 
BRANCH  11  14
ATOM     12  C   UNL     1       6.349   3.696  12.670  0.00  0.00    +0.000 A 
ATOM     13  C   UNL     1       6.035   3.841  14.039  0.00  0.00    +0.000 A 
ATOM     14  C   UNL     1       6.843   4.866  14.466  0.00  0.00    +0.000 A 
ATOM     15  O   UNL     1       7.612   5.293  13.428  0.00  0.00    +0.000 OA
ATOM     16  N   UNL     1       7.304   4.559  12.295  0.00  0.00    +0.000 NA
BRANCH  12  18
ATOM     17  C   UNL     1       4.327   3.132  11.311  0.00  0.00    +0.000 C 
ATOM     18  C   UNL     1       5.751   2.756  11.684  0.00  0.00    +0.000 C 
ENDBRANCH  12  18
ENDBRANCH  11  14
ENDBRANCH   7  11
ENDBRANCH   1   8
BRANCH   4  19
ATOM     19  O   UNL     1       1.002   4.420  20.620  0.00  0.00    +0.000 OA
ATOM     20  C   UNL     1       1.297   3.363  21.521  0.00  0.00    +0.000 C 
ENDBRANCH   4  19
BRANCH   5  21
ATOM     21  O   UNL     1       1.277   2.908  18.148  0.00  0.00    +0.000 OA
BRANCH  21  22
ATOM     22  C   UNL     1       1.779   1.619  18.491  0.00  0.00    +0.000 C 
BRANCH  22  23
ATOM     23  C   UNL     1       3.246   1.560  18.084  0.00  0.00    +0.000 C 
BRANCH  23  24
ATOM     24  O   UNL     1       4.022   1.059  19.171  0.00  0.00    +0.000 OA
ATOM     25  C   UNL     1       4.455   2.109  20.024  0.00  0.00    +0.000 C 
ENDBRANCH  23  24
ENDBRANCH  22  23
ENDBRANCH  21  22
ENDBRANCH   5  21
TORSDOF 9
ENDMDL
MODEL 8
REMARK VINA RESULT:      -6.7      3.432      8.543
REMARK  Name = 
REMARK  12 active torsions:
REMARK  status: ('A' for Active; 'I' for Inactive)
REMARK    1  A    between atoms: C_1  and  C_2
REMARK    2  A    between atoms: C_2  and  C_3
REMARK    3  A    between atoms: C_5  and  C_6
REMARK    4  A    between atoms: C_6  and  N_7
REMARK    5  A    between atoms: C_8  and  C_10
REMARK    6  A    between atoms: C_13  and  O_14
REMARK    7  A    between atoms: O_14  and  C_15
REMARK    8  A    between atoms: C_16  and  O_17
REMARK    9  A    between atoms: O_17  and  C_18
REMARK   10  A    between atoms: C_18  and  C_19
REMARK   11  A    between atoms: C_19  and  O_20
REMARK   12  A    between atoms: O_20  and  C_21
REMARK                            x       y       z     vdW  Elec       q    Type
REMARK                         _______ _______ _______ _____ _____    ______ ____
ROOT
ATOM      1  C   UNL     1       2.513   7.784  18.490  0.00  0.00    +0.000 A 
ATOM      2  C   UNL     1       2.280   7.008  19.623  0.00  0.00    +0.000 A 
ATOM      3  C   UNL     1       2.823   5.725  19.703  0.00  0.00    +0.000 A 
ATOM      4  C   UNL     1       3.618   5.207  18.668  0.00  0.00    +0.000 A 
ATOM      5  C   UNL     1       3.875   5.995  17.531  0.00  0.00    +0.000 A 
ATOM      6  C   UNL     1       3.314   7.280  17.454  0.00  0.00    +0.000 A 
ENDROOT
BRANCH   1   8
ATOM      7  N   UNL     1       1.089   9.503  19.444  0.00  0.00    +0.000 N 
ATOM      8  C   UNL     1       1.950   9.158  18.426  0.00  0.00    +0.000 C 
ATOM      9  O   UNL     1       2.264   9.916  17.514  0.00  0.00    +0.000 OA
ATOM     10  H   UNL     1       1.069   8.946  20.288  0.00  0.00    +0.000 HD
BRANCH   7  11
ATOM     11  C   UNL     1       0.464  10.804  19.500  0.00  0.00    +0.000 C 
BRANCH  11  14
ATOM     12  C   UNL     1      -2.599  10.507  17.505  0.00  0.00    +0.000 A 
ATOM     13  C   UNL     1      -1.236  10.154  17.613  0.00  0.00    +0.000 A 
ATOM     14  C   UNL     1      -0.813  10.775  18.762  0.00  0.00    +0.000 A 
ATOM     15  O   UNL     1      -1.849  11.476  19.299  0.00  0.00    +0.000 OA
ATOM     16  N   UNL     1      -2.975  11.310  18.511  0.00  0.00    +0.000 NA
BRANCH  12  18
ATOM     17  C   UNL     1      -2.961  10.006  15.082  0.00  0.00    +0.000 C 
ATOM     18  C   UNL     1      -3.579  10.086  16.468  0.00  0.00    +0.000 C 
ENDBRANCH  12  18
ENDBRANCH  11  14
ENDBRANCH   7  11
ENDBRANCH   1   8
BRANCH   4  19
ATOM     19  O   UNL     1       4.052   3.934  18.942  0.00  0.00    +0.000 OA
ATOM     20  C   UNL     1       3.155   3.009  19.535  0.00  0.00    +0.000 C 
ENDBRANCH   4  19
BRANCH   5  21
ATOM     21  O   UNL     1       4.678   5.477  16.554  0.00  0.00    +0.000 OA
BRANCH  21  22
ATOM     22  C   UNL     1       6.047   5.868  16.496  0.00  0.00    +0.000 C 
BRANCH  22  23
ATOM     23  C   UNL     1       6.855   4.681  15.985  0.00  0.00    +0.000 C 
BRANCH  23  24
ATOM     24  O   UNL     1       7.918   4.403  16.895  0.00  0.00    +0.000 OA
ATOM     25  C   UNL     1       7.659   4.958  18.177  0.00  0.00    +0.000 C 
ENDBRANCH  23  24
ENDBRANCH  22  23
ENDBRANCH  21  22
ENDBRANCH   5  21
TORSDOF 9
ENDMDL
MODEL 9
REMARK VINA RESULT:      -6.7      2.272      3.990
REMARK  Name = 
REMARK  12 active torsions:
REMARK  status: ('A' for Active; 'I' for Inactive)
REMARK    1  A    between atoms: C_1  and  C_2
REMARK    2  A    between atoms: C_2  and  C_3
REMARK    3  A    between atoms: C_5  and  C_6
REMARK    4  A    between atoms: C_6  and  N_7
REMARK    5  A    between atoms: C_8  and  C_10
REMARK    6  A    between atoms: C_13  and  O_14
REMARK    7  A    between atoms: O_14  and  C_15
REMARK    8  A    between atoms: C_16  and  O_17
REMARK    9  A    between atoms: O_17  and  C_18
REMARK   10  A    between atoms: C_18  and  C_19
REMARK   11  A    between atoms: C_19  and  O_20
REMARK   12  A    between atoms: O_20  and  C_21
REMARK                            x       y       z     vdW  Elec       q    Type
REMARK                         _______ _______ _______ _____ _____    ______ ____
ROOT
ATOM      1  C   UNL     1       4.707   5.772  17.669  0.00  0.00    +0.000 A 
ATOM      2  C   UNL     1       4.262   7.017  17.228  0.00  0.00    +0.000 A 
ATOM      3  C   UNL     1       3.234   7.662  17.914  0.00  0.00    +0.000 A 
ATOM      4  C   UNL     1       2.650   7.090  19.055  0.00  0.00    +0.000 A 
ATOM      5  C   UNL     1       3.111   5.843  19.518  0.00  0.00    +0.000 A 
ATOM      6  C   UNL     1       4.138   5.194  18.814  0.00  0.00    +0.000 A 
ENDROOT
BRANCH   1   8
ATOM      7  N   UNL     1       6.239   5.720  15.785  0.00  0.00    +0.000 N 
ATOM      8  C   UNL     1       5.821   5.104  16.944  0.00  0.00    +0.000 C 
ATOM      9  O   UNL     1       6.320   4.075  17.387  0.00  0.00    +0.000 OA
ATOM     10  H   UNL     1       5.975   6.680  15.610  0.00  0.00    +0.000 HD
BRANCH   7  11
ATOM     11  C   UNL     1       7.305   5.173  14.979  0.00  0.00    +0.000 C 
BRANCH  11  14
ATOM     12  C   UNL     1       5.633   3.410  12.233  0.00  0.00    +0.000 A 
ATOM     13  C   UNL     1       5.553   3.809  13.585  0.00  0.00    +0.000 A 
ATOM     14  C   UNL     1       6.738   4.464  13.817  0.00  0.00    +0.000 A 
ATOM     15  O   UNL     1       7.492   4.439  12.685  0.00  0.00    +0.000 OA
ATOM     16  N   UNL     1       6.800   3.776  11.685  0.00  0.00    +0.000 NA
BRANCH  12  18
ATOM     17  C   UNL     1       3.668   3.638  10.702  0.00  0.00    +0.000 C 
ATOM     18  C   UNL     1       4.611   2.691  11.425  0.00  0.00    +0.000 C 
ENDBRANCH  12  18
ENDBRANCH  11  14
ENDBRANCH   7  11
ENDBRANCH   1   8
BRANCH   4  19
ATOM     19  O   UNL     1       1.660   7.882  19.580  0.00  0.00    +0.000 OA
ATOM     20  C   UNL     1       1.378   9.132  18.969  0.00  0.00    +0.000 C 
ENDBRANCH   4  19
BRANCH   5  21
ATOM     21  O   UNL     1       2.547   5.324  20.649  0.00  0.00    +0.000 OA
BRANCH  21  22
ATOM     22  C   UNL     1       1.229   4.785  20.587  0.00  0.00    +0.000 C 
BRANCH  22  23
ATOM     23  C   UNL     1       1.335   3.268  20.689  0.00  0.00    +0.000 C 
BRANCH  23  24
ATOM     24  O   UNL     1       1.141   2.691  19.399  0.00  0.00    +0.000 OA
ATOM     25  C   UNL     1       2.311   2.020  18.952  0.00  0.00    +0.000 C 
ENDBRANCH  23  24
ENDBRANCH  22  23
ENDBRANCH  21  22
ENDBRANCH   5  21
TORSDOF 9
ENDMDL
