MODEL 1
REMARK VINA RESULT:      -7.9      0.000      0.000
REMARK  Name = 
REMARK  13 active torsions:
REMARK  status: ('A' for Active; 'I' for Inactive)
REMARK    1  A    between atoms: C_1  and  C_2
REMARK    2  A    between atoms: C_4  and  O_5
REMARK    3  A    between atoms: O_5  and  C_6
REMARK    4  A    between atoms: C_6  and  C_7
REMARK    5  A    between atoms: C_7  and  N_8
REMARK    6  A    between atoms: C_14  and  C_15
REMARK    7  A    between atoms: C_20  and  C_21
REMARK    8  A    between atoms: C_21  and  C_22
REMARK    9  A    between atoms: C_21  and  C_23
REMARK   10  A    between atoms: N_25  and  C_26
REMARK   11  A    between atoms: C_26  and  C_27
REMARK   12  A    between atoms: C_26  and  C_28
REMARK   13  A    between atoms: C_26  and  C_29
REMARK                            x       y       z     vdW  Elec       q    Type
REMARK                         _______ _______ _______ _____ _____    ______ ____
ROOT
ATOM      1  C   UNL     1      -0.937  12.254  18.349  0.00  0.00    +0.000 C 
ATOM      2  C   UNL     1      -0.577  11.489  19.589  0.00  0.00    +0.000 A 
ATOM      3  C   UNL     1      -1.103  11.917  20.805  0.00  0.00    +0.000 A 
ATOM      4  C   UNL     1      -0.948  11.190  21.994  0.00  0.00    +0.000 A 
ATOM      5  C   UNL     1      -0.112  10.064  22.001  0.00  0.00    +0.000 A 
ATOM      6  C   UNL     1       0.194   9.327  23.283  0.00  0.00    +0.000 C 
ATOM      7  C   UNL     1       0.446   9.613  20.768  0.00  0.00    +0.000 A 
ATOM      8  C   UNL     1       0.228  10.335  19.568  0.00  0.00    +0.000 A 
ATOM      9  C   UNL     1       0.815   9.867  18.255  0.00  0.00    +0.000 C 
ATOM     10  C   UNL     1       2.002   8.924  18.415  0.00  0.00    +0.000 C 
ATOM     11  C   UNL     1       1.647   7.787  19.377  0.00  0.00    +0.000 C 
ATOM     12  C   UNL     1       1.334   8.383  20.764  0.00  0.00    +0.000 C 
ENDROOT
BRANCH  11  13
ATOM     13  C   UNL     1       2.739   6.688  19.469  0.00  0.00    +0.000 C 
ATOM     14  C   UNL     1       3.543   6.510  18.169  0.00  0.00    +0.000 C 
BRANCH  13  15
ATOM     15  C   UNL     1       2.173   5.328  19.879  0.00  0.00    +0.000 C 
ATOM     16  O   UNL     1       1.258   5.230  20.697  0.00  0.00    +0.000 OA
ATOM     17  N   UNL     1       2.743   4.231  19.264  0.00  0.00    +0.000 N 
ATOM     18  H   UNL     1       3.364   4.397  18.485  0.00  0.00    +0.000 HD
BRANCH  17  19
ATOM     19  C   UNL     1       2.303   2.844  19.514  0.00  0.00    +0.000 C 
ATOM     20  C   UNL     1       0.908   2.595  18.913  0.00  0.00    +0.000 C 
ATOM     21  C   UNL     1       3.297   1.881  18.843  0.00  0.00    +0.000 C 
ATOM     22  C   UNL     1       2.291   2.534  21.022  0.00  0.00    +0.000 C 
ENDBRANCH  17  19
ENDBRANCH  13  15
ENDBRANCH  11  13
BRANCH   4  23
ATOM     23  O   UNL     1      -1.643  11.523  23.146  0.00  0.00    +0.000 OA
BRANCH  23  24
ATOM     24  C   UNL     1      -1.916  12.935  23.200  0.00  0.00    +0.000 C 
BRANCH  24  25
ATOM     25  C   UNL     1      -3.227  13.306  23.896  0.00  0.00    +0.000 C 
BRANCH  25  26
ATOM     26  N   UNL     1      -4.376  12.535  23.351  0.00  0.00    +0.000 NA
ATOM     27  C   UNL     1      -4.560  12.800  21.908  0.00  0.00    +0.000 C 
ATOM     28  C   UNL     1      -5.110  14.209  21.611  0.00  0.00    +0.000 C 
ATOM     29  O   UNL     1      -6.333  14.468  22.315  0.00  0.00    +0.000 OA
ATOM     30  C   UNL     1      -6.182  14.254  23.723  0.00  0.00    +0.000 C 
ATOM     31  C   UNL     1      -5.678  12.832  24.005  0.00  0.00    +0.000 C 
ENDBRANCH  25  26
ENDBRANCH  24  25
ENDBRANCH  23  24
ENDBRANCH   4  23
TORSDOF 7
ENDMDL
MODEL 2
REMARK VINA RESULT:      -7.6      0.830      1.403
REMARK  Name = 
REMARK  13 active torsions:
REMARK  status: ('A' for Active; 'I' for Inactive)
REMARK    1  A    between atoms: C_1  and  C_2
REMARK    2  A    between atoms: C_4  and  O_5
REMARK    3  A    between atoms: O_5  and  C_6
REMARK    4  A    between atoms: C_6  and  C_7
REMARK    5  A    between atoms: C_7  and  N_8
REMARK    6  A    between atoms: C_14  and  C_15
REMARK    7  A    between atoms: C_20  and  C_21
REMARK    8  A    between atoms: C_21  and  C_22
REMARK    9  A    between atoms: C_21  and  C_23
REMARK   10  A    between atoms: N_25  and  C_26
REMARK   11  A    between atoms: C_26  and  C_27
REMARK   12  A    between atoms: C_26  and  C_28
REMARK   13  A    between atoms: C_26  and  C_29
REMARK                            x       y       z     vdW  Elec       q    Type
REMARK                         _______ _______ _______ _____ _____    ______ ____
ROOT
ATOM      1  C   UNL     1      -1.282  11.839  18.115  0.00  0.00    +0.000 C 
ATOM      2  C   UNL     1      -0.710  11.194  19.344  0.00  0.00    +0.000 A 
ATOM      3  C   UNL     1      -1.141  11.645  20.588  0.00  0.00    +0.000 A 
ATOM      4  C   UNL     1      -0.781  11.015  21.788  0.00  0.00    +0.000 A 
ATOM      5  C   UNL     1       0.163   9.979  21.757  0.00  0.00    +0.000 A 
ATOM      6  C   UNL     1       0.684   9.360  23.032  0.00  0.00    +0.000 C 
ATOM      7  C   UNL     1       0.626   9.506  20.493  0.00  0.00    +0.000 A 
ATOM      8  C   UNL     1       0.204  10.125  19.290  0.00  0.00    +0.000 A 
ATOM      9  C   UNL     1       0.689   9.633  17.945  0.00  0.00    +0.000 C 
ATOM     10  C   UNL     1       1.978   8.823  18.016  0.00  0.00    +0.000 C 
ATOM     11  C   UNL     1       1.851   7.721  19.071  0.00  0.00    +0.000 C 
ATOM     12  C   UNL     1       1.632   8.372  20.452  0.00  0.00    +0.000 C 
ENDROOT
BRANCH  11  13
ATOM     13  C   UNL     1       3.055   6.742  19.094  0.00  0.00    +0.000 C 
ATOM     14  C   UNL     1       3.750   6.590  17.729  0.00  0.00    +0.000 C 
BRANCH  13  15
ATOM     15  C   UNL     1       2.673   5.351  19.601  0.00  0.00    +0.000 C 
ATOM     16  O   UNL     1       2.235   5.176  20.737  0.00  0.00    +0.000 OA
ATOM     17  N   UNL     1       2.839   4.317  18.700  0.00  0.00    +0.000 N 
ATOM     18  H   UNL     1       3.039   4.557  17.739  0.00  0.00    +0.000 HD
BRANCH  17  19
ATOM     19  C   UNL     1       2.494   2.915  19.005  0.00  0.00    +0.000 C 
ATOM     20  C   UNL     1       3.169   2.456  20.310  0.00  0.00    +0.000 C 
ATOM     21  C   UNL     1       0.970   2.809  19.188  0.00  0.00    +0.000 C 
ATOM     22  C   UNL     1       2.896   1.984  17.847  0.00  0.00    +0.000 C 
ENDBRANCH  17  19
ENDBRANCH  13  15
ENDBRANCH  11  13
BRANCH   4  23
ATOM     23  O   UNL     1      -1.376  11.353  22.993  0.00  0.00    +0.000 OA
BRANCH  23  24
ATOM     24  C   UNL     1      -2.026  12.634  22.914  0.00  0.00    +0.000 C 
BRANCH  24  25
ATOM     25  C   UNL     1      -3.551  12.586  23.031  0.00  0.00    +0.000 C 
BRANCH  25  26
ATOM     26  N   UNL     1      -4.021  13.161  24.319  0.00  0.00    +0.000 NA
ATOM     27  C   UNL     1      -5.217  12.448  24.817  0.00  0.00    +0.000 C 
ATOM     28  C   UNL     1      -6.488  12.741  23.995  0.00  0.00    +0.000 C 
ATOM     29  O   UNL     1      -6.759  14.147  23.906  0.00  0.00    +0.000 OA
ATOM     30  C   UNL     1      -5.631  14.867  23.395  0.00  0.00    +0.000 C 
ATOM     31  C   UNL     1      -4.384  14.600  24.250  0.00  0.00    +0.000 C 
ENDBRANCH  25  26
ENDBRANCH  24  25
ENDBRANCH  23  24
ENDBRANCH   4  23
TORSDOF 7
ENDMDL
MODEL 3
REMARK VINA RESULT:      -7.4      1.652      2.189
REMARK  Name = 
REMARK  13 active torsions:
REMARK  status: ('A' for Active; 'I' for Inactive)
REMARK    1  A    between atoms: C_1  and  C_2
REMARK    2  A    between atoms: C_4  and  O_5
REMARK    3  A    between atoms: O_5  and  C_6
REMARK    4  A    between atoms: C_6  and  C_7
REMARK    5  A    between atoms: C_7  and  N_8
REMARK    6  A    between atoms: C_14  and  C_15
REMARK    7  A    between atoms: C_20  and  C_21
REMARK    8  A    between atoms: C_21  and  C_22
REMARK    9  A    between atoms: C_21  and  C_23
REMARK   10  A    between atoms: N_25  and  C_26
REMARK   11  A    between atoms: C_26  and  C_27
REMARK   12  A    between atoms: C_26  and  C_28
REMARK   13  A    between atoms: C_26  and  C_29
REMARK                            x       y       z     vdW  Elec       q    Type
REMARK                         _______ _______ _______ _____ _____    ______ ____
ROOT
ATOM      1  C   UNL     1      -0.762  12.398  18.242  0.00  0.00    +0.000 C 
ATOM      2  C   UNL     1      -0.295  11.589  19.416  0.00  0.00    +0.000 A 
ATOM      3  C   UNL     1      -0.704  11.974  20.690  0.00  0.00    +0.000 A 
ATOM      4  C   UNL     1      -0.445  11.205  21.833  0.00  0.00    +0.000 A 
ATOM      5  C   UNL     1       0.380  10.077  21.723  0.00  0.00    +0.000 A 
ATOM      6  C   UNL     1       0.798   9.294  22.945  0.00  0.00    +0.000 C 
ATOM      7  C   UNL     1       0.820   9.668  20.429  0.00  0.00    +0.000 A 
ATOM      8  C   UNL     1       0.498  10.433  19.281  0.00  0.00    +0.000 A 
ATOM      9  C   UNL     1       0.959  10.011  17.904  0.00  0.00    +0.000 C 
ATOM     10  C   UNL     1       2.149   9.059  17.921  0.00  0.00    +0.000 C 
ATOM     11  C   UNL     1       1.876   7.890  18.870  0.00  0.00    +0.000 C 
ATOM     12  C   UNL     1       1.696   8.437  20.301  0.00  0.00    +0.000 C 
ENDROOT
BRANCH  11  13
ATOM     13  C   UNL     1       2.966   6.785  18.823  0.00  0.00    +0.000 C 
ATOM     14  C   UNL     1       3.912   6.906  17.616  0.00  0.00    +0.000 C 
BRANCH  13  15
ATOM     15  C   UNL     1       2.374   5.374  18.835  0.00  0.00    +0.000 C 
ATOM     16  O   UNL     1       1.725   4.939  17.884  0.00  0.00    +0.000 OA
ATOM     17  N   UNL     1       2.627   4.627  19.968  0.00  0.00    +0.000 N 
ATOM     18  H   UNL     1       3.305   4.985  20.628  0.00  0.00    +0.000 HD
BRANCH  17  19
ATOM     19  C   UNL     1       2.161   3.238  20.142  0.00  0.00    +0.000 C 
ATOM     20  C   UNL     1       2.380   2.762  21.589  0.00  0.00    +0.000 C 
ATOM     21  C   UNL     1       0.654   3.181  19.839  0.00  0.00    +0.000 C 
ATOM     22  C   UNL     1       2.874   2.290  19.160  0.00  0.00    +0.000 C 
ENDBRANCH  17  19
ENDBRANCH  13  15
ENDBRANCH  11  13
BRANCH   4  23
ATOM     23  O   UNL     1      -1.029  11.500  23.055  0.00  0.00    +0.000 OA
BRANCH  23  24
ATOM     24  C   UNL     1      -2.404  11.890  22.895  0.00  0.00    +0.000 C 
BRANCH  24  25
ATOM     25  C   UNL     1      -2.834  13.083  23.751  0.00  0.00    +0.000 C 
BRANCH  25  26
ATOM     26  N   UNL     1      -2.139  14.332  23.339  0.00  0.00    +0.000 NA
ATOM     27  C   UNL     1      -1.252  14.828  24.414  0.00  0.00    +0.000 C 
ATOM     28  C   UNL     1      -2.017  15.415  25.616  0.00  0.00    +0.000 C 
ATOM     29  O   UNL     1      -2.929  16.450  25.220  0.00  0.00    +0.000 OA
ATOM     30  C   UNL     1      -3.828  15.994  24.202  0.00  0.00    +0.000 C 
ATOM     31  C   UNL     1      -3.051  15.454  22.993  0.00  0.00    +0.000 C 
ENDBRANCH  25  26
ENDBRANCH  24  25
ENDBRANCH  23  24
ENDBRANCH   4  23
TORSDOF 7
ENDMDL
MODEL 4
REMARK VINA RESULT:      -7.4      1.002      1.103
REMARK  Name = 
REMARK  13 active torsions:
REMARK  status: ('A' for Active; 'I' for Inactive)
REMARK    1  A    between atoms: C_1  and  C_2
REMARK    2  A    between atoms: C_4  and  O_5
REMARK    3  A    between atoms: O_5  and  C_6
REMARK    4  A    between atoms: C_6  and  C_7
REMARK    5  A    between atoms: C_7  and  N_8
REMARK    6  A    between atoms: C_14  and  C_15
REMARK    7  A    between atoms: C_20  and  C_21
REMARK    8  A    between atoms: C_21  and  C_22
REMARK    9  A    between atoms: C_21  and  C_23
REMARK   10  A    between atoms: N_25  and  C_26
REMARK   11  A    between atoms: C_26  and  C_27
REMARK   12  A    between atoms: C_26  and  C_28
REMARK   13  A    between atoms: C_26  and  C_29
REMARK                            x       y       z     vdW  Elec       q    Type
REMARK                         _______ _______ _______ _____ _____    ______ ____
ROOT
ATOM      1  C   UNL     1      -1.164  12.138  18.321  0.00  0.00    +0.000 C 
ATOM      2  C   UNL     1      -0.724  11.420  19.563  0.00  0.00    +0.000 A 
ATOM      3  C   UNL     1      -1.209  11.864  20.790  0.00  0.00    +0.000 A 
ATOM      4  C   UNL     1      -0.978  11.175  21.990  0.00  0.00    +0.000 A 
ATOM      5  C   UNL     1      -0.106  10.078  21.988  0.00  0.00    +0.000 A 
ATOM      6  C   UNL     1       0.281   9.387  23.273  0.00  0.00    +0.000 C 
ATOM      7  C   UNL     1       0.411   9.610  20.743  0.00  0.00    +0.000 A 
ATOM      8  C   UNL     1       0.117  10.291  19.536  0.00  0.00    +0.000 A 
ATOM      9  C   UNL     1       0.660   9.806  18.210  0.00  0.00    +0.000 C 
ATOM     10  C   UNL     1       1.883   8.906  18.341  0.00  0.00    +0.000 C 
ATOM     11  C   UNL     1       1.608   7.786  19.347  0.00  0.00    +0.000 C 
ATOM     12  C   UNL     1       1.338   8.410  20.731  0.00  0.00    +0.000 C 
ENDROOT
BRANCH  11  13
ATOM     13  C   UNL     1       2.740   6.725  19.419  0.00  0.00    +0.000 C 
ATOM     14  C   UNL     1       3.530   6.580  18.106  0.00  0.00    +0.000 C 
BRANCH  13  15
ATOM     15  C   UNL     1       2.226   5.344  19.830  0.00  0.00    +0.000 C 
ATOM     16  O   UNL     1       1.372   5.208  20.705  0.00  0.00    +0.000 OA
ATOM     17  N   UNL     1       2.771   4.274  19.149  0.00  0.00    +0.000 N 
ATOM     18  H   UNL     1       3.335   4.471  18.333  0.00  0.00    +0.000 HD
BRANCH  17  19
ATOM     19  C   UNL     1       2.374   2.873  19.392  0.00  0.00    +0.000 C 
ATOM     20  C   UNL     1       0.937   2.618  18.903  0.00  0.00    +0.000 C 
ATOM     21  C   UNL     1       3.321   1.948  18.609  0.00  0.00    +0.000 C 
ATOM     22  C   UNL     1       2.495   2.517  20.885  0.00  0.00    +0.000 C 
ENDBRANCH  17  19
ENDBRANCH  13  15
ENDBRANCH  11  13
BRANCH   4  23
ATOM     23  O   UNL     1      -1.631  11.519  23.162  0.00  0.00    +0.000 OA
BRANCH  23  24
ATOM     24  C   UNL     1      -2.751  12.382  22.902  0.00  0.00    +0.000 C 
BRANCH  24  25
ATOM     25  C   UNL     1      -2.710  13.723  23.638  0.00  0.00    +0.000 C 
BRANCH  25  26
ATOM     26  N   UNL     1      -4.075  14.207  23.975  0.00  0.00    +0.000 NA
ATOM     27  C   UNL     1      -5.000  14.033  22.834  0.00  0.00    +0.000 C 
ATOM     28  C   UNL     1      -4.727  15.008  21.672  0.00  0.00    +0.000 C 
ATOM     29  O   UNL     1      -4.738  16.376  22.104  0.00  0.00    +0.000 OA
ATOM     30  C   UNL     1      -3.826  16.589  23.189  0.00  0.00    +0.000 C 
ATOM     31  C   UNL     1      -4.139  15.643  24.355  0.00  0.00    +0.000 C 
ENDBRANCH  25  26
ENDBRANCH  24  25
ENDBRANCH  23  24
ENDBRANCH   4  23
TORSDOF 7
ENDMDL
MODEL 5
REMARK VINA RESULT:      -7.3      4.029      6.306
REMARK  Name = 
REMARK  13 active torsions:
REMARK  status: ('A' for Active; 'I' for Inactive)
REMARK    1  A    between atoms: C_1  and  C_2
REMARK    2  A    between atoms: C_4  and  O_5
REMARK    3  A    between atoms: O_5  and  C_6
REMARK    4  A    between atoms: C_6  and  C_7
REMARK    5  A    between atoms: C_7  and  N_8
REMARK    6  A    between atoms: C_14  and  C_15
REMARK    7  A    between atoms: C_20  and  C_21
REMARK    8  A    between atoms: C_21  and  C_22
REMARK    9  A    between atoms: C_21  and  C_23
REMARK   10  A    between atoms: N_25  and  C_26
REMARK   11  A    between atoms: C_26  and  C_27
REMARK   12  A    between atoms: C_26  and  C_28
REMARK   13  A    between atoms: C_26  and  C_29
REMARK                            x       y       z     vdW  Elec       q    Type
REMARK                         _______ _______ _______ _____ _____    ______ ____
ROOT
ATOM      1  C   UNL     1      -0.011   9.246  22.937  0.00  0.00    +0.000 C 
ATOM      2  C   UNL     1       0.464   9.390  21.521  0.00  0.00    +0.000 A 
ATOM      3  C   UNL     1       0.278  10.612  20.882  0.00  0.00    +0.000 A 
ATOM      4  C   UNL     1       0.814  10.895  19.618  0.00  0.00    +0.000 A 
ATOM      5  C   UNL     1       1.442   9.869  18.899  0.00  0.00    +0.000 A 
ATOM      6  C   UNL     1       1.916  10.086  17.481  0.00  0.00    +0.000 C 
ATOM      7  C   UNL     1       1.637   8.604  19.530  0.00  0.00    +0.000 A 
ATOM      8  C   UNL     1       1.133   8.360  20.831  0.00  0.00    +0.000 A 
ATOM      9  C   UNL     1       1.332   7.024  21.511  0.00  0.00    +0.000 C 
ATOM     10  C   UNL     1       1.633   5.884  20.545  0.00  0.00    +0.000 C 
ATOM     11  C   UNL     1       2.773   6.278  19.602  0.00  0.00    +0.000 C 
ATOM     12  C   UNL     1       2.333   7.495  18.765  0.00  0.00    +0.000 C 
ENDROOT
BRANCH  11  13
ATOM     13  C   UNL     1       3.258   5.115  18.695  0.00  0.00    +0.000 C 
ATOM     14  C   UNL     1       2.572   3.771  18.999  0.00  0.00    +0.000 C 
BRANCH  13  15
ATOM     15  C   UNL     1       4.773   4.911  18.760  0.00  0.00    +0.000 C 
ATOM     16  O   UNL     1       5.269   3.935  19.322  0.00  0.00    +0.000 OA
ATOM     17  N   UNL     1       5.535   5.880  18.137  0.00  0.00    +0.000 N 
ATOM     18  H   UNL     1       5.058   6.554  17.555  0.00  0.00    +0.000 HD
BRANCH  17  19
ATOM     19  C   UNL     1       7.009   5.831  18.074  0.00  0.00    +0.000 C 
ATOM     20  C   UNL     1       7.481   4.679  17.169  0.00  0.00    +0.000 C 
ATOM     21  C   UNL     1       7.522   7.153  17.477  0.00  0.00    +0.000 C 
ATOM     22  C   UNL     1       7.617   5.683  19.480  0.00  0.00    +0.000 C 
ENDBRANCH  17  19
ENDBRANCH  13  15
ENDBRANCH  11  13
BRANCH   4  23
ATOM     23  O   UNL     1       0.789  12.175  19.088  0.00  0.00    +0.000 OA
BRANCH  23  24
ATOM     24  C   UNL     1       1.916  12.948  19.536  0.00  0.00    +0.000 C 
BRANCH  24  25
ATOM     25  C   UNL     1       2.754  13.567  18.414  0.00  0.00    +0.000 C 
BRANCH  25  26
ATOM     26  N   UNL     1       2.962  15.024  18.624  0.00  0.00    +0.000 NA
ATOM     27  C   UNL     1       3.999  15.552  17.711  0.00  0.00    +0.000 C 
ATOM     28  C   UNL     1       5.425  15.095  18.076  0.00  0.00    +0.000 C 
ATOM     29  O   UNL     1       5.762  15.415  19.434  0.00  0.00    +0.000 OA
ATOM     30  C   UNL     1       4.795  14.889  20.351  0.00  0.00    +0.000 C 
ATOM     31  C   UNL     1       3.387  15.390  20.001  0.00  0.00    +0.000 C 
ENDBRANCH  25  26
ENDBRANCH  24  25
ENDBRANCH  23  24
ENDBRANCH   4  23
TORSDOF 7
ENDMDL
MODEL 6
REMARK VINA RESULT:      -7.3      1.014      1.632
REMARK  Name = 
REMARK  13 active torsions:
REMARK  status: ('A' for Active; 'I' for Inactive)
REMARK    1  A    between atoms: C_1  and  C_2
REMARK    2  A    between atoms: C_4  and  O_5
REMARK    3  A    between atoms: O_5  and  C_6
REMARK    4  A    between atoms: C_6  and  C_7
REMARK    5  A    between atoms: C_7  and  N_8
REMARK    6  A    between atoms: C_14  and  C_15
REMARK    7  A    between atoms: C_20  and  C_21
REMARK    8  A    between atoms: C_21  and  C_22
REMARK    9  A    between atoms: C_21  and  C_23
REMARK   10  A    between atoms: N_25  and  C_26
REMARK   11  A    between atoms: C_26  and  C_27
REMARK   12  A    between atoms: C_26  and  C_28
REMARK   13  A    between atoms: C_26  and  C_29
REMARK                            x       y       z     vdW  Elec       q    Type
REMARK                         _______ _______ _______ _____ _____    ______ ____
ROOT
ATOM      1  C   UNL     1      -1.742  11.772  17.747  0.00  0.00    +0.000 C 
ATOM      2  C   UNL     1      -1.177  11.243  19.032  0.00  0.00    +0.000 A 
ATOM      3  C   UNL     1      -1.669  11.753  20.231  0.00  0.00    +0.000 A 
ATOM      4  C   UNL     1      -1.316  11.224  21.480  0.00  0.00    +0.000 A 
ATOM      5  C   UNL     1      -0.320  10.239  21.546  0.00  0.00    +0.000 A 
ATOM      6  C   UNL     1       0.191   9.734  22.875  0.00  0.00    +0.000 C 
ATOM      7  C   UNL     1       0.206   9.707  20.331  0.00  0.00    +0.000 A 
ATOM      8  C   UNL     1      -0.209  10.221  19.078  0.00  0.00    +0.000 A 
ATOM      9  C   UNL     1       0.342   9.667  17.783  0.00  0.00    +0.000 C 
ATOM     10  C   UNL     1       1.667   8.931  17.945  0.00  0.00    +0.000 C 
ATOM     11  C   UNL     1       1.563   7.898  19.070  0.00  0.00    +0.000 C 
ATOM     12  C   UNL     1       1.268   8.627  20.396  0.00  0.00    +0.000 C 
ENDROOT
BRANCH  11  13
ATOM     13  C   UNL     1       2.814   6.987  19.193  0.00  0.00    +0.000 C 
ATOM     14  C   UNL     1       3.580   6.812  17.869  0.00  0.00    +0.000 C 
BRANCH  13  15
ATOM     15  C   UNL     1       2.480   5.601  19.747  0.00  0.00    +0.000 C 
ATOM     16  O   UNL     1       2.083   5.446  20.901  0.00  0.00    +0.000 OA
ATOM     17  N   UNL     1       2.641   4.549  18.867  0.00  0.00    +0.000 N 
ATOM     18  H   UNL     1       2.804   4.768  17.894  0.00  0.00    +0.000 HD
BRANCH  17  19
ATOM     19  C   UNL     1       2.338   3.147  19.219  0.00  0.00    +0.000 C 
ATOM     20  C   UNL     1       3.319   2.625  20.284  0.00  0.00    +0.000 C 
ATOM     21  C   UNL     1       0.915   3.079  19.799  0.00  0.00    +0.000 C 
ATOM     22  C   UNL     1       2.382   2.245  17.972  0.00  0.00    +0.000 C 
ENDBRANCH  17  19
ENDBRANCH  13  15
ENDBRANCH  11  13
BRANCH   4  23
ATOM     23  O   UNL     1      -1.964  11.609  22.642  0.00  0.00    +0.000 OA
BRANCH  23  24
ATOM     24  C   UNL     1      -2.858  12.710  22.400  0.00  0.00    +0.000 C 
BRANCH  24  25
ATOM     25  C   UNL     1      -4.000  12.841  23.410  0.00  0.00    +0.000 C 
BRANCH  25  26
ATOM     26  N   UNL     1      -5.083  13.725  22.903  0.00  0.00    +0.000 NA
ATOM     27  C   UNL     1      -6.318  13.567  23.701  0.00  0.00    +0.000 C 
ATOM     28  C   UNL     1      -7.033  12.223  23.463  0.00  0.00    +0.000 C 
ATOM     29  O   UNL     1      -7.318  12.004  22.074  0.00  0.00    +0.000 OA
ATOM     30  C   UNL     1      -6.136  12.115  21.272  0.00  0.00    +0.000 C 
ATOM     31  C   UNL     1      -5.461  13.477  21.486  0.00  0.00    +0.000 C 
ENDBRANCH  25  26
ENDBRANCH  24  25
ENDBRANCH  23  24
ENDBRANCH   4  23
TORSDOF 7
ENDMDL
MODEL 7
REMARK VINA RESULT:      -7.3      3.907      5.895
REMARK  Name = 
REMARK  13 active torsions:
REMARK  status: ('A' for Active; 'I' for Inactive)
REMARK    1  A    between atoms: C_1  and  C_2
REMARK    2  A    between atoms: C_4  and  O_5
REMARK    3  A    between atoms: O_5  and  C_6
REMARK    4  A    between atoms: C_6  and  C_7
REMARK    5  A    between atoms: C_7  and  N_8
REMARK    6  A    between atoms: C_14  and  C_15
REMARK    7  A    between atoms: C_20  and  C_21
REMARK    8  A    between atoms: C_21  and  C_22
REMARK    9  A    between atoms: C_21  and  C_23
REMARK   10  A    between atoms: N_25  and  C_26
REMARK   11  A    between atoms: C_26  and  C_27
REMARK   12  A    between atoms: C_26  and  C_28
REMARK   13  A    between atoms: C_26  and  C_29
REMARK                            x       y       z     vdW  Elec       q    Type
REMARK                         _______ _______ _______ _____ _____    ______ ____
ROOT
ATOM      1  C   UNL     1      -0.075   9.255  22.851  0.00  0.00    +0.000 C 
ATOM      2  C   UNL     1       0.461   9.411  21.458  0.00  0.00    +0.000 A 
ATOM      3  C   UNL     1       0.326  10.648  20.833  0.00  0.00    +0.000 A 
ATOM      4  C   UNL     1       0.920  10.940  19.596  0.00  0.00    +0.000 A 
ATOM      5  C   UNL     1       1.553   9.911  18.885  0.00  0.00    +0.000 A 
ATOM      6  C   UNL     1       2.089  10.141  17.492  0.00  0.00    +0.000 C 
ATOM      7  C   UNL     1       1.695   8.632  19.502  0.00  0.00    +0.000 A 
ATOM      8  C   UNL     1       1.134   8.378  20.778  0.00  0.00    +0.000 A 
ATOM      9  C   UNL     1       1.276   7.027  21.441  0.00  0.00    +0.000 C 
ATOM     10  C   UNL     1       1.592   5.896  20.469  0.00  0.00    +0.000 C 
ATOM     11  C   UNL     1       2.777   6.280  19.580  0.00  0.00    +0.000 C 
ATOM     12  C   UNL     1       2.398   7.521  18.746  0.00  0.00    +0.000 C 
ENDROOT
BRANCH  11  13
ATOM     13  C   UNL     1       3.273   5.122  18.673  0.00  0.00    +0.000 C 
ATOM     14  C   UNL     1       2.593   3.774  18.971  0.00  0.00    +0.000 C 
BRANCH  13  15
ATOM     15  C   UNL     1       4.788   4.927  18.744  0.00  0.00    +0.000 C 
ATOM     16  O   UNL     1       5.287   3.944  19.291  0.00  0.00    +0.000 OA
ATOM     17  N   UNL     1       5.548   5.912  18.145  0.00  0.00    +0.000 N 
ATOM     18  H   UNL     1       5.071   6.594  17.572  0.00  0.00    +0.000 HD
BRANCH  17  19
ATOM     19  C   UNL     1       7.023   5.875  18.090  0.00  0.00    +0.000 C 
ATOM     20  C   UNL     1       7.620   5.721  19.500  0.00  0.00    +0.000 C 
ATOM     21  C   UNL     1       7.456   4.662  17.249  0.00  0.00    +0.000 C 
ATOM     22  C   UNL     1       7.581   7.141  17.415  0.00  0.00    +0.000 C 
ENDBRANCH  17  19
ENDBRANCH  13  15
ENDBRANCH  11  13
BRANCH   4  23
ATOM     23  O   UNL     1       0.944  12.228  19.087  0.00  0.00    +0.000 OA
BRANCH  23  24
ATOM     24  C   UNL     1       1.898  13.047  19.785  0.00  0.00    +0.000 C 
BRANCH  24  25
ATOM     25  C   UNL     1       1.512  14.524  19.900  0.00  0.00    +0.000 C 
BRANCH  25  26
ATOM     26  N   UNL     1       2.705  15.390  20.096  0.00  0.00    +0.000 NA
ATOM     27  C   UNL     1       2.335  16.821  20.071  0.00  0.00    +0.000 C 
ATOM     28  C   UNL     1       1.952  17.329  18.667  0.00  0.00    +0.000 C 
ATOM     29  O   UNL     1       2.985  17.074  17.703  0.00  0.00    +0.000 OA
ATOM     30  C   UNL     1       3.345  15.688  17.676  0.00  0.00    +0.000 C 
ATOM     31  C   UNL     1       3.767  15.210  19.072  0.00  0.00    +0.000 C 
ENDBRANCH  25  26
ENDBRANCH  24  25
ENDBRANCH  23  24
ENDBRANCH   4  23
TORSDOF 7
ENDMDL
MODEL 8
REMARK VINA RESULT:      -7.3      3.887      5.776
REMARK  Name = 
REMARK  13 active torsions:
REMARK  status: ('A' for Active; 'I' for Inactive)
REMARK    1  A    between atoms: C_1  and  C_2
REMARK    2  A    between atoms: C_4  and  O_5
REMARK    3  A    between atoms: O_5  and  C_6
REMARK    4  A    between atoms: C_6  and  C_7
REMARK    5  A    between atoms: C_7  and  N_8
REMARK    6  A    between atoms: C_14  and  C_15
REMARK    7  A    between atoms: C_20  and  C_21
REMARK    8  A    between atoms: C_21  and  C_22
REMARK    9  A    between atoms: C_21  and  C_23
REMARK   10  A    between atoms: N_25  and  C_26
REMARK   11  A    between atoms: C_26  and  C_27
REMARK   12  A    between atoms: C_26  and  C_28
REMARK   13  A    between atoms: C_26  and  C_29
REMARK                            x       y       z     vdW  Elec       q    Type
REMARK                         _______ _______ _______ _____ _____    ______ ____
ROOT
ATOM      1  C   UNL     1      -0.055   9.247  22.880  0.00  0.00    +0.000 C 
ATOM      2  C   UNL     1       0.466   9.391  21.479  0.00  0.00    +0.000 A 
ATOM      3  C   UNL     1       0.322  10.622  20.844  0.00  0.00    +0.000 A 
ATOM      4  C   UNL     1       0.902  10.902  19.599  0.00  0.00    +0.000 A 
ATOM      5  C   UNL     1       1.530   9.868  18.891  0.00  0.00    +0.000 A 
ATOM      6  C   UNL     1       2.050  10.086  17.490  0.00  0.00    +0.000 C 
ATOM      7  C   UNL     1       1.681   8.596  19.518  0.00  0.00    +0.000 A 
ATOM      8  C   UNL     1       1.134   8.353  20.802  0.00  0.00    +0.000 A 
ATOM      9  C   UNL     1       1.286   7.008  21.477  0.00  0.00    +0.000 C 
ATOM     10  C   UNL     1       1.593   5.869  20.512  0.00  0.00    +0.000 C 
ATOM     11  C   UNL     1       2.769   6.247  19.607  0.00  0.00    +0.000 C 
ATOM     12  C   UNL     1       2.378   7.479  18.766  0.00  0.00    +0.000 C 
ENDROOT
BRANCH  11  13
ATOM     13  C   UNL     1       3.257   5.081  18.706  0.00  0.00    +0.000 C 
ATOM     14  C   UNL     1       2.577   3.736  19.018  0.00  0.00    +0.000 C 
BRANCH  13  15
ATOM     15  C   UNL     1       4.773   4.883  18.770  0.00  0.00    +0.000 C 
ATOM     16  O   UNL     1       5.273   3.908  19.330  0.00  0.00    +0.000 OA
ATOM     17  N   UNL     1       5.531   5.857  18.151  0.00  0.00    +0.000 N 
ATOM     18  H   UNL     1       5.052   6.530  17.569  0.00  0.00    +0.000 HD
BRANCH  17  19
ATOM     19  C   UNL     1       7.005   5.815  18.087  0.00  0.00    +0.000 C 
ATOM     20  C   UNL     1       7.564   7.104  17.460  0.00  0.00    +0.000 C 
ATOM     21  C   UNL     1       7.559   5.696  19.518  0.00  0.00    +0.000 C 
ATOM     22  C   UNL     1       7.488   4.588  17.292  0.00  0.00    +0.000 C 
ENDBRANCH  17  19
ENDBRANCH  13  15
ENDBRANCH  11  13
BRANCH   4  23
ATOM     23  O   UNL     1       0.918  12.186  19.077  0.00  0.00    +0.000 OA
BRANCH  23  24
ATOM     24  C   UNL     1       1.920  12.996  19.715  0.00  0.00    +0.000 C 
BRANCH  24  25
ATOM     25  C   UNL     1       1.507  14.448  19.964  0.00  0.00    +0.000 C 
BRANCH  25  26
ATOM     26  N   UNL     1       1.588  15.263  18.723  0.00  0.00    +0.000 NA
ATOM     27  C   UNL     1       2.979  15.342  18.227  0.00  0.00    +0.000 C 
ATOM     28  C   UNL     1       3.891  16.225  19.102  0.00  0.00    +0.000 C 
ATOM     29  O   UNL     1       3.358  17.546  19.273  0.00  0.00    +0.000 OA
ATOM     30  C   UNL     1       2.020  17.509  19.785  0.00  0.00    +0.000 C 
ATOM     31  C   UNL     1       1.115  16.664  18.878  0.00  0.00    +0.000 C 
ENDBRANCH  25  26
ENDBRANCH  24  25
ENDBRANCH  23  24
ENDBRANCH   4  23
TORSDOF 7
ENDMDL
MODEL 9
REMARK VINA RESULT:      -7.3      1.609      1.940
REMARK  Name = 
REMARK  13 active torsions:
REMARK  status: ('A' for Active; 'I' for Inactive)
REMARK    1  A    between atoms: C_1  and  C_2
REMARK    2  A    between atoms: C_4  and  O_5
REMARK    3  A    between atoms: O_5  and  C_6
REMARK    4  A    between atoms: C_6  and  C_7
REMARK    5  A    between atoms: C_7  and  N_8
REMARK    6  A    between atoms: C_14  and  C_15
REMARK    7  A    between atoms: C_20  and  C_21
REMARK    8  A    between atoms: C_21  and  C_22
REMARK    9  A    between atoms: C_21  and  C_23
REMARK   10  A    between atoms: N_25  and  C_26
REMARK   11  A    between atoms: C_26  and  C_27
REMARK   12  A    between atoms: C_26  and  C_28
REMARK   13  A    between atoms: C_26  and  C_29
REMARK                            x       y       z     vdW  Elec       q    Type
REMARK                         _______ _______ _______ _____ _____    ______ ____
ROOT
ATOM      1  C   UNL     1      -1.213  11.850  18.065  0.00  0.00    +0.000 C 
ATOM      2  C   UNL     1      -0.747  11.219  19.345  0.00  0.00    +0.000 A 
ATOM      3  C   UNL     1      -1.247  11.714  20.546  0.00  0.00    +0.000 A 
ATOM      4  C   UNL     1      -0.991  11.103  21.781  0.00  0.00    +0.000 A 
ATOM      5  C   UNL     1      -0.081  10.038  21.839  0.00  0.00    +0.000 A 
ATOM      6  C   UNL     1       0.331   9.434  23.161  0.00  0.00    +0.000 C 
ATOM      7  C   UNL     1       0.452   9.519  20.621  0.00  0.00    +0.000 A 
ATOM      8  C   UNL     1       0.133  10.121  19.379  0.00  0.00    +0.000 A 
ATOM      9  C   UNL     1       0.692   9.581  18.081  0.00  0.00    +0.000 C 
ATOM     10  C   UNL     1       1.946   8.733  18.259  0.00  0.00    +0.000 C 
ATOM     11  C   UNL     1       1.712   7.663  19.328  0.00  0.00    +0.000 C 
ATOM     12  C   UNL     1       1.420   8.354  20.675  0.00  0.00    +0.000 C 
ENDROOT
BRANCH  11  13
ATOM     13  C   UNL     1       2.880   6.648  19.456  0.00  0.00    +0.000 C 
ATOM     14  C   UNL     1       3.684   6.470  18.156  0.00  0.00    +0.000 C 
BRANCH  13  15
ATOM     15  C   UNL     1       2.413   5.271  19.930  0.00  0.00    +0.000 C 
ATOM     16  O   UNL     1       1.279   5.091  20.372  0.00  0.00    +0.000 OA
ATOM     17  N   UNL     1       3.338   4.252  19.816  0.00  0.00    +0.000 N 
ATOM     18  H   UNL     1       4.181   4.437  19.290  0.00  0.00    +0.000 HD
BRANCH  17  19
ATOM     19  C   UNL     1       3.053   2.854  20.196  0.00  0.00    +0.000 C 
ATOM     20  C   UNL     1       2.094   2.197  19.187  0.00  0.00    +0.000 C 
ATOM     21  C   UNL     1       4.372   2.062  20.194  0.00  0.00    +0.000 C 
ATOM     22  C   UNL     1       2.460   2.779  21.615  0.00  0.00    +0.000 C 
ENDBRANCH  17  19
ENDBRANCH  13  15
ENDBRANCH  11  13
BRANCH   4  23
ATOM     23  O   UNL     1      -1.655  11.488  22.935  0.00  0.00    +0.000 OA
BRANCH  23  24
ATOM     24  C   UNL     1      -2.706  12.427  22.643  0.00  0.00    +0.000 C 
BRANCH  24  25
ATOM     25  C   UNL     1      -2.395  13.875  23.028  0.00  0.00    +0.000 C 
BRANCH  25  26
ATOM     26  N   UNL     1      -3.418  14.429  23.954  0.00  0.00    +0.000 NA
ATOM     27  C   UNL     1      -3.774  15.817  23.588  0.00  0.00    +0.000 C 
ATOM     28  C   UNL     1      -2.659  16.835  23.895  0.00  0.00    +0.000 C 
ATOM     29  O   UNL     1      -2.247  16.783  25.269  0.00  0.00    +0.000 OA
ATOM     30  C   UNL     1      -1.862  15.456  25.650  0.00  0.00    +0.000 C 
ATOM     31  C   UNL     1      -2.999  14.462  25.380  0.00  0.00    +0.000 C 
ENDBRANCH  25  26
ENDBRANCH  24  25
ENDBRANCH  23  24
ENDBRANCH   4  23
TORSDOF 7
ENDMDL
