MODEL 1
REMARK VINA RESULT:      -7.5      0.000      0.000
REMARK  Name = 
REMARK  3 active torsions:
REMARK  status: ('A' for Active; 'I' for Inactive)
REMARK    1  A    between atoms: C_1  and  O_2
REMARK    2  A    between atoms: O_2  and  C_3
REMARK    3  A    between atoms: C_8  and  N_9
REMARK                            x       y       z     vdW  Elec       q    Type
REMARK                         _______ _______ _______ _____ _____    ______ ____
ROOT
ATOM      1  N   UNL     1       4.361   5.332  19.320  0.00  0.00    +0.000 N 
ATOM      2  C   UNL     1       5.057   5.374  18.100  0.00  0.00    +0.000 A 
ATOM      3  N   UNL     1       6.090   6.237  18.036  0.00  0.00    +0.000 NA
ATOM      4  C   UNL     1       6.808   6.264  16.899  0.00  0.00    +0.000 A 
ATOM      5  N   UNL     1       7.807   7.251  16.831  0.00  0.00    +0.000 N 
ATOM      6  C   UNL     1       6.585   5.412  15.818  0.00  0.00    +0.000 A 
ATOM      7  C   UNL     1       7.401   5.334  14.655  0.00  0.00    +0.000 A 
ATOM      8  C   UNL     1       7.031   4.535  13.577  0.00  0.00    +0.000 A 
ATOM      9  C   UNL     1       5.848   3.816  13.654  0.00  0.00    +0.000 A 
ATOM     10  C   UNL     1       5.081   3.855  14.827  0.00  0.00    +0.000 A 
ATOM     11  C   UNL     1       5.449   4.625  15.932  0.00  0.00    +0.000 A 
ATOM     12  N   UNL     1       4.704   4.609  17.052  0.00  0.00    +0.000 NA
ATOM     13  H   UNL     1       4.806   5.910  20.015  0.00  0.00    +0.000 HD
ATOM     14  H   UNL     1       7.728   7.808  17.675  0.00  0.00    +0.000 HD
ATOM     15  H   UNL     1       7.678   7.823  16.002  0.00  0.00    +0.000 HD
ENDROOT
BRANCH   1  21
ATOM     16  C   UNL     1       3.490   3.181  20.166  0.00  0.00    +0.000 A 
ATOM     17  C   UNL     1       2.404   2.413  20.637  0.00  0.00    +0.000 A 
ATOM     18  C   UNL     1       1.146   2.979  20.809  0.00  0.00    +0.000 A 
ATOM     19  C   UNL     1       0.950   4.312  20.493  0.00  0.00    +0.000 A 
ATOM     20  C   UNL     1       2.009   5.073  19.992  0.00  0.00    +0.000 A 
ATOM     21  C   UNL     1       3.294   4.539  19.801  0.00  0.00    +0.000 A 
BRANCH  16  23
ATOM     22  C   UNL     1       5.000   1.448  20.767  0.00  0.00    +0.000 C 
ATOM     23  O   UNL     1       4.755   2.647  20.022  0.00  0.00    +0.000 OA
ENDBRANCH  16  23
ENDBRANCH   1  21
TORSDOF 2
ENDMDL
MODEL 2
REMARK VINA RESULT:      -7.5      2.346      6.338
REMARK  Name = 
REMARK  3 active torsions:
REMARK  status: ('A' for Active; 'I' for Inactive)
REMARK    1  A    between atoms: C_1  and  O_2
REMARK    2  A    between atoms: O_2  and  C_3
REMARK    3  A    between atoms: C_8  and  N_9
REMARK                            x       y       z     vdW  Elec       q    Type
REMARK                         _______ _______ _______ _____ _____    ______ ____
ROOT
ATOM      1  N   UNL     1       4.947   4.323  17.385  0.00  0.00    +0.000 N 
ATOM      2  C   UNL     1       4.061   5.167  18.077  0.00  0.00    +0.000 A 
ATOM      3  N   UNL     1       3.650   4.732  19.284  0.00  0.00    +0.000 NA
ATOM      4  C   UNL     1       2.842   5.541  19.993  0.00  0.00    +0.000 A 
ATOM      5  N   UNL     1       2.347   5.007  21.196  0.00  0.00    +0.000 N 
ATOM      6  C   UNL     1       2.464   6.818  19.581  0.00  0.00    +0.000 A 
ATOM      7  C   UNL     1       1.712   7.741  20.361  0.00  0.00    +0.000 A 
ATOM      8  C   UNL     1       1.283   8.948  19.818  0.00  0.00    +0.000 A 
ATOM      9  C   UNL     1       1.597   9.237  18.499  0.00  0.00    +0.000 A 
ATOM     10  C   UNL     1       2.387   8.346  17.757  0.00  0.00    +0.000 A 
ATOM     11  C   UNL     1       2.854   7.144  18.291  0.00  0.00    +0.000 A 
ATOM     12  N   UNL     1       3.638   6.332  17.558  0.00  0.00    +0.000 NA
ATOM     13  H   UNL     1       5.218   3.533  17.950  0.00  0.00    +0.000 HD
ATOM     14  H   UNL     1       2.670   4.046  21.247  0.00  0.00    +0.000 HD
ATOM     15  H   UNL     1       1.333   5.053  21.209  0.00  0.00    +0.000 HD
ENDROOT
BRANCH   1  21
ATOM     16  C   UNL     1       6.919   5.057  16.092  0.00  0.00    +0.000 A 
ATOM     17  C   UNL     1       7.585   5.167  14.853  0.00  0.00    +0.000 A 
ATOM     18  C   UNL     1       7.039   4.627  13.694  0.00  0.00    +0.000 A 
ATOM     19  C   UNL     1       5.812   3.989  13.753  0.00  0.00    +0.000 A 
ATOM     20  C   UNL     1       5.126   3.907  14.967  0.00  0.00    +0.000 A 
ATOM     21  C   UNL     1       5.642   4.442  16.160  0.00  0.00    +0.000 A 
BRANCH  16  23
ATOM     22  C   UNL     1       7.335   6.973  17.435  0.00  0.00    +0.000 C 
ATOM     23  O   UNL     1       7.461   5.556  17.260  0.00  0.00    +0.000 OA
ENDBRANCH  16  23
ENDBRANCH   1  21
TORSDOF 2
ENDMDL
MODEL 3
REMARK VINA RESULT:      -7.3      3.797      6.412
REMARK  Name = 
REMARK  3 active torsions:
REMARK  status: ('A' for Active; 'I' for Inactive)
REMARK    1  A    between atoms: C_1  and  O_2
REMARK    2  A    between atoms: O_2  and  C_3
REMARK    3  A    between atoms: C_8  and  N_9
REMARK                            x       y       z     vdW  Elec       q    Type
REMARK                         _______ _______ _______ _____ _____    ______ ____
ROOT
ATOM      1  N   UNL     1       2.839   6.408  17.859  0.00  0.00    +0.000 N 
ATOM      2  C   UNL     1       2.318   7.511  18.557  0.00  0.00    +0.000 A 
ATOM      3  N   UNL     1       2.275   8.675  17.879  0.00  0.00    +0.000 NA
ATOM      4  C   UNL     1       1.735   9.737  18.503  0.00  0.00    +0.000 A 
ATOM      5  N   UNL     1       1.808  10.957  17.806  0.00  0.00    +0.000 N 
ATOM      6  C   UNL     1       1.163   9.685  19.774  0.00  0.00    +0.000 A 
ATOM      7  C   UNL     1       0.478  10.759  20.408  0.00  0.00    +0.000 A 
ATOM      8  C   UNL     1       0.043  10.648  21.725  0.00  0.00    +0.000 A 
ATOM      9  C   UNL     1       0.293   9.471  22.414  0.00  0.00    +0.000 A 
ATOM     10  C   UNL     1       0.918   8.398  21.761  0.00  0.00    +0.000 A 
ATOM     11  C   UNL     1       1.335   8.476  20.432  0.00  0.00    +0.000 A 
ATOM     12  N   UNL     1       1.900   7.414  19.831  0.00  0.00    +0.000 NA
ATOM     13  H   UNL     1       3.030   6.641  16.897  0.00  0.00    +0.000 HD
ATOM     14  H   UNL     1       2.340  10.781  16.961  0.00  0.00    +0.000 HD
ATOM     15  H   UNL     1       2.257  11.663  18.381  0.00  0.00    +0.000 HD
ENDROOT
BRANCH   1  21
ATOM     16  C   UNL     1       4.051   4.586  19.003  0.00  0.00    +0.000 A 
ATOM     17  C   UNL     1       4.177   3.212  19.300  0.00  0.00    +0.000 A 
ATOM     18  C   UNL     1       3.238   2.291  18.848  0.00  0.00    +0.000 A 
ATOM     19  C   UNL     1       2.174   2.726  18.077  0.00  0.00    +0.000 A 
ATOM     20  C   UNL     1       2.060   4.078  17.746  0.00  0.00    +0.000 A 
ATOM     21  C   UNL     1       2.988   5.040  18.180  0.00  0.00    +0.000 A 
BRANCH  16  23
ATOM     22  C   UNL     1       6.302   5.346  19.020  0.00  0.00    +0.000 C 
ATOM     23  O   UNL     1       4.953   5.520  19.471  0.00  0.00    +0.000 OA
ENDBRANCH  16  23
ENDBRANCH   1  21
TORSDOF 2
ENDMDL
MODEL 4
REMARK VINA RESULT:      -7.2      2.126      6.447
REMARK  Name = 
REMARK  3 active torsions:
REMARK  status: ('A' for Active; 'I' for Inactive)
REMARK    1  A    between atoms: C_1  and  O_2
REMARK    2  A    between atoms: O_2  and  C_3
REMARK    3  A    between atoms: C_8  and  N_9
REMARK                            x       y       z     vdW  Elec       q    Type
REMARK                         _______ _______ _______ _____ _____    ______ ____
ROOT
ATOM      1  N   UNL     1       5.320   3.446  16.384  0.00  0.00    +0.000 N 
ATOM      2  C   UNL     1       4.466   4.039  17.329  0.00  0.00    +0.000 A 
ATOM      3  N   UNL     1       4.049   3.243  18.334  0.00  0.00    +0.000 NA
ATOM      4  C   UNL     1       3.271   3.796  19.282  0.00  0.00    +0.000 A 
ATOM      5  N   UNL     1       2.770   2.910  20.252  0.00  0.00    +0.000 N 
ATOM      6  C   UNL     1       2.930   5.147  19.318  0.00  0.00    +0.000 A 
ATOM      7  C   UNL     1       2.212   5.783  20.370  0.00  0.00    +0.000 A 
ATOM      8  C   UNL     1       1.817   7.112  20.261  0.00  0.00    +0.000 A 
ATOM      9  C   UNL     1       2.130   7.810  19.104  0.00  0.00    +0.000 A 
ATOM     10  C   UNL     1       2.887   7.191  18.098  0.00  0.00    +0.000 A 
ATOM     11  C   UNL     1       3.321   5.868  18.200  0.00  0.00    +0.000 A 
ATOM     12  N   UNL     1       4.075   5.321  17.229  0.00  0.00    +0.000 NA
ATOM     13  H   UNL     1       5.570   2.508  16.655  0.00  0.00    +0.000 HD
ATOM     14  H   UNL     1       3.063   1.978  19.980  0.00  0.00    +0.000 HD
ATOM     15  H   UNL     1       1.757   2.976  20.297  0.00  0.00    +0.000 HD
ENDROOT
BRANCH   1  21
ATOM     16  C   UNL     1       7.134   4.797  15.393  0.00  0.00    +0.000 A 
ATOM     17  C   UNL     1       7.798   5.281  14.245  0.00  0.00    +0.000 A 
ATOM     18  C   UNL     1       7.407   4.887  12.970  0.00  0.00    +0.000 A 
ATOM     19  C   UNL     1       6.336   4.023  12.822  0.00  0.00    +0.000 A 
ATOM     20  C   UNL     1       5.649   3.566  13.950  0.00  0.00    +0.000 A 
ATOM     21  C   UNL     1       6.009   3.942  15.254  0.00  0.00    +0.000 A 
BRANCH  16  23
ATOM     22  C   UNL     1       7.307   6.519  17.020  0.00  0.00    +0.000 C 
ATOM     23  O   UNL     1       7.529   5.147  16.668  0.00  0.00    +0.000 OA
ENDBRANCH  16  23
ENDBRANCH   1  21
TORSDOF 2
ENDMDL
MODEL 5
REMARK VINA RESULT:      -7.2      1.221      2.165
REMARK  Name = 
REMARK  3 active torsions:
REMARK  status: ('A' for Active; 'I' for Inactive)
REMARK    1  A    between atoms: C_1  and  O_2
REMARK    2  A    between atoms: O_2  and  C_3
REMARK    3  A    between atoms: C_8  and  N_9
REMARK                            x       y       z     vdW  Elec       q    Type
REMARK                         _______ _______ _______ _____ _____    ______ ____
ROOT
ATOM      1  N   UNL     1       4.438   5.397  19.341  0.00  0.00    +0.000 N 
ATOM      2  C   UNL     1       5.116   5.417  18.111  0.00  0.00    +0.000 A 
ATOM      3  N   UNL     1       6.173   6.250  18.030  0.00  0.00    +0.000 NA
ATOM      4  C   UNL     1       6.873   6.254  16.881  0.00  0.00    +0.000 A 
ATOM      5  N   UNL     1       7.899   7.212  16.795  0.00  0.00    +0.000 N 
ATOM      6  C   UNL     1       6.609   5.406  15.806  0.00  0.00    +0.000 A 
ATOM      7  C   UNL     1       7.405   5.303  14.630  0.00  0.00    +0.000 A 
ATOM      8  C   UNL     1       6.996   4.512  13.561  0.00  0.00    +0.000 A 
ATOM      9  C   UNL     1       5.794   3.827  13.657  0.00  0.00    +0.000 A 
ATOM     10  C   UNL     1       5.047   3.890  14.843  0.00  0.00    +0.000 A 
ATOM     11  C   UNL     1       5.453   4.652  15.939  0.00  0.00    +0.000 A 
ATOM     12  N   UNL     1       4.726   4.660  17.071  0.00  0.00    +0.000 NA
ATOM     13  H   UNL     1       4.910   5.963  20.029  0.00  0.00    +0.000 HD
ATOM     14  H   UNL     1       7.848   7.773  17.640  0.00  0.00    +0.000 HD
ATOM     15  H   UNL     1       7.773   7.786  15.967  0.00  0.00    +0.000 HD
ENDROOT
BRANCH   1  21
ATOM     16  C   UNL     1       2.076   5.214  20.040  0.00  0.00    +0.000 A 
ATOM     17  C   UNL     1       1.018   4.429  20.546  0.00  0.00    +0.000 A 
ATOM     18  C   UNL     1       1.188   3.073  20.801  0.00  0.00    +0.000 A 
ATOM     19  C   UNL     1       2.422   2.487  20.575  0.00  0.00    +0.000 A 
ATOM     20  C   UNL     1       3.487   3.262  20.108  0.00  0.00    +0.000 A 
ATOM     21  C   UNL     1       3.357   4.635  19.841  0.00  0.00    +0.000 A 
BRANCH  16  23
ATOM     22  C   UNL     1       1.547   7.381  20.856  0.00  0.00    +0.000 C 
ATOM     23  O   UNL     1       1.917   6.553  19.747  0.00  0.00    +0.000 OA
ENDBRANCH  16  23
ENDBRANCH   1  21
TORSDOF 2
ENDMDL
MODEL 6
REMARK VINA RESULT:      -7.1      1.758      6.235
REMARK  Name = 
REMARK  3 active torsions:
REMARK  status: ('A' for Active; 'I' for Inactive)
REMARK    1  A    between atoms: C_1  and  O_2
REMARK    2  A    between atoms: O_2  and  C_3
REMARK    3  A    between atoms: C_8  and  N_9
REMARK                            x       y       z     vdW  Elec       q    Type
REMARK                         _______ _______ _______ _____ _____    ______ ____
ROOT
ATOM      1  N   UNL     1       4.621   6.157  16.777  0.00  0.00    +0.000 N 
ATOM      2  C   UNL     1       3.986   5.725  17.954  0.00  0.00    +0.000 A 
ATOM      3  N   UNL     1       3.252   6.648  18.606  0.00  0.00    +0.000 NA
ATOM      4  C   UNL     1       2.592   6.252  19.708  0.00  0.00    +0.000 A 
ATOM      5  N   UNL     1       1.927   7.266  20.420  0.00  0.00    +0.000 N 
ATOM      6  C   UNL     1       2.571   4.937  20.172  0.00  0.00    +0.000 A 
ATOM      7  C   UNL     1       1.786   4.465  21.262  0.00  0.00    +0.000 A 
ATOM      8  C   UNL     1       1.923   3.160  21.725  0.00  0.00    +0.000 A 
ATOM      9  C   UNL     1       2.842   2.324  21.108  0.00  0.00    +0.000 A 
ATOM     10  C   UNL     1       3.568   2.782  19.999  0.00  0.00    +0.000 A 
ATOM     11  C   UNL     1       3.426   4.077  19.498  0.00  0.00    +0.000 A 
ATOM     12  N   UNL     1       4.116   4.467  18.412  0.00  0.00    +0.000 NA
ATOM     13  H   UNL     1       4.353   7.101  16.543  0.00  0.00    +0.000 HD
ATOM     14  H   UNL     1       2.152   8.143  19.961  0.00  0.00    +0.000 HD
ATOM     15  H   UNL     1       2.230   7.272  21.389  0.00  0.00    +0.000 HD
ENDROOT
BRANCH   1  21
ATOM     16  C   UNL     1       6.818   5.478  15.877  0.00  0.00    +0.000 A 
ATOM     17  C   UNL     1       7.569   4.819  14.881  0.00  0.00    +0.000 A 
ATOM     18  C   UNL     1       6.944   4.134  13.845  0.00  0.00    +0.000 A 
ATOM     19  C   UNL     1       5.561   4.114  13.778  0.00  0.00    +0.000 A 
ATOM     20  C   UNL     1       4.808   4.794  14.739  0.00  0.00    +0.000 A 
ATOM     21  C   UNL     1       5.400   5.500  15.799  0.00  0.00    +0.000 A 
BRANCH  16  23
ATOM     22  C   UNL     1       7.681   5.324  18.085  0.00  0.00    +0.000 C 
ATOM     23  O   UNL     1       7.419   6.134  16.932  0.00  0.00    +0.000 OA
ENDBRANCH  16  23
ENDBRANCH   1  21
TORSDOF 2
ENDMDL
MODEL 7
REMARK VINA RESULT:      -7.1      4.054      6.899
REMARK  Name = 
REMARK  3 active torsions:
REMARK  status: ('A' for Active; 'I' for Inactive)
REMARK    1  A    between atoms: C_1  and  O_2
REMARK    2  A    between atoms: O_2  and  C_3
REMARK    3  A    between atoms: C_8  and  N_9
REMARK                            x       y       z     vdW  Elec       q    Type
REMARK                         _______ _______ _______ _____ _____    ______ ____
ROOT
ATOM      1  N   UNL     1       2.446   6.481  19.196  0.00  0.00    +0.000 N 
ATOM      2  C   UNL     1       1.866   7.682  19.639  0.00  0.00    +0.000 A 
ATOM      3  N   UNL     1       1.872   8.703  18.759  0.00  0.00    +0.000 NA
ATOM      4  C   UNL     1       1.279   9.850  19.136  0.00  0.00    +0.000 A 
ATOM      5  N   UNL     1       1.400  10.924  18.235  0.00  0.00    +0.000 N 
ATOM      6  C   UNL     1       0.609  10.018  20.347  0.00  0.00    +0.000 A 
ATOM      7  C   UNL     1      -0.130  11.176  20.720  0.00  0.00    +0.000 A 
ATOM      8  C   UNL     1      -0.667  11.298  21.998  0.00  0.00    +0.000 A 
ATOM      9  C   UNL     1      -0.466  10.270  22.907  0.00  0.00    +0.000 A 
ATOM     10  C   UNL     1       0.213   9.109  22.511  0.00  0.00    +0.000 A 
ATOM     11  C   UNL     1       0.733   8.953  21.225  0.00  0.00    +0.000 A 
ATOM     12  N   UNL     1       1.349   7.810  20.873  0.00  0.00    +0.000 NA
ATOM     13  H   UNL     1       2.711   6.539  18.225  0.00  0.00    +0.000 HD
ATOM     14  H   UNL     1       1.998  10.608  17.479  0.00  0.00    +0.000 HD
ATOM     15  H   UNL     1       1.799  11.731  18.705  0.00  0.00    +0.000 HD
ENDROOT
BRANCH   1  21
ATOM     16  C   UNL     1       3.686   4.364  19.475  0.00  0.00    +0.000 A 
ATOM     17  C   UNL     1       3.784   3.083  20.060  0.00  0.00    +0.000 A 
ATOM     18  C   UNL     1       2.836   2.638  20.976  0.00  0.00    +0.000 A 
ATOM     19  C   UNL     1       1.769   3.456  21.303  0.00  0.00    +0.000 A 
ATOM     20  C   UNL     1       1.642   4.711  20.702  0.00  0.00    +0.000 A 
ATOM     21  C   UNL     1       2.575   5.196  19.771  0.00  0.00    +0.000 A 
BRANCH  16  23
ATOM     22  C   UNL     1       5.863   5.272  19.189  0.00  0.00    +0.000 C 
ATOM     23  O   UNL     1       4.635   4.838  18.592  0.00  0.00    +0.000 OA
ENDBRANCH  16  23
ENDBRANCH   1  21
TORSDOF 2
ENDMDL
MODEL 8
REMARK VINA RESULT:      -7.1      3.458      4.815
REMARK  Name = 
REMARK  3 active torsions:
REMARK  status: ('A' for Active; 'I' for Inactive)
REMARK    1  A    between atoms: C_1  and  O_2
REMARK    2  A    between atoms: O_2  and  C_3
REMARK    3  A    between atoms: C_8  and  N_9
REMARK                            x       y       z     vdW  Elec       q    Type
REMARK                         _______ _______ _______ _____ _____    ______ ____
ROOT
ATOM      1  N   UNL     1       2.557   6.991  19.693  0.00  0.00    +0.000 N 
ATOM      2  C   UNL     1       3.443   6.213  18.929  0.00  0.00    +0.000 A 
ATOM      3  N   UNL     1       3.862   5.064  19.495  0.00  0.00    +0.000 NA
ATOM      4  C   UNL     1       4.671   4.272  18.768  0.00  0.00    +0.000 A 
ATOM      5  N   UNL     1       5.173   3.138  19.432  0.00  0.00    +0.000 N 
ATOM      6  C   UNL     1       5.043   4.539  17.452  0.00  0.00    +0.000 A 
ATOM      7  C   UNL     1       5.795   3.664  16.619  0.00  0.00    +0.000 A 
ATOM      8  C   UNL     1       6.217   4.069  15.357  0.00  0.00    +0.000 A 
ATOM      9  C   UNL     1       5.896   5.346  14.922  0.00  0.00    +0.000 A 
ATOM     10  C   UNL     1       5.105   6.179  15.727  0.00  0.00    +0.000 A 
ATOM     11  C   UNL     1       4.644   5.783  16.983  0.00  0.00    +0.000 A 
ATOM     12  N   UNL     1       3.860   6.598  17.711  0.00  0.00    +0.000 NA
ATOM     13  H   UNL     1       2.292   6.517  20.542  0.00  0.00    +0.000 HD
ATOM     14  H   UNL     1       4.853   3.195  20.394  0.00  0.00    +0.000 HD
ATOM     15  H   UNL     1       6.187   3.125  19.384  0.00  0.00    +0.000 HD
ENDROOT
BRANCH   1  21
ATOM     16  C   UNL     1       1.178   8.884  20.478  0.00  0.00    +0.000 A 
ATOM     17  C   UNL     1       0.481  10.077  20.192  0.00  0.00    +0.000 A 
ATOM     18  C   UNL     1       0.493  10.628  18.915  0.00  0.00    +0.000 A 
ATOM     19  C   UNL     1       1.182   9.984  17.902  0.00  0.00    +0.000 A 
ATOM     20  C   UNL     1       1.846   8.783  18.165  0.00  0.00    +0.000 A 
ATOM     21  C   UNL     1       1.856   8.192  19.440  0.00  0.00    +0.000 A 
BRANCH  16  23
ATOM     22  C   UNL     1       0.768   9.213  22.794  0.00  0.00    +0.000 C 
ATOM     23  O   UNL     1       1.208   8.341  21.746  0.00  0.00    +0.000 OA
ENDBRANCH  16  23
ENDBRANCH   1  21
TORSDOF 2
ENDMDL
MODEL 9
REMARK VINA RESULT:      -7.0      4.256      6.600
REMARK  Name = 
REMARK  3 active torsions:
REMARK  status: ('A' for Active; 'I' for Inactive)
REMARK    1  A    between atoms: C_1  and  O_2
REMARK    2  A    between atoms: O_2  and  C_3
REMARK    3  A    between atoms: C_8  and  N_9
REMARK                            x       y       z     vdW  Elec       q    Type
REMARK                         _______ _______ _______ _____ _____    ______ ____
ROOT
ATOM      1  N   UNL     1       1.684   8.535  19.753  0.00  0.00    +0.000 N 
ATOM      2  C   UNL     1       2.165   7.220  19.633  0.00  0.00    +0.000 A 
ATOM      3  N   UNL     1       2.959   6.974  18.572  0.00  0.00    +0.000 NA
ATOM      4  C   UNL     1       3.477   5.737  18.458  0.00  0.00    +0.000 A 
ATOM      5  N   UNL     1       4.209   5.488  17.283  0.00  0.00    +0.000 N 
ATOM      6  C   UNL     1       3.293   4.727  19.401  0.00  0.00    +0.000 A 
ATOM      7  C   UNL     1       3.926   3.452  19.370  0.00  0.00    +0.000 A 
ATOM      8  C   UNL     1       3.589   2.467  20.293  0.00  0.00    +0.000 A 
ATOM      9  C   UNL     1       2.621   2.747  21.246  0.00  0.00    +0.000 A 
ATOM     10  C   UNL     1       2.047   4.025  21.304  0.00  0.00    +0.000 A 
ATOM     11  C   UNL     1       2.391   5.038  20.408  0.00  0.00    +0.000 A 
ATOM     12  N   UNL     1       1.842   6.261  20.518  0.00  0.00    +0.000 NA
ATOM     13  H   UNL     1       2.086   9.137  19.051  0.00  0.00    +0.000 HD
ATOM     14  H   UNL     1       4.132   6.320  16.707  0.00  0.00    +0.000 HD
ATOM     15  H   UNL     1       3.834   4.675  16.803  0.00  0.00    +0.000 HD
ENDROOT
BRANCH   1  21
ATOM     16  C   UNL     1      -0.054  10.179  20.365  0.00  0.00    +0.000 A 
ATOM     17  C   UNL     1      -0.813  10.828  21.362  0.00  0.00    +0.000 A 
ATOM     18  C   UNL     1      -0.683  10.481  22.703  0.00  0.00    +0.000 A 
ATOM     19  C   UNL     1       0.220   9.498  23.067  0.00  0.00    +0.000 A 
ATOM     20  C   UNL     1       1.003   8.874  22.092  0.00  0.00    +0.000 A 
ATOM     21  C   UNL     1       0.904   9.197  20.728  0.00  0.00    +0.000 A 
BRANCH  16  23
ATOM     22  C   UNL     1      -1.524  10.357  18.506  0.00  0.00    +0.000 C 
ATOM     23  O   UNL     1      -0.194  10.485  19.026  0.00  0.00    +0.000 OA
ENDBRANCH  16  23
ENDBRANCH   1  21
TORSDOF 2
ENDMDL
