MODEL 1
REMARK VINA RESULT:      -7.8      0.000      0.000
REMARK  Name = 
REMARK  4 active torsions:
REMARK  status: ('A' for Active; 'I' for Inactive)
REMARK    1  A    between atoms: C_2  and  C_3
REMARK    2  A    between atoms: C_3  and  N_4
REMARK    3  A    between atoms: C_6  and  C_7
REMARK    4  A    between atoms: C_20  and  N_21
REMARK                            x       y       z     vdW  Elec       q    Type
REMARK                         _______ _______ _______ _____ _____    ______ ____
ROOT
ATOM      1  C   UNL     1       4.730   3.694  18.317  0.00  0.00    +0.000 A 
ATOM      2  C   UNL     1       3.460   4.204  18.088  0.00  0.00    +0.000 A 
ATOM      3  C   UNL     1       2.642   4.216  19.211  0.00  0.00    +0.000 A 
ATOM      4  C   UNL     1       2.931   3.437  20.330  0.00  0.00    +0.000 A 
ATOM      5  C   UNL     1       4.135   2.730  20.363  0.00  0.00    +0.000 A 
ATOM      6  N   UNL     1       5.060   2.941  19.392  0.00  0.00    +0.000 NA
ATOM      7  C   UNL     1       1.833   3.610  21.184  0.00  0.00    +0.000 A 
ATOM      8  N   UNL     1       1.017   4.590  20.767  0.00  0.00    +0.000 NA
ATOM      9  N   UNL     1       1.629   5.078  19.645  0.00  0.00    +0.000 N 
ATOM     10  C   UNL     1       1.492   6.462  19.261  0.00  0.00    +0.000 A 
ATOM     11  C   UNL     1       1.678   6.849  17.947  0.00  0.00    +0.000 A 
ATOM     12  C   UNL     1       1.673   8.203  17.657  0.00  0.00    +0.000 A 
ATOM     13  C   UNL     1       1.512   9.126  18.691  0.00  0.00    +0.000 A 
ATOM     14  C   UNL     1       1.362   8.698  20.009  0.00  0.00    +0.000 A 
ATOM     15  N   UNL     1       1.325   7.370  20.269  0.00  0.00    +0.000 NA
ENDROOT
BRANCH  14  16
ATOM     16  N   UNL     1       1.285   9.578  21.069  0.00  0.00    +0.000 N 
ATOM     17  C   UNL     1       1.270  11.019  20.817  0.00  0.00    +0.000 C 
ATOM     18  C   UNL     1      -0.153  11.571  20.815  0.00  0.00    +0.000 C 
ATOM     19  C   UNL     1      -1.037  11.218  22.016  0.00  0.00    +0.000 C 
ATOM     20  N   UNL     1      -0.352  10.890  23.271  0.00  0.00    +0.000 NA
ATOM     21  C   UNL     1       0.099   9.480  23.268  0.00  0.00    +0.000 C 
ATOM     22  C   UNL     1       1.392   9.192  22.478  0.00  0.00    +0.000 C 
ATOM     23  H   UNL     1      -1.028  10.993  24.029  0.00  0.00    +0.000 HD
ENDBRANCH  14  16
BRANCH   1  26
ATOM     24  N   UNL     1       7.001   4.570  15.665  0.00  0.00    +0.000 N 
ATOM     25  C   UNL     1       5.787   4.111  16.086  0.00  0.00    +0.000 A 
ATOM     26  C   UNL     1       5.813   4.149  17.464  0.00  0.00    +0.000 A 
ATOM     27  C   UNL     1       7.145   4.538  17.761  0.00  0.00    +0.000 A 
ATOM     28  N   UNL     1       7.866   4.806  16.666  0.00  0.00    +0.000 NA
BRANCH  24  29
ATOM     29  C   UNL     1       7.379   4.856  14.299  0.00  0.00    +0.000 C 
BRANCH  29  31
ATOM     30  F   UNL     1       7.163   3.967  12.155  0.00  0.00    +0.000 F 
ATOM     31  C   UNL     1       6.459   4.201  13.297  0.00  0.00    +0.000 C 
ENDBRANCH  29  31
ENDBRANCH  24  29
ENDBRANCH   1  26
TORSDOF 4
ENDMDL
MODEL 2
REMARK VINA RESULT:      -7.3      4.107      8.598
REMARK  Name = 
REMARK  4 active torsions:
REMARK  status: ('A' for Active; 'I' for Inactive)
REMARK    1  A    between atoms: C_2  and  C_3
REMARK    2  A    between atoms: C_3  and  N_4
REMARK    3  A    between atoms: C_6  and  C_7
REMARK    4  A    between atoms: C_20  and  N_21
REMARK                            x       y       z     vdW  Elec       q    Type
REMARK                         _______ _______ _______ _____ _____    ______ ____
ROOT
ATOM      1  C   UNL     1      -2.026  11.348  18.655  0.00  0.00    +0.000 A 
ATOM      2  C   UNL     1      -0.640  11.287  18.645  0.00  0.00    +0.000 A 
ATOM      3  C   UNL     1      -0.077  10.963  19.873  0.00  0.00    +0.000 A 
ATOM      4  C   UNL     1      -0.799  11.084  21.059  0.00  0.00    +0.000 A 
ATOM      5  C   UNL     1      -2.153  11.418  20.990  0.00  0.00    +0.000 A 
ATOM      6  N   UNL     1      -2.770  11.456  19.781  0.00  0.00    +0.000 NA
ATOM      7  C   UNL     1       0.124  10.801  22.075  0.00  0.00    +0.000 A 
ATOM      8  N   UNL     1       1.277  10.314  21.590  0.00  0.00    +0.000 NA
ATOM      9  N   UNL     1       1.067  10.247  20.240  0.00  0.00    +0.000 N 
ATOM     10  C   UNL     1       1.715   9.243  19.432  0.00  0.00    +0.000 A 
ATOM     11  C   UNL     1       1.903   9.443  18.077  0.00  0.00    +0.000 A 
ATOM     12  C   UNL     1       2.401   8.394  17.323  0.00  0.00    +0.000 A 
ATOM     13  C   UNL     1       2.669   7.171  17.941  0.00  0.00    +0.000 A 
ATOM     14  C   UNL     1       2.434   6.997  19.303  0.00  0.00    +0.000 A 
ATOM     15  N   UNL     1       1.988   8.046  20.034  0.00  0.00    +0.000 NA
ENDROOT
BRANCH  14  16
ATOM     16  N   UNL     1       2.604   5.781  19.935  0.00  0.00    +0.000 N 
ATOM     17  C   UNL     1       1.596   5.310  20.885  0.00  0.00    +0.000 C 
ATOM     18  C   UNL     1       0.616   4.344  20.226  0.00  0.00    +0.000 C 
ATOM     19  C   UNL     1       1.216   3.172  19.441  0.00  0.00    +0.000 C 
ATOM     20  N   UNL     1       2.567   2.742  19.818  0.00  0.00    +0.000 NA
ATOM     21  C   UNL     1       3.587   3.608  19.185  0.00  0.00    +0.000 C 
ATOM     22  C   UNL     1       3.823   4.973  19.865  0.00  0.00    +0.000 C 
ATOM     23  H   UNL     1       2.703   1.797  19.459  0.00  0.00    +0.000 HD
ENDBRANCH  14  16
BRANCH   1  26
ATOM     24  N   UNL     1      -3.121  10.516  15.329  0.00  0.00    +0.000 N 
ATOM     25  C   UNL     1      -2.149  10.549  16.286  0.00  0.00    +0.000 A 
ATOM     26  C   UNL     1      -2.732  11.087  17.413  0.00  0.00    +0.000 A 
ATOM     27  C   UNL     1      -4.031  11.450  16.975  0.00  0.00    +0.000 A 
ATOM     28  N   UNL     1      -4.274  11.092  15.709  0.00  0.00    +0.000 NA
BRANCH  24  29
ATOM     29  C   UNL     1      -3.019   9.889  14.030  0.00  0.00    +0.000 C 
BRANCH  29  31
ATOM     30  F   UNL     1      -4.012   9.864  11.920  0.00  0.00    +0.000 F 
ATOM     31  C   UNL     1      -4.307   9.979  13.245  0.00  0.00    +0.000 C 
ENDBRANCH  29  31
ENDBRANCH  24  29
ENDBRANCH   1  26
TORSDOF 4
ENDMDL
MODEL 3
REMARK VINA RESULT:      -6.9      4.203      9.043
REMARK  Name = 
REMARK  4 active torsions:
REMARK  status: ('A' for Active; 'I' for Inactive)
REMARK    1  A    between atoms: C_2  and  C_3
REMARK    2  A    between atoms: C_3  and  N_4
REMARK    3  A    between atoms: C_6  and  C_7
REMARK    4  A    between atoms: C_20  and  N_21
REMARK                            x       y       z     vdW  Elec       q    Type
REMARK                         _______ _______ _______ _____ _____    ______ ____
ROOT
ATOM      1  C   UNL     1      -1.269  11.030  19.792  0.00  0.00    +0.000 A 
ATOM      2  C   UNL     1       0.075  10.720  19.638  0.00  0.00    +0.000 A 
ATOM      3  C   UNL     1       0.649  10.116  20.750  0.00  0.00    +0.000 A 
ATOM      4  C   UNL     1       0.049  10.186  22.006  0.00  0.00    +0.000 A 
ATOM      5  C   UNL     1      -1.215  10.769  22.116  0.00  0.00    +0.000 A 
ATOM      6  N   UNL     1      -1.896  11.102  20.989  0.00  0.00    +0.000 NA
ATOM      7  C   UNL     1       0.969   9.588  22.879  0.00  0.00    +0.000 A 
ATOM      8  N   UNL     1       1.967   8.977  22.223  0.00  0.00    +0.000 NA
ATOM      9  N   UNL     1       1.654   9.155  20.903  0.00  0.00    +0.000 N 
ATOM     10  C   UNL     1       2.035   8.184  19.907  0.00  0.00    +0.000 A 
ATOM     11  C   UNL     1       2.163   8.549  18.580  0.00  0.00    +0.000 A 
ATOM     12  C   UNL     1       2.392   7.553  17.646  0.00  0.00    +0.000 A 
ATOM     13  C   UNL     1       2.458   6.223  18.064  0.00  0.00    +0.000 A 
ATOM     14  C   UNL     1       2.291   5.890  19.406  0.00  0.00    +0.000 A 
ATOM     15  N   UNL     1       2.110   6.880  20.312  0.00  0.00    +0.000 NA
ENDROOT
BRANCH  14  16
ATOM     16  N   UNL     1       2.264   4.582  19.848  0.00  0.00    +0.000 N 
ATOM     17  C   UNL     1       1.049   4.049  20.465  0.00  0.00    +0.000 C 
ATOM     18  C   UNL     1       0.205   3.274  19.458  0.00  0.00    +0.000 C 
ATOM     19  C   UNL     1       0.918   2.194  18.637  0.00  0.00    +0.000 C 
ATOM     20  N   UNL     1       2.131   1.609  19.221  0.00  0.00    +0.000 NA
ATOM     21  C   UNL     1       3.302   2.481  18.977  0.00  0.00    +0.000 C 
ATOM     22  C   UNL     1       3.434   3.703  19.910  0.00  0.00    +0.000 C 
ATOM     23  H   UNL     1       2.306   0.722  18.747  0.00  0.00    +0.000 HD
ENDBRANCH  14  16
BRANCH   1  26
ATOM     24  N   UNL     1      -3.828  11.437  17.293  0.00  0.00    +0.000 N 
ATOM     25  C   UNL     1      -3.376  11.606  18.569  0.00  0.00    +0.000 A 
ATOM     26  C   UNL     1      -2.097  11.095  18.601  0.00  0.00    +0.000 A 
ATOM     27  C   UNL     1      -1.930  10.535  17.308  0.00  0.00    +0.000 A 
ATOM     28  N   UNL     1      -2.979  10.753  16.507  0.00  0.00    +0.000 NA
BRANCH  24  29
ATOM     29  C   UNL     1      -5.059  11.961  16.745  0.00  0.00    +0.000 C 
BRANCH  29  31
ATOM     30  F   UNL     1      -6.540  10.662  17.993  0.00  0.00    +0.000 F 
ATOM     31  C   UNL     1      -6.185  11.955  17.751  0.00  0.00    +0.000 C 
ENDBRANCH  29  31
ENDBRANCH  24  29
ENDBRANCH   1  26
TORSDOF 4
ENDMDL
MODEL 4
REMARK VINA RESULT:      -6.9      4.146      8.991
REMARK  Name = 
REMARK  4 active torsions:
REMARK  status: ('A' for Active; 'I' for Inactive)
REMARK    1  A    between atoms: C_2  and  C_3
REMARK    2  A    between atoms: C_3  and  N_4
REMARK    3  A    between atoms: C_6  and  C_7
REMARK    4  A    between atoms: C_20  and  N_21
REMARK                            x       y       z     vdW  Elec       q    Type
REMARK                         _______ _______ _______ _____ _____    ______ ____
ROOT
ATOM      1  C   UNL     1      -1.198  11.090  19.694  0.00  0.00    +0.000 A 
ATOM      2  C   UNL     1       0.128  10.711  19.543  0.00  0.00    +0.000 A 
ATOM      3  C   UNL     1       0.657  10.046  20.642  0.00  0.00    +0.000 A 
ATOM      4  C   UNL     1       0.049  10.113  21.895  0.00  0.00    +0.000 A 
ATOM      5  C   UNL     1      -1.183  10.760  22.010  0.00  0.00    +0.000 A 
ATOM      6  N   UNL     1      -1.833  11.161  20.887  0.00  0.00    +0.000 NA
ATOM      7  C   UNL     1       0.926   9.442  22.759  0.00  0.00    +0.000 A 
ATOM      8  N   UNL     1       1.897   8.796  22.094  0.00  0.00    +0.000 NA
ATOM      9  N   UNL     1       1.608   9.028  20.777  0.00  0.00    +0.000 N 
ATOM     10  C   UNL     1       1.946   8.066  19.756  0.00  0.00    +0.000 A 
ATOM     11  C   UNL     1       2.107   8.461  18.442  0.00  0.00    +0.000 A 
ATOM     12  C   UNL     1       2.292   7.480  17.482  0.00  0.00    +0.000 A 
ATOM     13  C   UNL     1       2.282   6.138  17.861  0.00  0.00    +0.000 A 
ATOM     14  C   UNL     1       2.083   5.777  19.192  0.00  0.00    +0.000 A 
ATOM     15  N   UNL     1       1.947   6.749  20.124  0.00  0.00    +0.000 NA
ENDROOT
BRANCH  14  16
ATOM     16  N   UNL     1       1.981   4.461  19.596  0.00  0.00    +0.000 N 
ATOM     17  C   UNL     1       2.420   3.391  18.700  0.00  0.00    +0.000 C 
ATOM     18  C   UNL     1       3.838   2.932  19.029  0.00  0.00    +0.000 C 
ATOM     19  C   UNL     1       4.131   2.574  20.490  0.00  0.00    +0.000 C 
ATOM     20  N   UNL     1       2.989   2.163  21.315  0.00  0.00    +0.000 NA
ATOM     21  C   UNL     1       2.253   3.346  21.817  0.00  0.00    +0.000 C 
ATOM     22  C   UNL     1       1.295   4.016  20.810  0.00  0.00    +0.000 C 
ATOM     23  H   UNL     1       3.356   1.665  22.126  0.00  0.00    +0.000 HD
ENDBRANCH  14  16
BRANCH   1  26
ATOM     24  N   UNL     1      -3.752  11.539  17.197  0.00  0.00    +0.000 N 
ATOM     25  C   UNL     1      -3.348  11.559  18.500  0.00  0.00    +0.000 A 
ATOM     26  C   UNL     1      -2.009  11.232  18.498  0.00  0.00    +0.000 A 
ATOM     27  C   UNL     1      -1.745  10.921  17.140  0.00  0.00    +0.000 A 
ATOM     28  N   UNL     1      -2.802  11.119  16.344  0.00  0.00    +0.000 NA
BRANCH  24  29
ATOM     29  C   UNL     1      -5.037  11.970  16.694  0.00  0.00    +0.000 C 
BRANCH  29  31
ATOM     30  F   UNL     1      -6.510  10.694  17.975  0.00  0.00    +0.000 F 
ATOM     31  C   UNL     1      -6.102  11.977  17.765  0.00  0.00    +0.000 C 
ENDBRANCH  29  31
ENDBRANCH  24  29
ENDBRANCH   1  26
TORSDOF 4
ENDMDL
MODEL 5
REMARK VINA RESULT:      -6.7      4.026      6.576
REMARK  Name = 
REMARK  4 active torsions:
REMARK  status: ('A' for Active; 'I' for Inactive)
REMARK    1  A    between atoms: C_2  and  C_3
REMARK    2  A    between atoms: C_3  and  N_4
REMARK    3  A    between atoms: C_6  and  C_7
REMARK    4  A    between atoms: C_20  and  N_21
REMARK                            x       y       z     vdW  Elec       q    Type
REMARK                         _______ _______ _______ _____ _____    ______ ____
ROOT
ATOM      1  C   UNL     1       1.321   8.438  19.883  0.00  0.00    +0.000 A 
ATOM      2  C   UNL     1       0.910   9.685  19.434  0.00  0.00    +0.000 A 
ATOM      3  C   UNL     1       0.530  10.557  20.447  0.00  0.00    +0.000 A 
ATOM      4  C   UNL     1       0.217  10.095  21.725  0.00  0.00    +0.000 A 
ATOM      5  C   UNL     1       0.413   8.744  22.017  0.00  0.00    +0.000 A 
ATOM      6  N   UNL     1       1.049   7.951  21.116  0.00  0.00    +0.000 NA
ATOM      7  C   UNL     1      -0.238  11.226  22.416  0.00  0.00    +0.000 A 
ATOM      8  N   UNL     1      -0.022  12.359  21.732  0.00  0.00    +0.000 NA
ATOM      9  N   UNL     1       0.621  11.945  20.597  0.00  0.00    +0.000 N 
ATOM     10  C   UNL     1       1.576  12.793  19.926  0.00  0.00    +0.000 A 
ATOM     11  C   UNL     1       1.857  12.613  18.585  0.00  0.00    +0.000 A 
ATOM     12  C   UNL     1       2.879  13.360  18.025  0.00  0.00    +0.000 A 
ATOM     13  C   UNL     1       3.606  14.240  18.828  0.00  0.00    +0.000 A 
ATOM     14  C   UNL     1       3.316  14.369  20.184  0.00  0.00    +0.000 A 
ATOM     15  N   UNL     1       2.285  13.664  20.706  0.00  0.00    +0.000 NA
ENDROOT
BRANCH  14  16
ATOM     16  N   UNL     1       4.064  15.163  21.030  0.00  0.00    +0.000 N 
ATOM     17  C   UNL     1       4.194  14.799  22.441  0.00  0.00    +0.000 C 
ATOM     18  C   UNL     1       5.492  14.040  22.705  0.00  0.00    +0.000 C 
ATOM     19  C   UNL     1       6.786  14.673  22.184  0.00  0.00    +0.000 C 
ATOM     20  N   UNL     1       6.783  16.128  21.991  0.00  0.00    +0.000 NA
ATOM     21  C   UNL     1       6.161  16.483  20.696  0.00  0.00    +0.000 C 
ATOM     22  C   UNL     1       4.618  16.469  20.667  0.00  0.00    +0.000 C 
ATOM     23  H   UNL     1       7.755  16.438  21.959  0.00  0.00    +0.000 HD
ENDBRANCH  14  16
BRANCH   1  26
ATOM     24  N   UNL     1       3.667   6.136  18.415  0.00  0.00    +0.000 N 
ATOM     25  C   UNL     1       2.807   6.478  19.418  0.00  0.00    +0.000 A 
ATOM     26  C   UNL     1       2.256   7.690  19.062  0.00  0.00    +0.000 A 
ATOM     27  C   UNL     1       2.954   8.037  17.876  0.00  0.00    +0.000 A 
ATOM     28  N   UNL     1       3.804   7.086  17.475  0.00  0.00    +0.000 NA
BRANCH  24  29
ATOM     29  C   UNL     1       4.356   4.873  18.274  0.00  0.00    +0.000 C 
BRANCH  29  31
ATOM     30  F   UNL     1       2.417   4.076  17.253  0.00  0.00    +0.000 F 
ATOM     31  C   UNL     1       3.776   4.021  17.170  0.00  0.00    +0.000 C 
ENDBRANCH  29  31
ENDBRANCH  24  29
ENDBRANCH   1  26
TORSDOF 4
ENDMDL
MODEL 6
REMARK VINA RESULT:      -6.7      4.109      6.584
REMARK  Name = 
REMARK  4 active torsions:
REMARK  status: ('A' for Active; 'I' for Inactive)
REMARK    1  A    between atoms: C_2  and  C_3
REMARK    2  A    between atoms: C_3  and  N_4
REMARK    3  A    between atoms: C_6  and  C_7
REMARK    4  A    between atoms: C_20  and  N_21
REMARK                            x       y       z     vdW  Elec       q    Type
REMARK                         _______ _______ _______ _____ _____    ______ ____
ROOT
ATOM      1  C   UNL     1       1.337   8.358  19.829  0.00  0.00    +0.000 A 
ATOM      2  C   UNL     1       0.912   9.632  19.479  0.00  0.00    +0.000 A 
ATOM      3  C   UNL     1       0.506  10.411  20.556  0.00  0.00    +0.000 A 
ATOM      4  C   UNL     1       0.185   9.840  21.786  0.00  0.00    +0.000 A 
ATOM      5  C   UNL     1       0.399   8.472  21.968  0.00  0.00    +0.000 A 
ATOM      6  N   UNL     1       1.058   7.767  21.014  0.00  0.00    +0.000 NA
ATOM      7  C   UNL     1      -0.296  10.903  22.563  0.00  0.00    +0.000 A 
ATOM      8  N   UNL     1      -0.090  12.092  21.977  0.00  0.00    +0.000 NA
ATOM      9  N   UNL     1       0.573  11.782  20.821  0.00  0.00    +0.000 N 
ATOM     10  C   UNL     1       1.522  12.698  20.235  0.00  0.00    +0.000 A 
ATOM     11  C   UNL     1       1.821  12.634  18.888  0.00  0.00    +0.000 A 
ATOM     12  C   UNL     1       2.839  13.440  18.405  0.00  0.00    +0.000 A 
ATOM     13  C   UNL     1       3.541  14.261  19.287  0.00  0.00    +0.000 A 
ATOM     14  C   UNL     1       3.233  14.273  20.646  0.00  0.00    +0.000 A 
ATOM     15  N   UNL     1       2.207  13.512  21.094  0.00  0.00    +0.000 NA
ENDROOT
BRANCH  14  16
ATOM     16  N   UNL     1       3.958  15.005  21.564  0.00  0.00    +0.000 N 
ATOM     17  C   UNL     1       4.917  14.329  22.437  0.00  0.00    +0.000 C 
ATOM     18  C   UNL     1       6.337  14.421  21.886  0.00  0.00    +0.000 C 
ATOM     19  C   UNL     1       6.843  15.815  21.498  0.00  0.00    +0.000 C 
ATOM     20  N   UNL     1       6.210  16.960  22.163  0.00  0.00    +0.000 NA
ATOM     21  C   UNL     1       4.931  17.307  21.503  0.00  0.00    +0.000 C 
ATOM     22  C   UNL     1       3.724  16.419  21.869  0.00  0.00    +0.000 C 
ATOM     23  H   UNL     1       6.834  17.761  22.061  0.00  0.00    +0.000 HD
ENDBRANCH  14  16
BRANCH   1  26
ATOM     24  N   UNL     1       3.734   6.218  18.206  0.00  0.00    +0.000 N 
ATOM     25  C   UNL     1       2.854   6.462  19.219  0.00  0.00    +0.000 A 
ATOM     26  C   UNL     1       2.295   7.695  18.962  0.00  0.00    +0.000 A 
ATOM     27  C   UNL     1       3.007   8.152  17.823  0.00  0.00    +0.000 A 
ATOM     28  N   UNL     1       3.875   7.249  17.354  0.00  0.00    +0.000 NA
BRANCH  24  29
ATOM     29  C   UNL     1       4.440   4.980  17.966  0.00  0.00    +0.000 C 
BRANCH  29  31
ATOM     30  F   UNL     1       6.027   5.619  19.551  0.00  0.00    +0.000 F 
ATOM     31  C   UNL     1       5.276   4.555  19.151  0.00  0.00    +0.000 C 
ENDBRANCH  29  31
ENDBRANCH  24  29
ENDBRANCH   1  26
TORSDOF 4
ENDMDL
MODEL 7
REMARK VINA RESULT:      -6.6      4.481      7.713
REMARK  Name = 
REMARK  4 active torsions:
REMARK  status: ('A' for Active; 'I' for Inactive)
REMARK    1  A    between atoms: C_2  and  C_3
REMARK    2  A    between atoms: C_3  and  N_4
REMARK    3  A    between atoms: C_6  and  C_7
REMARK    4  A    between atoms: C_20  and  N_21
REMARK                            x       y       z     vdW  Elec       q    Type
REMARK                         _______ _______ _______ _____ _____    ______ ____
ROOT
ATOM      1  C   UNL     1       0.257   8.953  21.139  0.00  0.00    +0.000 A 
ATOM      2  C   UNL     1      -0.010  10.068  20.356  0.00  0.00    +0.000 A 
ATOM      3  C   UNL     1      -0.273  11.222  21.083  0.00  0.00    +0.000 A 
ATOM      4  C   UNL     1      -0.624  11.169  22.431  0.00  0.00    +0.000 A 
ATOM      5  C   UNL     1      -0.585   9.937  23.087  0.00  0.00    +0.000 A 
ATOM      6  N   UNL     1      -0.056   8.859  22.452  0.00  0.00    +0.000 NA
ATOM      7  C   UNL     1      -0.935  12.492  22.775  0.00  0.00    +0.000 A 
ATOM      8  N   UNL     1      -0.595  13.360  21.811  0.00  0.00    +0.000 NA
ATOM      9  N   UNL     1      -0.018  12.577  20.848  0.00  0.00    +0.000 N 
ATOM     10  C   UNL     1       1.022  13.092  19.990  0.00  0.00    +0.000 A 
ATOM     11  C   UNL     1       1.264  12.519  18.756  0.00  0.00    +0.000 A 
ATOM     12  C   UNL     1       2.361  12.959  18.035  0.00  0.00    +0.000 A 
ATOM     13  C   UNL     1       3.195  13.935  18.581  0.00  0.00    +0.000 A 
ATOM     14  C   UNL     1       2.937  14.465  19.843  0.00  0.00    +0.000 A 
ATOM     15  N   UNL     1       1.836  14.056  20.516  0.00  0.00    +0.000 NA
ENDROOT
BRANCH  14  16
ATOM     16  N   UNL     1       3.783  15.369  20.454  0.00  0.00    +0.000 N 
ATOM     17  C   UNL     1       5.213  15.075  20.549  0.00  0.00    +0.000 C 
ATOM     18  C   UNL     1       5.999  15.751  19.430  0.00  0.00    +0.000 C 
ATOM     19  C   UNL     1       5.764  17.251  19.224  0.00  0.00    +0.000 C 
ATOM     20  N   UNL     1       5.283  18.014  20.382  0.00  0.00    +0.000 NA
ATOM     21  C   UNL     1       3.818  17.867  20.533  0.00  0.00    +0.000 C 
ATOM     22  C   UNL     1       3.339  16.555  21.189  0.00  0.00    +0.000 C 
ATOM     23  H   UNL     1       5.476  19.000  20.205  0.00  0.00    +0.000 HD
ENDBRANCH  14  16
BRANCH   1  26
ATOM     24  N   UNL     1       2.125   5.984  20.332  0.00  0.00    +0.000 N 
ATOM     25  C   UNL     1       1.225   6.645  21.115  0.00  0.00    +0.000 A 
ATOM     26  C   UNL     1       1.089   7.905  20.575  0.00  0.00    +0.000 A 
ATOM     27  C   UNL     1       2.052   7.926  19.534  0.00  0.00    +0.000 A 
ATOM     28  N   UNL     1       2.676   6.753  19.377  0.00  0.00    +0.000 NA
BRANCH  24  29
ATOM     29  C   UNL     1       2.466   4.582  20.418  0.00  0.00    +0.000 C 
BRANCH  29  31
ATOM     30  F   UNL     1       0.941   3.143  21.438  0.00  0.00    +0.000 F 
ATOM     31  C   UNL     1       1.266   3.685  20.231  0.00  0.00    +0.000 C 
ENDBRANCH  29  31
ENDBRANCH  24  29
ENDBRANCH   1  26
TORSDOF 4
ENDMDL
MODEL 8
REMARK VINA RESULT:      -6.6      4.091      6.367
REMARK  Name = 
REMARK  4 active torsions:
REMARK  status: ('A' for Active; 'I' for Inactive)
REMARK    1  A    between atoms: C_2  and  C_3
REMARK    2  A    between atoms: C_3  and  N_4
REMARK    3  A    between atoms: C_6  and  C_7
REMARK    4  A    between atoms: C_20  and  N_21
REMARK                            x       y       z     vdW  Elec       q    Type
REMARK                         _______ _______ _______ _____ _____    ______ ____
ROOT
ATOM      1  C   UNL     1       1.462   8.243  19.816  0.00  0.00    +0.000 A 
ATOM      2  C   UNL     1       1.004   9.478  19.377  0.00  0.00    +0.000 A 
ATOM      3  C   UNL     1       0.608  10.332  20.399  0.00  0.00    +0.000 A 
ATOM      4  C   UNL     1       0.326   9.854  21.678  0.00  0.00    +0.000 A 
ATOM      5  C   UNL     1       0.570   8.509  21.961  0.00  0.00    +0.000 A 
ATOM      6  N   UNL     1       1.221   7.742  21.049  0.00  0.00    +0.000 NA
ATOM      7  C   UNL     1      -0.158  10.967  22.380  0.00  0.00    +0.000 A 
ATOM      8  N   UNL     1       0.012  12.110  21.698  0.00  0.00    +0.000 NA
ATOM      9  N   UNL     1       0.654  11.721  20.554  0.00  0.00    +0.000 N 
ATOM     10  C   UNL     1       1.572  12.604  19.875  0.00  0.00    +0.000 A 
ATOM     11  C   UNL     1       1.842  12.439  18.530  0.00  0.00    +0.000 A 
ATOM     12  C   UNL     1       2.832  13.222  17.961  0.00  0.00    +0.000 A 
ATOM     13  C   UNL     1       3.539  14.122  18.759  0.00  0.00    +0.000 A 
ATOM     14  C   UNL     1       3.261  14.236  20.120  0.00  0.00    +0.000 A 
ATOM     15  N   UNL     1       2.260  13.495  20.651  0.00  0.00    +0.000 NA
ENDROOT
BRANCH  14  16
ATOM     16  N   UNL     1       3.993  15.051  20.960  0.00  0.00    +0.000 N 
ATOM     17  C   UNL     1       5.201  15.709  20.462  0.00  0.00    +0.000 C 
ATOM     18  C   UNL     1       4.916  17.143  20.024  0.00  0.00    +0.000 C 
ATOM     19  C   UNL     1       4.178  18.041  21.022  0.00  0.00    +0.000 C 
ATOM     20  N   UNL     1       4.292  17.690  22.442  0.00  0.00    +0.000 NA
ATOM     21  C   UNL     1       3.335  16.617  22.794  0.00  0.00    +0.000 C 
ATOM     22  C   UNL     1       3.756  15.186  22.399  0.00  0.00    +0.000 C 
ATOM     23  H   UNL     1       4.040  18.515  22.987  0.00  0.00    +0.000 HD
ENDBRANCH  14  16
BRANCH   1  26
ATOM     24  N   UNL     1       3.841   6.009  18.297  0.00  0.00    +0.000 N 
ATOM     25  C   UNL     1       2.967   6.311  19.301  0.00  0.00    +0.000 A 
ATOM     26  C   UNL     1       2.412   7.530  18.980  0.00  0.00    +0.000 A 
ATOM     27  C   UNL     1       3.119   7.922  17.815  0.00  0.00    +0.000 A 
ATOM     28  N   UNL     1       3.982   6.992  17.391  0.00  0.00    +0.000 NA
BRANCH  24  29
ATOM     29  C   UNL     1       4.541   4.756  18.121  0.00  0.00    +0.000 C 
BRANCH  29  31
ATOM     30  F   UNL     1       6.162   5.468  19.638  0.00  0.00    +0.000 F 
ATOM     31  C   UNL     1       6.016   4.874  18.420  0.00  0.00    +0.000 C 
ENDBRANCH  29  31
ENDBRANCH  24  29
ENDBRANCH   1  26
TORSDOF 4
ENDMDL
MODEL 9
REMARK VINA RESULT:      -6.6      1.877      2.151
REMARK  Name = 
REMARK  4 active torsions:
REMARK  status: ('A' for Active; 'I' for Inactive)
REMARK    1  A    between atoms: C_2  and  C_3
REMARK    2  A    between atoms: C_3  and  N_4
REMARK    3  A    between atoms: C_6  and  C_7
REMARK    4  A    between atoms: C_20  and  N_21
REMARK                            x       y       z     vdW  Elec       q    Type
REMARK                         _______ _______ _______ _____ _____    ______ ____
ROOT
ATOM      1  C   UNL     1       4.792   4.278  18.440  0.00  0.00    +0.000 A 
ATOM      2  C   UNL     1       3.529   4.769  18.142  0.00  0.00    +0.000 A 
ATOM      3  C   UNL     1       2.621   4.671  19.190  0.00  0.00    +0.000 A 
ATOM      4  C   UNL     1       2.843   3.814  20.266  0.00  0.00    +0.000 A 
ATOM      5  C   UNL     1       4.062   3.139  20.348  0.00  0.00    +0.000 A 
ATOM      6  N   UNL     1       5.057   3.451  19.478  0.00  0.00    +0.000 NA
ATOM      7  C   UNL     1       1.672   3.889  21.034  0.00  0.00    +0.000 A 
ATOM      8  N   UNL     1       0.861   4.877  20.625  0.00  0.00    +0.000 NA
ATOM      9  N   UNL     1       1.547   5.468  19.600  0.00  0.00    +0.000 N 
ATOM     10  C   UNL     1       1.397   6.874  19.312  0.00  0.00    +0.000 A 
ATOM     11  C   UNL     1       1.678   7.368  18.053  0.00  0.00    +0.000 A 
ATOM     12  C   UNL     1       1.652   8.740  17.868  0.00  0.00    +0.000 A 
ATOM     13  C   UNL     1       1.374   9.574  18.952  0.00  0.00    +0.000 A 
ATOM     14  C   UNL     1       1.129   9.040  20.215  0.00  0.00    +0.000 A 
ATOM     15  N   UNL     1       1.116   7.695  20.369  0.00  0.00    +0.000 NA
ENDROOT
BRANCH  14  16
ATOM     16  N   UNL     1       0.936   9.831  21.329  0.00  0.00    +0.000 N 
ATOM     17  C   UNL     1       1.098  11.281  21.227  0.00  0.00    +0.000 C 
ATOM     18  C   UNL     1      -0.243  11.981  21.028  0.00  0.00    +0.000 C 
ATOM     19  C   UNL     1      -1.365  11.627  22.009  0.00  0.00    +0.000 C 
ATOM     20  N   UNL     1      -0.960  11.123  23.326  0.00  0.00    +0.000 NA
ATOM     21  C   UNL     1      -0.646   9.677  23.259  0.00  0.00    +0.000 C 
ATOM     22  C   UNL     1       0.741   9.319  22.687  0.00  0.00    +0.000 C 
ATOM     23  H   UNL     1      -1.754  11.234  23.958  0.00  0.00    +0.000 HD
ENDBRANCH  14  16
BRANCH   1  26
ATOM     24  N   UNL     1       7.358   6.275  16.897  0.00  0.00    +0.000 N 
ATOM     25  C   UNL     1       6.286   6.158  17.731  0.00  0.00    +0.000 A 
ATOM     26  C   UNL     1       5.927   4.827  17.719  0.00  0.00    +0.000 A 
ATOM     27  C   UNL     1       6.787   4.260  16.744  0.00  0.00    +0.000 A 
ATOM     28  N   UNL     1       7.667   5.138  16.251  0.00  0.00    +0.000 NA
BRANCH  24  29
ATOM     29  C   UNL     1       8.173   7.455  16.713  0.00  0.00    +0.000 C 
BRANCH  29  31
ATOM     30  F   UNL     1       8.730   8.151  18.868  0.00  0.00    +0.000 F 
ATOM     31  C   UNL     1       7.953   8.482  17.799  0.00  0.00    +0.000 C 
ENDBRANCH  29  31
ENDBRANCH  24  29
ENDBRANCH   1  26
TORSDOF 4
ENDMDL
