MODEL 1
REMARK VINA RESULT:      -8.2      0.000      0.000
REMARK  Name = 
REMARK  8 active torsions:
REMARK  status: ('A' for Active; 'I' for Inactive)
REMARK    1  A    between atoms: C_2  and  C_3
REMARK    2  A    between atoms: C_3  and  N_4
REMARK    3  A    between atoms: C_5  and  N_6
REMARK    4  A    between atoms: C_11  and  S_12
REMARK    5  A    between atoms: S_12  and  C_13
REMARK    6  A    between atoms: C_13  and  C_14
REMARK    7  A    between atoms: C_13  and  C_15
REMARK    8  A    between atoms: N_17  and  C_18
REMARK                            x       y       z     vdW  Elec       q    Type
REMARK                         _______ _______ _______ _____ _____    ______ ____
ROOT
ATOM      1  C   UNL     1       3.259   3.499  19.071  0.00  0.00    +0.000 C 
ATOM      2  C   UNL     1       4.041   3.087  20.354  0.00  0.00    +0.000 C 
ENDROOT
BRANCH   1   3
ATOM      3  C   UNL     1       2.524   4.844  19.381  0.00  0.00    +0.000 C 
ATOM      4  O   UNL     1       1.280   4.803  19.392  0.00  0.00    +0.000 OA
ATOM      5  N   UNL     1       3.191   6.071  19.541  0.00  0.00    +0.000 N 
ATOM      6  H   UNL     1       4.073   6.085  20.029  0.00  0.00    +0.000 HD
BRANCH   5   7
ATOM      7  C   UNL     1       2.486   7.315  19.273  0.00  0.00    +0.000 A 
ATOM      8  C   UNL     1       2.711   7.827  17.990  0.00  0.00    +0.000 A 
ATOM      9  C   UNL     1       2.285   9.098  17.669  0.00  0.00    +0.000 A 
ATOM     10  C   UNL     1       1.153   9.580  18.275  0.00  0.00    +0.000 A 
ATOM     11  C   UNL     1       0.883   9.161  19.569  0.00  0.00    +0.000 A 
ATOM     12  C   UNL     1      -0.087   9.926  20.223  0.00  0.00    +0.000 A 
ATOM     13  C   UNL     1      -0.207   9.845  21.588  0.00  0.00    +0.000 A 
ATOM     14  C   UNL     1       0.645   8.995  22.283  0.00  0.00    +0.000 A 
ATOM     15  C   UNL     1       1.540   8.129  21.604  0.00  0.00    +0.000 A 
ATOM     16  C   UNL     1       1.687   8.141  20.183  0.00  0.00    +0.000 A 
ENDBRANCH   5   7
ENDBRANCH   1   3
BRANCH   1  17
ATOM     17  S   UNL     1       4.457   3.491  17.698  0.00  0.00    +0.000 S 
BRANCH  17  24
ATOM     18  N   UNL     1       6.007   5.750  17.251  0.00  0.00    +0.000 N 
ATOM     19  C   UNL     1       7.171   6.485  17.514  0.00  0.00    +0.000 A 
ATOM     20  C   UNL     1       7.822   6.257  18.670  0.00  0.00    +0.000 A 
ATOM     21  C   UNL     1       7.272   5.290  19.660  0.00  0.00    +0.000 A 
ATOM     22  O   UNL     1       7.818   5.251  20.795  0.00  0.00    +0.000 OA
ATOM     23  N   UNL     1       6.242   4.496  19.270  0.00  0.00    +0.000 NA
ATOM     24  C   UNL     1       5.675   4.713  18.137  0.00  0.00    +0.000 A 
BRANCH  19  25
ATOM     25  N   UNL     1       7.698   7.414  16.627  0.00  0.00    +0.000 N 
ATOM     26  H   UNL     1       7.649   8.375  16.963  0.00  0.00    +0.000 HD
ATOM     27  H   UNL     1       7.335   7.342  15.675  0.00  0.00    +0.000 HD
ENDBRANCH  19  25
BRANCH  18  28
ATOM     28  C   UNL     1       5.173   6.113  16.091  0.00  0.00    +0.000 C 
BRANCH  28  30
ATOM     29  C   UNL     1       6.631   4.827  14.500  0.00  0.00    +0.000 C 
ATOM     30  C   UNL     1       5.424   5.122  14.991  0.00  0.00    +0.000 C 
ENDBRANCH  28  30
ENDBRANCH  18  28
ENDBRANCH  17  24
ENDBRANCH   1  17
TORSDOF 7
ENDMDL
MODEL 2
REMARK VINA RESULT:      -8.1      4.136      8.093
REMARK  Name = 
REMARK  8 active torsions:
REMARK  status: ('A' for Active; 'I' for Inactive)
REMARK    1  A    between atoms: C_2  and  C_3
REMARK    2  A    between atoms: C_3  and  N_4
REMARK    3  A    between atoms: C_5  and  N_6
REMARK    4  A    between atoms: C_11  and  S_12
REMARK    5  A    between atoms: S_12  and  C_13
REMARK    6  A    between atoms: C_13  and  C_14
REMARK    7  A    between atoms: C_13  and  C_15
REMARK    8  A    between atoms: N_17  and  C_18
REMARK                            x       y       z     vdW  Elec       q    Type
REMARK                         _______ _______ _______ _____ _____    ______ ____
ROOT
ATOM      1  C   UNL     1       1.188   9.177  21.013  0.00  0.00    +0.000 C 
ATOM      2  C   UNL     1       1.713   9.115  22.478  0.00  0.00    +0.000 C 
ENDROOT
BRANCH   1   3
ATOM      3  C   UNL     1       1.765   7.937  20.254  0.00  0.00    +0.000 C 
ATOM      4  O   UNL     1       1.908   8.060  19.024  0.00  0.00    +0.000 OA
ATOM      5  N   UNL     1       2.023   6.702  20.874  0.00  0.00    +0.000 N 
ATOM      6  H   UNL     1       2.407   6.696  21.806  0.00  0.00    +0.000 HD
BRANCH   5   7
ATOM      7  C   UNL     1       2.013   5.482  20.083  0.00  0.00    +0.000 A 
ATOM      8  C   UNL     1       1.022   4.570  20.461  0.00  0.00    +0.000 A 
ATOM      9  C   UNL     1       1.027   3.291  19.947  0.00  0.00    +0.000 A 
ATOM     10  C   UNL     1       1.513   3.098  18.679  0.00  0.00    +0.000 A 
ATOM     11  C   UNL     1       2.533   3.928  18.243  0.00  0.00    +0.000 A 
ATOM     12  C   UNL     1       3.182   3.476  17.091  0.00  0.00    +0.000 A 
ATOM     13  C   UNL     1       4.403   4.001  16.750  0.00  0.00    +0.000 A 
ATOM     14  C   UNL     1       4.961   4.978  17.566  0.00  0.00    +0.000 A 
ATOM     15  C   UNL     1       4.243   5.524  18.661  0.00  0.00    +0.000 A 
ATOM     16  C   UNL     1       2.953   5.044  19.047  0.00  0.00    +0.000 A 
ENDBRANCH   5   7
ENDBRANCH   1   3
BRANCH   1  17
ATOM     17  S   UNL     1      -0.625   9.338  21.108  0.00  0.00    +0.000 S 
BRANCH  17  24
ATOM     18  N   UNL     1      -0.990  11.260  19.138  0.00  0.00    +0.000 N 
ATOM     19  C   UNL     1      -0.963  12.606  18.748  0.00  0.00    +0.000 A 
ATOM     20  C   UNL     1      -1.074  13.549  19.701  0.00  0.00    +0.000 A 
ATOM     21  C   UNL     1      -1.281  13.156  21.123  0.00  0.00    +0.000 A 
ATOM     22  O   UNL     1      -1.560  14.073  21.941  0.00  0.00    +0.000 OA
ATOM     23  N   UNL     1      -1.128  11.848  21.449  0.00  0.00    +0.000 NA
ATOM     24  C   UNL     1      -0.977  10.979  20.515  0.00  0.00    +0.000 A 
BRANCH  19  25
ATOM     25  N   UNL     1      -0.800  13.009  17.429  0.00  0.00    +0.000 N 
ATOM     26  H   UNL     1      -1.039  12.291  16.747  0.00  0.00    +0.000 HD
ATOM     27  H   UNL     1       0.113  13.417  17.223  0.00  0.00    +0.000 HD
ENDBRANCH  19  25
BRANCH  18  28
ATOM     28  C   UNL     1      -1.065  10.212  18.105  0.00  0.00    +0.000 C 
BRANCH  28  30
ATOM     29  C   UNL     1      -3.097  10.124  16.630  0.00  0.00    +0.000 C 
ATOM     30  C   UNL     1      -2.511   9.927  17.815  0.00  0.00    +0.000 C 
ENDBRANCH  28  30
ENDBRANCH  18  28
ENDBRANCH  17  24
ENDBRANCH   1  17
TORSDOF 7
ENDMDL
MODEL 3
REMARK VINA RESULT:      -7.9      4.235      8.347
REMARK  Name = 
REMARK  8 active torsions:
REMARK  status: ('A' for Active; 'I' for Inactive)
REMARK    1  A    between atoms: C_2  and  C_3
REMARK    2  A    between atoms: C_3  and  N_4
REMARK    3  A    between atoms: C_5  and  N_6
REMARK    4  A    between atoms: C_11  and  S_12
REMARK    5  A    between atoms: S_12  and  C_13
REMARK    6  A    between atoms: C_13  and  C_14
REMARK    7  A    between atoms: C_13  and  C_15
REMARK    8  A    between atoms: N_17  and  C_18
REMARK                            x       y       z     vdW  Elec       q    Type
REMARK                         _______ _______ _______ _____ _____    ______ ____
ROOT
ATOM      1  C   UNL     1       1.102   9.350  20.488  0.00  0.00    +0.000 C 
ATOM      2  C   UNL     1       0.571   8.983  21.906  0.00  0.00    +0.000 C 
ENDROOT
BRANCH   1   3
ATOM      3  C   UNL     1       1.744   8.061  19.878  0.00  0.00    +0.000 C 
ATOM      4  O   UNL     1       1.916   8.060  18.645  0.00  0.00    +0.000 OA
ATOM      5  N   UNL     1       2.028   6.908  20.631  0.00  0.00    +0.000 N 
ATOM      6  H   UNL     1       2.387   7.014  21.567  0.00  0.00    +0.000 HD
BRANCH   5   7
ATOM      7  C   UNL     1       2.084   5.612  19.973  0.00  0.00    +0.000 A 
ATOM      8  C   UNL     1       1.159   4.686  20.466  0.00  0.00    +0.000 A 
ATOM      9  C   UNL     1       1.238   3.363  20.090  0.00  0.00    +0.000 A 
ATOM     10  C   UNL     1       1.714   3.067  18.838  0.00  0.00    +0.000 A 
ATOM     11  C   UNL     1       2.673   3.907  18.295  0.00  0.00    +0.000 A 
ATOM     12  C   UNL     1       3.332   3.376  17.183  0.00  0.00    +0.000 A 
ATOM     13  C   UNL     1       4.511   3.936  16.761  0.00  0.00    +0.000 A 
ATOM     14  C   UNL     1       5.018   5.027  17.457  0.00  0.00    +0.000 A 
ATOM     15  C   UNL     1       4.284   5.640  18.505  0.00  0.00    +0.000 A 
ATOM     16  C   UNL     1       3.033   5.126  18.968  0.00  0.00    +0.000 A 
ENDBRANCH   5   7
ENDBRANCH   1   3
BRANCH   1  17
ATOM     17  S   UNL     1      -0.287  10.109  19.584  0.00  0.00    +0.000 S 
BRANCH  17  24
ATOM     18  N   UNL     1      -0.730  12.829  19.917  0.00  0.00    +0.000 N 
ATOM     19  C   UNL     1      -0.494  14.148  19.506  0.00  0.00    +0.000 A 
ATOM     20  C   UNL     1       0.626  14.407  18.807  0.00  0.00    +0.000 A 
ATOM     21  C   UNL     1       1.610  13.321  18.538  0.00  0.00    +0.000 A 
ATOM     22  O   UNL     1       2.719  13.655  18.043  0.00  0.00    +0.000 OA
ATOM     23  N   UNL     1       1.239  12.045  18.815  0.00  0.00    +0.000 NA
ATOM     24  C   UNL     1       0.138  11.832  19.443  0.00  0.00    +0.000 A 
BRANCH  19  25
ATOM     25  N   UNL     1      -1.374  15.191  19.762  0.00  0.00    +0.000 N 
ATOM     26  H   UNL     1      -2.058  15.342  19.022  0.00  0.00    +0.000 HD
ATOM     27  H   UNL     1      -0.922  16.069  20.024  0.00  0.00    +0.000 HD
ENDBRANCH  19  25
BRANCH  18  28
ATOM     28  C   UNL     1      -1.843  12.552  20.842  0.00  0.00    +0.000 C 
BRANCH  28  30
ATOM     29  C   UNL     1      -1.872  11.664  23.192  0.00  0.00    +0.000 C 
ATOM     30  C   UNL     1      -1.283  12.371  22.224  0.00  0.00    +0.000 C 
ENDBRANCH  28  30
ENDBRANCH  18  28
ENDBRANCH  17  24
ENDBRANCH   1  17
TORSDOF 7
ENDMDL
MODEL 4
REMARK VINA RESULT:      -7.9      1.757      2.626
REMARK  Name = 
REMARK  8 active torsions:
REMARK  status: ('A' for Active; 'I' for Inactive)
REMARK    1  A    between atoms: C_2  and  C_3
REMARK    2  A    between atoms: C_3  and  N_4
REMARK    3  A    between atoms: C_5  and  N_6
REMARK    4  A    between atoms: C_11  and  S_12
REMARK    5  A    between atoms: S_12  and  C_13
REMARK    6  A    between atoms: C_13  and  C_14
REMARK    7  A    between atoms: C_13  and  C_15
REMARK    8  A    between atoms: N_17  and  C_18
REMARK                            x       y       z     vdW  Elec       q    Type
REMARK                         _______ _______ _______ _____ _____    ______ ____
ROOT
ATOM      1  C   UNL     1       2.576   3.124  18.392  0.00  0.00    +0.000 C 
ATOM      2  C   UNL     1       1.874   2.229  19.457  0.00  0.00    +0.000 C 
ENDROOT
BRANCH   1   3
ATOM      3  C   UNL     1       1.934   4.547  18.477  0.00  0.00    +0.000 C 
ATOM      4  O   UNL     1       1.130   4.845  17.574  0.00  0.00    +0.000 OA
ATOM      5  N   UNL     1       2.294   5.503  19.444  0.00  0.00    +0.000 N 
ATOM      6  H   UNL     1       2.482   5.195  20.385  0.00  0.00    +0.000 HD
BRANCH   5   7
ATOM      7  C   UNL     1       2.111   6.918  19.162  0.00  0.00    +0.000 A 
ATOM      8  C   UNL     1       2.653   7.326  17.939  0.00  0.00    +0.000 A 
ATOM      9  C   UNL     1       2.743   8.668  17.636  0.00  0.00    +0.000 A 
ATOM     10  C   UNL     1       1.791   9.517  18.140  0.00  0.00    +0.000 A 
ATOM     11  C   UNL     1       1.239   9.212  19.374  0.00  0.00    +0.000 A 
ATOM     12  C   UNL     1       0.530  10.266  19.956  0.00  0.00    +0.000 A 
ATOM     13  C   UNL     1       0.228  10.223  21.294  0.00  0.00    +0.000 A 
ATOM     14  C   UNL     1       0.637   9.120  22.035  0.00  0.00    +0.000 A 
ATOM     15  C   UNL     1       1.243   7.997  21.415  0.00  0.00    +0.000 A 
ATOM     16  C   UNL     1       1.552   7.967  20.020  0.00  0.00    +0.000 A 
ENDBRANCH   5   7
ENDBRANCH   1   3
BRANCH   1  17
ATOM     17  S   UNL     1       4.369   2.990  18.690  0.00  0.00    +0.000 S 
BRANCH  17  24
ATOM     18  N   UNL     1       5.572   5.305  17.738  0.00  0.00    +0.000 N 
ATOM     19  C   UNL     1       5.865   6.157  16.665  0.00  0.00    +0.000 A 
ATOM     20  C   UNL     1       5.845   5.645  15.420  0.00  0.00    +0.000 A 
ATOM     21  C   UNL     1       5.576   4.195  15.211  0.00  0.00    +0.000 A 
ATOM     22  O   UNL     1       5.748   3.736  14.051  0.00  0.00    +0.000 OA
ATOM     23  N   UNL     1       5.136   3.470  16.271  0.00  0.00    +0.000 NA
ATOM     24  C   UNL     1       5.124   4.007  17.439  0.00  0.00    +0.000 A 
BRANCH  19  25
ATOM     25  N   UNL     1       6.148   7.507  16.823  0.00  0.00    +0.000 N 
ATOM     26  H   UNL     1       5.319   8.097  16.866  0.00  0.00    +0.000 HD
ATOM     27  H   UNL     1       6.824   7.877  16.154  0.00  0.00    +0.000 HD
ENDBRANCH  19  25
BRANCH  18  28
ATOM     28  C   UNL     1       5.774   5.787  19.116  0.00  0.00    +0.000 C 
BRANCH  28  30
ATOM     29  C   UNL     1       8.266   6.082  19.228  0.00  0.00    +0.000 C 
ATOM     30  C   UNL     1       7.159   5.410  19.557  0.00  0.00    +0.000 C 
ENDBRANCH  28  30
ENDBRANCH  18  28
ENDBRANCH  17  24
ENDBRANCH   1  17
TORSDOF 7
ENDMDL
MODEL 5
REMARK VINA RESULT:      -7.8      3.817      8.445
REMARK  Name = 
REMARK  8 active torsions:
REMARK  status: ('A' for Active; 'I' for Inactive)
REMARK    1  A    between atoms: C_2  and  C_3
REMARK    2  A    between atoms: C_3  and  N_4
REMARK    3  A    between atoms: C_5  and  N_6
REMARK    4  A    between atoms: C_11  and  S_12
REMARK    5  A    between atoms: S_12  and  C_13
REMARK    6  A    between atoms: C_13  and  C_14
REMARK    7  A    between atoms: C_13  and  C_15
REMARK    8  A    between atoms: N_17  and  C_18
REMARK                            x       y       z     vdW  Elec       q    Type
REMARK                         _______ _______ _______ _____ _____    ______ ____
ROOT
ATOM      1  C   UNL     1       1.018   9.129  21.282  0.00  0.00    +0.000 C 
ATOM      2  C   UNL     1      -0.509   8.846  21.403  0.00  0.00    +0.000 C 
ENDROOT
BRANCH   1   3
ATOM      3  C   UNL     1       1.650   7.955  20.464  0.00  0.00    +0.000 C 
ATOM      4  O   UNL     1       1.813   8.156  19.246  0.00  0.00    +0.000 OA
ATOM      5  N   UNL     1       1.936   6.694  21.015  0.00  0.00    +0.000 N 
ATOM      6  H   UNL     1       2.303   6.645  21.954  0.00  0.00    +0.000 HD
BRANCH   5   7
ATOM      7  C   UNL     1       1.982   5.523  20.154  0.00  0.00    +0.000 A 
ATOM      8  C   UNL     1       0.972   4.591  20.411  0.00  0.00    +0.000 A 
ATOM      9  C   UNL     1       1.014   3.345  19.823  0.00  0.00    +0.000 A 
ATOM     10  C   UNL     1       1.582   3.229  18.580  0.00  0.00    +0.000 A 
ATOM     11  C   UNL     1       2.626   4.082  18.262  0.00  0.00    +0.000 A 
ATOM     12  C   UNL     1       3.350   3.699  17.130  0.00  0.00    +0.000 A 
ATOM     13  C   UNL     1       4.589   4.243  16.901  0.00  0.00    +0.000 A 
ATOM     14  C   UNL     1       5.090   5.170  17.809  0.00  0.00    +0.000 A 
ATOM     15  C   UNL     1       4.300   5.649  18.885  0.00  0.00    +0.000 A 
ATOM     16  C   UNL     1       2.989   5.148  19.157  0.00  0.00    +0.000 A 
ENDBRANCH   5   7
ENDBRANCH   1   3
BRANCH   1  17
ATOM     17  S   UNL     1       1.192  10.814  20.609  0.00  0.00    +0.000 S 
BRANCH  17  24
ATOM     18  N   UNL     1      -1.228  12.032  20.001  0.00  0.00    +0.000 N 
ATOM     19  C   UNL     1      -2.482  11.977  19.380  0.00  0.00    +0.000 A 
ATOM     20  C   UNL     1      -2.652  11.112  18.362  0.00  0.00    +0.000 A 
ATOM     21  C   UNL     1      -1.509  10.286  17.883  0.00  0.00    +0.000 A 
ATOM     22  O   UNL     1      -1.675   9.632  16.819  0.00  0.00    +0.000 OA
ATOM     23  N   UNL     1      -0.380  10.267  18.634  0.00  0.00    +0.000 NA
ATOM     24  C   UNL     1      -0.271  11.074  19.628  0.00  0.00    +0.000 A 
BRANCH  19  25
ATOM     25  N   UNL     1      -3.563  12.751  19.780  0.00  0.00    +0.000 N 
ATOM     26  H   UNL     1      -3.622  13.650  19.305  0.00  0.00    +0.000 HD
ATOM     27  H   UNL     1      -3.646  12.867  20.791  0.00  0.00    +0.000 HD
ENDBRANCH  19  25
BRANCH  18  28
ATOM     28  C   UNL     1      -0.957  13.098  20.983  0.00  0.00    +0.000 C 
BRANCH  28  30
ATOM     29  C   UNL     1      -1.423  11.816  23.093  0.00  0.00    +0.000 C 
ATOM     30  C   UNL     1      -1.724  12.799  22.239  0.00  0.00    +0.000 C 
ENDBRANCH  28  30
ENDBRANCH  18  28
ENDBRANCH  17  24
ENDBRANCH   1  17
TORSDOF 7
ENDMDL
MODEL 6
REMARK VINA RESULT:      -7.8      4.047      8.496
REMARK  Name = 
REMARK  8 active torsions:
REMARK  status: ('A' for Active; 'I' for Inactive)
REMARK    1  A    between atoms: C_2  and  C_3
REMARK    2  A    between atoms: C_3  and  N_4
REMARK    3  A    between atoms: C_5  and  N_6
REMARK    4  A    between atoms: C_11  and  S_12
REMARK    5  A    between atoms: S_12  and  C_13
REMARK    6  A    between atoms: C_13  and  C_14
REMARK    7  A    between atoms: C_13  and  C_15
REMARK    8  A    between atoms: N_17  and  C_18
REMARK                            x       y       z     vdW  Elec       q    Type
REMARK                         _______ _______ _______ _____ _____    ______ ____
ROOT
ATOM      1  C   UNL     1       1.103   9.373  20.951  0.00  0.00    +0.000 C 
ATOM      2  C   UNL     1      -0.409   9.098  21.204  0.00  0.00    +0.000 C 
ENDROOT
BRANCH   1   3
ATOM      3  C   UNL     1       1.690   8.128  20.209  0.00  0.00    +0.000 C 
ATOM      4  O   UNL     1       1.792   8.220  18.972  0.00  0.00    +0.000 OA
ATOM      5  N   UNL     1       2.000   6.918  20.854  0.00  0.00    +0.000 N 
ATOM      6  H   UNL     1       2.413   6.949  21.774  0.00  0.00    +0.000 HD
BRANCH   5   7
ATOM      7  C   UNL     1       2.000   5.676  20.097  0.00  0.00    +0.000 A 
ATOM      8  C   UNL     1       1.019   4.765  20.504  0.00  0.00    +0.000 A 
ATOM      9  C   UNL     1       1.035   3.473  20.026  0.00  0.00    +0.000 A 
ATOM     10  C   UNL     1       1.518   3.250  18.762  0.00  0.00    +0.000 A 
ATOM     11  C   UNL     1       2.529   4.077  18.300  0.00  0.00    +0.000 A 
ATOM     12  C   UNL     1       3.178   3.599  17.158  0.00  0.00    +0.000 A 
ATOM     13  C   UNL     1       4.393   4.126  16.798  0.00  0.00    +0.000 A 
ATOM     14  C   UNL     1       4.943   5.132  17.584  0.00  0.00    +0.000 A 
ATOM     15  C   UNL     1       4.224   5.700  18.666  0.00  0.00    +0.000 A 
ATOM     16  C   UNL     1       2.940   5.219  19.070  0.00  0.00    +0.000 A 
ENDBRANCH   5   7
ENDBRANCH   1   3
BRANCH   1  17
ATOM     17  S   UNL     1       1.212  10.986  20.109  0.00  0.00    +0.000 S 
BRANCH  17  24
ATOM     18  N   UNL     1      -1.297  12.111  19.724  0.00  0.00    +0.000 N 
ATOM     19  C   UNL     1      -2.604  12.002  19.230  0.00  0.00    +0.000 A 
ATOM     20  C   UNL     1      -2.843  11.113  18.249  0.00  0.00    +0.000 A 
ATOM     21  C   UNL     1      -1.724  10.316  17.671  0.00  0.00    +0.000 A 
ATOM     22  O   UNL     1      -1.971   9.638  16.639  0.00  0.00    +0.000 OA
ATOM     23  N   UNL     1      -0.526  10.349  18.307  0.00  0.00    +0.000 NA
ATOM     24  C   UNL     1      -0.348  11.178  19.273  0.00  0.00    +0.000 A 
BRANCH  19  25
ATOM     25  N   UNL     1      -3.666  12.747  19.724  0.00  0.00    +0.000 N 
ATOM     26  H   UNL     1      -3.395  13.430  20.430  0.00  0.00    +0.000 HD
ATOM     27  H   UNL     1      -4.460  12.190  20.042  0.00  0.00    +0.000 HD
ENDBRANCH  19  25
BRANCH  18  28
ATOM     28  C   UNL     1      -0.968  13.203  20.657  0.00  0.00    +0.000 C 
BRANCH  28  30
ATOM     29  C   UNL     1      -0.982  15.596  19.891  0.00  0.00    +0.000 C 
ATOM     30  C   UNL     1      -0.452  14.370  19.865  0.00  0.00    +0.000 C 
ENDBRANCH  28  30
ENDBRANCH  18  28
ENDBRANCH  17  24
ENDBRANCH   1  17
TORSDOF 7
ENDMDL
MODEL 7
REMARK VINA RESULT:      -7.7      2.674      4.635
REMARK  Name = 
REMARK  8 active torsions:
REMARK  status: ('A' for Active; 'I' for Inactive)
REMARK    1  A    between atoms: C_2  and  C_3
REMARK    2  A    between atoms: C_3  and  N_4
REMARK    3  A    between atoms: C_5  and  N_6
REMARK    4  A    between atoms: C_11  and  S_12
REMARK    5  A    between atoms: S_12  and  C_13
REMARK    6  A    between atoms: C_13  and  C_14
REMARK    7  A    between atoms: C_13  and  C_15
REMARK    8  A    between atoms: N_17  and  C_18
REMARK                            x       y       z     vdW  Elec       q    Type
REMARK                         _______ _______ _______ _____ _____    ______ ____
ROOT
ATOM      1  C   UNL     1       2.574   7.060  19.118  0.00  0.00    +0.000 C 
ATOM      2  C   UNL     1       2.596   8.038  17.906  0.00  0.00    +0.000 C 
ENDROOT
BRANCH   1   3
ATOM      3  C   UNL     1       1.797   7.764  20.277  0.00  0.00    +0.000 C 
ATOM      4  O   UNL     1       1.063   7.038  20.973  0.00  0.00    +0.000 OA
ATOM      5  N   UNL     1       1.819   9.154  20.491  0.00  0.00    +0.000 N 
ATOM      6  H   UNL     1       2.684   9.654  20.354  0.00  0.00    +0.000 HD
BRANCH   5   7
ATOM      7  C   UNL     1       0.707   9.797  21.172  0.00  0.00    +0.000 A 
ATOM      8  C   UNL     1       0.620   9.485  22.533  0.00  0.00    +0.000 A 
ATOM      9  C   UNL     1      -0.496   9.846  23.256  0.00  0.00    +0.000 A 
ATOM     10  C   UNL     1      -1.163  10.991  22.899  0.00  0.00    +0.000 A 
ATOM     11  C   UNL     1      -1.169  11.346  21.560  0.00  0.00    +0.000 A 
ATOM     12  C   UNL     1      -2.115  12.322  21.234  0.00  0.00    +0.000 A 
ATOM     13  C   UNL     1      -2.462  12.519  19.921  0.00  0.00    +0.000 A 
ATOM     14  C   UNL     1      -1.854  11.737  18.946  0.00  0.00    +0.000 A 
ATOM     15  C   UNL     1      -0.805  10.839  19.268  0.00  0.00    +0.000 A 
ATOM     16  C   UNL     1      -0.374  10.614  20.612  0.00  0.00    +0.000 A 
ENDBRANCH   5   7
ENDBRANCH   1   3
BRANCH   1  17
ATOM     17  S   UNL     1       1.916   5.474  18.505  0.00  0.00    +0.000 S 
BRANCH  17  24
ATOM     18  N   UNL     1       3.775   3.666  19.496  0.00  0.00    +0.000 N 
ATOM     19  C   UNL     1       4.055   2.507  20.232  0.00  0.00    +0.000 A 
ATOM     20  C   UNL     1       3.160   2.105  21.153  0.00  0.00    +0.000 A 
ATOM     21  C   UNL     1       1.937   2.915  21.413  0.00  0.00    +0.000 A 
ATOM     22  O   UNL     1       1.230   2.593  22.405  0.00  0.00    +0.000 OA
ATOM     23  N   UNL     1       1.648   3.924  20.553  0.00  0.00    +0.000 NA
ATOM     24  C   UNL     1       2.507   4.251  19.654  0.00  0.00    +0.000 A 
BRANCH  19  25
ATOM     25  N   UNL     1       5.197   1.742  20.037  0.00  0.00    +0.000 N 
ATOM     26  H   UNL     1       5.099   1.037  19.308  0.00  0.00    +0.000 HD
ATOM     27  H   UNL     1       5.581   1.333  20.891  0.00  0.00    +0.000 HD
ENDBRANCH  19  25
BRANCH  18  28
ATOM     28  C   UNL     1       4.818   4.235  18.623  0.00  0.00    +0.000 C 
BRANCH  28  30
ATOM     29  C   UNL     1       4.887   4.380  16.116  0.00  0.00    +0.000 C 
ATOM     30  C   UNL     1       4.626   3.697  17.234  0.00  0.00    +0.000 C 
ENDBRANCH  28  30
ENDBRANCH  18  28
ENDBRANCH  17  24
ENDBRANCH   1  17
TORSDOF 7
ENDMDL
MODEL 8
REMARK VINA RESULT:      -7.7      3.990      8.233
REMARK  Name = 
REMARK  8 active torsions:
REMARK  status: ('A' for Active; 'I' for Inactive)
REMARK    1  A    between atoms: C_2  and  C_3
REMARK    2  A    between atoms: C_3  and  N_4
REMARK    3  A    between atoms: C_5  and  N_6
REMARK    4  A    between atoms: C_11  and  S_12
REMARK    5  A    between atoms: S_12  and  C_13
REMARK    6  A    between atoms: C_13  and  C_14
REMARK    7  A    between atoms: C_13  and  C_15
REMARK    8  A    between atoms: N_17  and  C_18
REMARK                            x       y       z     vdW  Elec       q    Type
REMARK                         _______ _______ _______ _____ _____    ______ ____
ROOT
ATOM      1  C   UNL     1       0.923   8.518  21.743  0.00  0.00    +0.000 C 
ATOM      2  C   UNL     1      -0.613   8.342  21.552  0.00  0.00    +0.000 C 
ENDROOT
BRANCH   1   3
ATOM      3  C   UNL     1       1.635   7.545  20.747  0.00  0.00    +0.000 C 
ATOM      4  O   UNL     1       1.751   7.943  19.573  0.00  0.00    +0.000 OA
ATOM      5  N   UNL     1       2.044   6.245  21.094  0.00  0.00    +0.000 N 
ATOM      6  H   UNL     1       2.435   6.086  22.009  0.00  0.00    +0.000 HD
BRANCH   5   7
ATOM      7  C   UNL     1       2.171   5.229  20.061  0.00  0.00    +0.000 A 
ATOM      8  C   UNL     1       1.079   4.358  19.987  0.00  0.00    +0.000 A 
ATOM      9  C   UNL     1       1.151   3.224  19.206  0.00  0.00    +0.000 A 
ATOM     10  C   UNL     1       1.917   3.261  18.069  0.00  0.00    +0.000 A 
ATOM     11  C   UNL     1       3.048   4.062  18.077  0.00  0.00    +0.000 A 
ATOM     12  C   UNL     1       3.934   3.806  17.027  0.00  0.00    +0.000 A 
ATOM     13  C   UNL     1       5.223   4.271  17.098  0.00  0.00    +0.000 A 
ATOM     14  C   UNL     1       5.611   4.993  18.221  0.00  0.00    +0.000 A 
ATOM     15  C   UNL     1       4.676   5.358  19.223  0.00  0.00    +0.000 A 
ATOM     16  C   UNL     1       3.311   4.934  19.189  0.00  0.00    +0.000 A 
ENDBRANCH   5   7
ENDBRANCH   1   3
BRANCH   1  17
ATOM     17  S   UNL     1       1.276  10.298  21.579  0.00  0.00    +0.000 S 
BRANCH  17  24
ATOM     18  N   UNL     1      -0.795  11.681  20.349  0.00  0.00    +0.000 N 
ATOM     19  C   UNL     1      -1.897  12.540  20.450  0.00  0.00    +0.000 A 
ATOM     20  C   UNL     1      -2.528  12.631  21.635  0.00  0.00    +0.000 A 
ATOM     21  C   UNL     1      -2.092  11.788  22.783  0.00  0.00    +0.000 A 
ATOM     22  O   UNL     1      -2.827  11.779  23.806  0.00  0.00    +0.000 OA
ATOM     23  N   UNL     1      -0.922  11.111  22.665  0.00  0.00    +0.000 NA
ATOM     24  C   UNL     1      -0.321  11.084  21.529  0.00  0.00    +0.000 A 
BRANCH  19  25
ATOM     25  N   UNL     1      -2.350  13.319  19.394  0.00  0.00    +0.000 N 
ATOM     26  H   UNL     1      -1.623  13.564  18.723  0.00  0.00    +0.000 HD
ATOM     27  H   UNL     1      -2.878  14.147  19.677  0.00  0.00    +0.000 HD
ENDBRANCH  19  25
BRANCH  18  28
ATOM     28  C   UNL     1      -0.207  11.416  19.024  0.00  0.00    +0.000 C 
BRANCH  28  30
ATOM     29  C   UNL     1      -1.938  10.133  17.731  0.00  0.00    +0.000 C 
ATOM     30  C   UNL     1      -0.824  10.164  18.468  0.00  0.00    +0.000 C 
ENDBRANCH  28  30
ENDBRANCH  18  28
ENDBRANCH  17  24
ENDBRANCH   1  17
TORSDOF 7
ENDMDL
MODEL 9
REMARK VINA RESULT:      -7.7      4.114      8.101
REMARK  Name = 
REMARK  8 active torsions:
REMARK  status: ('A' for Active; 'I' for Inactive)
REMARK    1  A    between atoms: C_2  and  C_3
REMARK    2  A    between atoms: C_3  and  N_4
REMARK    3  A    between atoms: C_5  and  N_6
REMARK    4  A    between atoms: C_11  and  S_12
REMARK    5  A    between atoms: S_12  and  C_13
REMARK    6  A    between atoms: C_13  and  C_14
REMARK    7  A    between atoms: C_13  and  C_15
REMARK    8  A    between atoms: N_17  and  C_18
REMARK                            x       y       z     vdW  Elec       q    Type
REMARK                         _______ _______ _______ _____ _____    ______ ____
ROOT
ATOM      1  C   UNL     1       1.412   9.159  20.357  0.00  0.00    +0.000 C 
ATOM      2  C   UNL     1       1.181   8.903  21.876  0.00  0.00    +0.000 C 
ENDROOT
BRANCH   1   3
ATOM      3  C   UNL     1       1.831   7.799  19.710  0.00  0.00    +0.000 C 
ATOM      4  O   UNL     1       1.990   6.841  20.489  0.00  0.00    +0.000 OA
ATOM      5  N   UNL     1       2.121   7.650  18.342  0.00  0.00    +0.000 N 
ATOM      6  H   UNL     1       1.561   8.150  17.669  0.00  0.00    +0.000 HD
BRANCH   5   7
ATOM      7  C   UNL     1       3.004   6.581  17.904  0.00  0.00    +0.000 A 
ATOM      8  C   UNL     1       4.195   7.033  17.325  0.00  0.00    +0.000 A 
ATOM      9  C   UNL     1       5.028   6.147  16.676  0.00  0.00    +0.000 A 
ATOM     10  C   UNL     1       5.076   4.850  17.121  0.00  0.00    +0.000 A 
ATOM     11  C   UNL     1       3.922   4.308  17.663  0.00  0.00    +0.000 A 
ATOM     12  C   UNL     1       3.954   2.917  17.794  0.00  0.00    +0.000 A 
ATOM     13  C   UNL     1       2.784   2.227  17.989  0.00  0.00    +0.000 A 
ATOM     14  C   UNL     1       1.592   2.939  18.056  0.00  0.00    +0.000 A 
ATOM     15  C   UNL     1       1.579   4.358  18.050  0.00  0.00    +0.000 A 
ATOM     16  C   UNL     1       2.767   5.135  17.884  0.00  0.00    +0.000 A 
ENDBRANCH   5   7
ENDBRANCH   1   3
BRANCH   1  17
ATOM     17  S   UNL     1      -0.095   9.966  19.723  0.00  0.00    +0.000 S 
BRANCH  17  24
ATOM     18  N   UNL     1      -0.554  12.699  19.883  0.00  0.00    +0.000 N 
ATOM     19  C   UNL     1      -0.284  13.995  19.425  0.00  0.00    +0.000 A 
ATOM     20  C   UNL     1       0.887  14.220  18.800  0.00  0.00    +0.000 A 
ATOM     21  C   UNL     1       1.885  13.122  18.661  0.00  0.00    +0.000 A 
ATOM     22  O   UNL     1       3.029  13.432  18.235  0.00  0.00    +0.000 OA
ATOM     23  N   UNL     1       1.490  11.862  18.974  0.00  0.00    +0.000 NA
ATOM     24  C   UNL     1       0.345  11.680  19.527  0.00  0.00    +0.000 A 
BRANCH  19  25
ATOM     25  N   UNL     1      -1.177  15.050  19.560  0.00  0.00    +0.000 N 
ATOM     26  H   UNL     1      -1.534  15.165  20.507  0.00  0.00    +0.000 HD
ATOM     27  H   UNL     1      -1.939  15.047  18.881  0.00  0.00    +0.000 HD
ENDBRANCH  19  25
BRANCH  18  28
ATOM     28  C   UNL     1      -1.734  12.468  20.735  0.00  0.00    +0.000 C 
BRANCH  28  30
ATOM     29  C   UNL     1      -1.341  11.463  23.004  0.00  0.00    +0.000 C 
ATOM     30  C   UNL     1      -1.302  12.509  22.173  0.00  0.00    +0.000 C 
ENDBRANCH  28  30
ENDBRANCH  18  28
ENDBRANCH  17  24
ENDBRANCH   1  17
TORSDOF 7
ENDMDL
