MODEL 1
REMARK VINA RESULT:      -9.2      0.000      0.000
REMARK  Name = 
REMARK  6 active torsions:
REMARK  status: ('A' for Active; 'I' for Inactive)
REMARK    1  A    between atoms: C_2  and  C_12
REMARK    2  A    between atoms: N_3  and  C_4
REMARK    3  A    between atoms: C_4  and  C_5
REMARK    4  A    between atoms: C_16  and  N_17
REMARK    5  A    between atoms: C_20  and  O_21
REMARK    6  A    between atoms: C_22  and  O_23
REMARK                            x       y       z     vdW  Elec       q    Type
REMARK                         _______ _______ _______ _____ _____    ______ ____
ROOT
ATOM      1  C   UNL     1       5.664   5.492  17.179  0.00  0.00    +0.000 A 
ATOM      2  C   UNL     1       5.079   4.724  16.236  0.00  0.00    +0.000 A 
ATOM      3  C   UNL     1       5.702   4.548  14.931  0.00  0.00    +0.000 A 
ATOM      4  C   UNL     1       5.148   3.731  13.936  0.00  0.00    +0.000 A 
ATOM      5  C   UNL     1       5.806   3.587  12.697  0.00  0.00    +0.000 A 
ATOM      6  C   UNL     1       7.010   4.258  12.450  0.00  0.00    +0.000 A 
ATOM      7  C   UNL     1       7.545   5.072  13.447  0.00  0.00    +0.000 A 
ATOM      8  C   UNL     1       6.894   5.211  14.671  0.00  0.00    +0.000 A 
ATOM      9  O   UNL     1       7.486   6.035  15.641  0.00  0.00    +0.000 OA
ATOM     10  C   UNL     1       6.935   6.195  16.901  0.00  0.00    +0.000 A 
ATOM     11  O   UNL     1       7.481   6.904  17.742  0.00  0.00    +0.000 OA
ENDROOT
BRANCH   1  13
ATOM     12  O   UNL     1       5.551   5.298  19.543  0.00  0.00    +0.000 OA
ATOM     13  C   UNL     1       4.973   5.604  18.499  0.00  0.00    +0.000 C 
ATOM     14  N   UNL     1       3.682   6.054  18.476  0.00  0.00    +0.000 N 
ATOM     15  H   UNL     1       3.231   6.259  17.580  0.00  0.00    +0.000 HD
BRANCH  14  16
ATOM     16  C   UNL     1       2.892   6.203  19.676  0.00  0.00    +0.000 C 
BRANCH  16  17
ATOM     17  C   UNL     1       2.261   4.902  20.103  0.00  0.00    +0.000 A 
ATOM     18  C   UNL     1       2.440   4.415  21.407  0.00  0.00    +0.000 A 
ATOM     19  C   UNL     1       1.861   3.204  21.806  0.00  0.00    +0.000 A 
ATOM     20  C   UNL     1       1.096   2.468  20.904  0.00  0.00    +0.000 A 
ATOM     21  C   UNL     1       0.921   2.946  19.611  0.00  0.00    +0.000 A 
ATOM     22  F   UNL     1       0.188   2.235  18.742  0.00  0.00    +0.000 F 
ATOM     23  C   UNL     1       1.497   4.147  19.202  0.00  0.00    +0.000 A 
ENDBRANCH  16  17
ENDBRANCH  14  16
ENDBRANCH   1  13
BRANCH   5  24
ATOM     24  N   UNL     1       5.211   2.719  11.676  0.00  0.00    +0.000 N 
ATOM     25  O   UNL     1       4.104   3.030  11.221  0.00  0.00    +0.000 OA
ATOM     26  O   UNL     1       5.862   1.719  11.333  0.00  0.00    +0.000 OA
ENDBRANCH   5  24
BRANCH   6  27
ATOM     27  O   UNL     1       7.744   4.195  11.291  0.00  0.00    +0.000 OA
ATOM     28  H   UNL     1       8.688   4.020  11.505  0.00  0.00    +0.000 HD
ENDBRANCH   6  27
BRANCH   7  29
ATOM     29  O   UNL     1       8.721   5.733  13.221  0.00  0.00    +0.000 OA
ATOM     30  H   UNL     1       8.598   6.628  13.595  0.00  0.00    +0.000 HD
ENDBRANCH   7  29
TORSDOF 6
ENDMDL
MODEL 2
REMARK VINA RESULT:      -8.8      0.869      1.396
REMARK  Name = 
REMARK  6 active torsions:
REMARK  status: ('A' for Active; 'I' for Inactive)
REMARK    1  A    between atoms: C_2  and  C_12
REMARK    2  A    between atoms: N_3  and  C_4
REMARK    3  A    between atoms: C_4  and  C_5
REMARK    4  A    between atoms: C_16  and  N_17
REMARK    5  A    between atoms: C_20  and  O_21
REMARK    6  A    between atoms: C_22  and  O_23
REMARK                            x       y       z     vdW  Elec       q    Type
REMARK                         _______ _______ _______ _____ _____    ______ ____
ROOT
ATOM      1  C   UNL     1       5.861   5.142  17.193  0.00  0.00    +0.000 A 
ATOM      2  C   UNL     1       5.303   4.369  16.239  0.00  0.00    +0.000 A 
ATOM      3  C   UNL     1       5.874   4.315  14.899  0.00  0.00    +0.000 A 
ATOM      4  C   UNL     1       5.348   3.498  13.889  0.00  0.00    +0.000 A 
ATOM      5  C   UNL     1       5.955   3.476  12.616  0.00  0.00    +0.000 A 
ATOM      6  C   UNL     1       7.080   4.268  12.351  0.00  0.00    +0.000 A 
ATOM      7  C   UNL     1       7.587   5.079  13.365  0.00  0.00    +0.000 A 
ATOM      8  C   UNL     1       6.987   5.097  14.622  0.00  0.00    +0.000 A 
ATOM      9  O   UNL     1       7.548   5.925  15.607  0.00  0.00    +0.000 OA
ATOM     10  C   UNL     1       7.047   5.972  16.897  0.00  0.00    +0.000 A 
ATOM     11  O   UNL     1       7.568   6.689  17.749  0.00  0.00    +0.000 OA
ENDROOT
BRANCH   1  13
ATOM     12  O   UNL     1       5.776   4.561  19.495  0.00  0.00    +0.000 OA
ATOM     13  C   UNL     1       5.228   5.125  18.547  0.00  0.00    +0.000 C 
ATOM     14  N   UNL     1       4.022   5.760  18.666  0.00  0.00    +0.000 N 
ATOM     15  H   UNL     1       3.587   6.182  17.840  0.00  0.00    +0.000 HD
BRANCH  14  16
ATOM     16  C   UNL     1       3.295   5.815  19.911  0.00  0.00    +0.000 C 
BRANCH  16  17
ATOM     17  C   UNL     1       2.360   4.644  20.074  0.00  0.00    +0.000 A 
ATOM     18  C   UNL     1       1.608   4.172  18.986  0.00  0.00    +0.000 A 
ATOM     19  C   UNL     1       0.734   3.089  19.135  0.00  0.00    +0.000 A 
ATOM     20  C   UNL     1       0.604   2.464  20.373  0.00  0.00    +0.000 A 
ATOM     21  C   UNL     1       1.344   2.931  21.452  0.00  0.00    +0.000 A 
ATOM     22  F   UNL     1       1.216   2.332  22.645  0.00  0.00    +0.000 F 
ATOM     23  C   UNL     1       2.213   4.012  21.317  0.00  0.00    +0.000 A 
ENDBRANCH  16  17
ENDBRANCH  14  16
ENDBRANCH   1  13
BRANCH   5  24
ATOM     24  N   UNL     1       5.393   2.607  11.579  0.00  0.00    +0.000 N 
ATOM     25  O   UNL     1       6.081   1.662  11.174  0.00  0.00    +0.000 OA
ATOM     26  O   UNL     1       4.252   2.877  11.169  0.00  0.00    +0.000 OA
ENDBRANCH   5  24
BRANCH   6  27
ATOM     27  O   UNL     1       7.759   4.329  11.160  0.00  0.00    +0.000 OA
ATOM     28  H   UNL     1       8.711   4.132  11.309  0.00  0.00    +0.000 HD
ENDBRANCH   6  27
BRANCH   7  29
ATOM     29  O   UNL     1       8.685   5.857  13.122  0.00  0.00    +0.000 OA
ATOM     30  H   UNL     1       9.458   5.313  13.374  0.00  0.00    +0.000 HD
ENDBRANCH   7  29
TORSDOF 6
ENDMDL
MODEL 3
REMARK VINA RESULT:      -8.5      2.135      2.975
REMARK  Name = 
REMARK  6 active torsions:
REMARK  status: ('A' for Active; 'I' for Inactive)
REMARK    1  A    between atoms: C_2  and  C_12
REMARK    2  A    between atoms: N_3  and  C_4
REMARK    3  A    between atoms: C_4  and  C_5
REMARK    4  A    between atoms: C_16  and  N_17
REMARK    5  A    between atoms: C_20  and  O_21
REMARK    6  A    between atoms: C_22  and  O_23
REMARK                            x       y       z     vdW  Elec       q    Type
REMARK                         _______ _______ _______ _____ _____    ______ ____
ROOT
ATOM      1  C   UNL     1       5.674   5.428  17.295  0.00  0.00    +0.000 A 
ATOM      2  C   UNL     1       5.075   4.680  16.345  0.00  0.00    +0.000 A 
ATOM      3  C   UNL     1       5.684   4.521  15.031  0.00  0.00    +0.000 A 
ATOM      4  C   UNL     1       5.114   3.725  14.028  0.00  0.00    +0.000 A 
ATOM      5  C   UNL     1       5.760   3.596  12.781  0.00  0.00    +0.000 A 
ATOM      6  C   UNL     1       6.967   4.262  12.534  0.00  0.00    +0.000 A 
ATOM      7  C   UNL     1       7.518   5.054  13.540  0.00  0.00    +0.000 A 
ATOM      8  C   UNL     1       6.879   5.178  14.772  0.00  0.00    +0.000 A 
ATOM      9  O   UNL     1       7.486   5.981  15.750  0.00  0.00    +0.000 OA
ATOM     10  C   UNL     1       6.948   6.124  17.018  0.00  0.00    +0.000 A 
ATOM     11  O   UNL     1       7.508   6.815  17.865  0.00  0.00    +0.000 OA
ENDROOT
BRANCH   1  13
ATOM     12  O   UNL     1       5.603   5.267  19.664  0.00  0.00    +0.000 OA
ATOM     13  C   UNL     1       4.996   5.523  18.624  0.00  0.00    +0.000 C 
ATOM     14  N   UNL     1       3.681   5.901  18.612  0.00  0.00    +0.000 N 
ATOM     15  H   UNL     1       3.208   6.066  17.719  0.00  0.00    +0.000 HD
BRANCH  14  16
ATOM     16  C   UNL     1       2.900   6.026  19.820  0.00  0.00    +0.000 C 
BRANCH  16  17
ATOM     17  C   UNL     1       2.118   7.313  19.858  0.00  0.00    +0.000 A 
ATOM     18  C   UNL     1       1.406   7.685  21.010  0.00  0.00    +0.000 A 
ATOM     19  C   UNL     1       0.674   8.877  21.047  0.00  0.00    +0.000 A 
ATOM     20  C   UNL     1       0.646   9.711  19.932  0.00  0.00    +0.000 A 
ATOM     21  C   UNL     1       1.346   9.345  18.789  0.00  0.00    +0.000 A 
ATOM     22  F   UNL     1       1.315  10.146  17.715  0.00  0.00    +0.000 F 
ATOM     23  C   UNL     1       2.074   8.157  18.739  0.00  0.00    +0.000 A 
ENDBRANCH  16  17
ENDBRANCH  14  16
ENDBRANCH   1  13
BRANCH   5  24
ATOM     24  N   UNL     1       5.149   2.750  11.752  0.00  0.00    +0.000 N 
ATOM     25  O   UNL     1       5.760   1.735  11.394  0.00  0.00    +0.000 OA
ATOM     26  O   UNL     1       4.050   3.110  11.300  0.00  0.00    +0.000 OA
ENDBRANCH   5  24
BRANCH   6  27
ATOM     27  O   UNL     1       7.690   4.212  11.368  0.00  0.00    +0.000 OA
ATOM     28  H   UNL     1       7.285   4.810  10.701  0.00  0.00    +0.000 HD
ENDBRANCH   6  27
BRANCH   7  29
ATOM     29  O   UNL     1       8.697   5.710  13.314  0.00  0.00    +0.000 OA
ATOM     30  H   UNL     1       8.586   6.170  12.458  0.00  0.00    +0.000 HD
ENDBRANCH   7  29
TORSDOF 6
ENDMDL
MODEL 4
REMARK VINA RESULT:      -8.5      5.343      7.196
REMARK  Name = 
REMARK  6 active torsions:
REMARK  status: ('A' for Active; 'I' for Inactive)
REMARK    1  A    between atoms: C_2  and  C_12
REMARK    2  A    between atoms: N_3  and  C_4
REMARK    3  A    between atoms: C_4  and  C_5
REMARK    4  A    between atoms: C_16  and  N_17
REMARK    5  A    between atoms: C_20  and  O_21
REMARK    6  A    between atoms: C_22  and  O_23
REMARK                            x       y       z     vdW  Elec       q    Type
REMARK                         _______ _______ _______ _____ _____    ______ ____
ROOT
ATOM      1  C   UNL     1       1.887   8.617  18.862  0.00  0.00    +0.000 A 
ATOM      2  C   UNL     1       2.731   8.273  17.866  0.00  0.00    +0.000 A 
ATOM      3  C   UNL     1       3.484   7.028  17.929  0.00  0.00    +0.000 A 
ATOM      4  C   UNL     1       4.344   6.615  16.902  0.00  0.00    +0.000 A 
ATOM      5  C   UNL     1       5.034   5.390  17.012  0.00  0.00    +0.000 A 
ATOM      6  C   UNL     1       4.871   4.582  18.144  0.00  0.00    +0.000 A 
ATOM      7  C   UNL     1       4.017   5.010  19.160  0.00  0.00    +0.000 A 
ATOM      8  C   UNL     1       3.335   6.219  19.048  0.00  0.00    +0.000 A 
ATOM      9  O   UNL     1       2.481   6.592  20.097  0.00  0.00    +0.000 OA
ATOM     10  C   UNL     1       1.727   7.753  20.051  0.00  0.00    +0.000 A 
ATOM     11  O   UNL     1       0.970   8.050  20.971  0.00  0.00    +0.000 OA
ENDROOT
BRANCH   1  13
ATOM     12  O   UNL     1       1.707  10.933  18.366  0.00  0.00    +0.000 OA
ATOM     13  C   UNL     1       1.134   9.900  18.711  0.00  0.00    +0.000 C 
ATOM     14  N   UNL     1      -0.207   9.855  18.980  0.00  0.00    +0.000 N 
ATOM     15  H   UNL     1      -0.631   8.980  19.301  0.00  0.00    +0.000 HD
BRANCH  14  16
ATOM     16  C   UNL     1      -1.055  11.019  18.884  0.00  0.00    +0.000 C 
BRANCH  16  17
ATOM     17  C   UNL     1      -2.093  10.875  17.800  0.00  0.00    +0.000 A 
ATOM     18  C   UNL     1      -1.913   9.956  16.754  0.00  0.00    +0.000 A 
ATOM     19  C   UNL     1      -2.872   9.825  15.743  0.00  0.00    +0.000 A 
ATOM     20  C   UNL     1      -4.022  10.611  15.768  0.00  0.00    +0.000 A 
ATOM     21  C   UNL     1      -4.201  11.524  16.799  0.00  0.00    +0.000 A 
ATOM     22  F   UNL     1      -5.305  12.284  16.820  0.00  0.00    +0.000 F 
ATOM     23  C   UNL     1      -3.250  11.668  17.808  0.00  0.00    +0.000 A 
ENDBRANCH  16  17
ENDBRANCH  14  16
ENDBRANCH   1  13
BRANCH   5  24
ATOM     24  N   UNL     1       5.919   4.976  15.920  0.00  0.00    +0.000 N 
ATOM     25  O   UNL     1       6.606   5.843  15.366  0.00  0.00    +0.000 OA
ATOM     26  O   UNL     1       5.922   3.771  15.618  0.00  0.00    +0.000 OA
ENDBRANCH   5  24
BRANCH   6  27
ATOM     27  O   UNL     1       5.481   3.373  18.365  0.00  0.00    +0.000 OA
ATOM     28  H   UNL     1       6.276   3.292  17.792  0.00  0.00    +0.000 HD
ENDBRANCH   6  27
BRANCH   7  29
ATOM     29  O   UNL     1       3.847   4.231  20.272  0.00  0.00    +0.000 OA
ATOM     30  H   UNL     1       4.209   4.750  21.017  0.00  0.00    +0.000 HD
ENDBRANCH   7  29
TORSDOF 6
ENDMDL
MODEL 5
REMARK VINA RESULT:      -8.5      2.121      3.086
REMARK  Name = 
REMARK  6 active torsions:
REMARK  status: ('A' for Active; 'I' for Inactive)
REMARK    1  A    between atoms: C_2  and  C_12
REMARK    2  A    between atoms: N_3  and  C_4
REMARK    3  A    between atoms: C_4  and  C_5
REMARK    4  A    between atoms: C_16  and  N_17
REMARK    5  A    between atoms: C_20  and  O_21
REMARK    6  A    between atoms: C_22  and  O_23
REMARK                            x       y       z     vdW  Elec       q    Type
REMARK                         _______ _______ _______ _____ _____    ______ ____
ROOT
ATOM      1  C   UNL     1       5.655   5.453  17.276  0.00  0.00    +0.000 A 
ATOM      2  C   UNL     1       5.052   4.708  16.326  0.00  0.00    +0.000 A 
ATOM      3  C   UNL     1       5.668   4.535  15.017  0.00  0.00    +0.000 A 
ATOM      4  C   UNL     1       5.094   3.742  14.014  0.00  0.00    +0.000 A 
ATOM      5  C   UNL     1       5.746   3.599  12.771  0.00  0.00    +0.000 A 
ATOM      6  C   UNL     1       6.964   4.247  12.529  0.00  0.00    +0.000 A 
ATOM      7  C   UNL     1       7.518   5.037  13.535  0.00  0.00    +0.000 A 
ATOM      8  C   UNL     1       6.874   5.175  14.762  0.00  0.00    +0.000 A 
ATOM      9  O   UNL     1       7.485   5.975  15.740  0.00  0.00    +0.000 OA
ATOM     10  C   UNL     1       6.940   6.132  17.004  0.00  0.00    +0.000 A 
ATOM     11  O   UNL     1       7.503   6.820  17.851  0.00  0.00    +0.000 OA
ENDROOT
BRANCH   1  13
ATOM     12  O   UNL     1       5.566   5.302  19.645  0.00  0.00    +0.000 OA
ATOM     13  C   UNL     1       4.970   5.563  18.600  0.00  0.00    +0.000 C 
ATOM     14  N   UNL     1       3.661   5.962  18.578  0.00  0.00    +0.000 N 
ATOM     15  H   UNL     1       3.196   6.130  17.681  0.00  0.00    +0.000 HD
BRANCH  14  16
ATOM     16  C   UNL     1       2.875   6.103  19.780  0.00  0.00    +0.000 C 
BRANCH  16  17
ATOM     17  C   UNL     1       2.085   7.386  19.793  0.00  0.00    +0.000 A 
ATOM     18  C   UNL     1       2.071   8.229  18.670  0.00  0.00    +0.000 A 
ATOM     19  C   UNL     1       1.344   9.426  18.681  0.00  0.00    +0.000 A 
ATOM     20  C   UNL     1       0.621   9.791  19.815  0.00  0.00    +0.000 A 
ATOM     21  C   UNL     1       0.636   8.960  20.928  0.00  0.00    +0.000 A 
ATOM     22  F   UNL     1      -0.056   9.314  22.021  0.00  0.00    +0.000 F 
ATOM     23  C   UNL     1       1.361   7.770  20.931  0.00  0.00    +0.000 A 
ENDBRANCH  16  17
ENDBRANCH  14  16
ENDBRANCH   1  13
BRANCH   5  24
ATOM     24  N   UNL     1       5.131   2.756  11.742  0.00  0.00    +0.000 N 
ATOM     25  O   UNL     1       5.734   1.735  11.389  0.00  0.00    +0.000 OA
ATOM     26  O   UNL     1       4.036   3.124  11.287  0.00  0.00    +0.000 OA
ENDBRANCH   5  24
BRANCH   6  27
ATOM     27  O   UNL     1       7.694   4.182  11.368  0.00  0.00    +0.000 OA
ATOM     28  H   UNL     1       8.609   3.883  11.568  0.00  0.00    +0.000 HD
ENDBRANCH   6  27
BRANCH   7  29
ATOM     29  O   UNL     1       8.707   5.676  13.313  0.00  0.00    +0.000 OA
ATOM     30  H   UNL     1       8.539   6.622  13.500  0.00  0.00    +0.000 HD
ENDBRANCH   7  29
TORSDOF 6
ENDMDL
MODEL 6
REMARK VINA RESULT:      -8.5      5.157      7.012
REMARK  Name = 
REMARK  6 active torsions:
REMARK  status: ('A' for Active; 'I' for Inactive)
REMARK    1  A    between atoms: C_2  and  C_12
REMARK    2  A    between atoms: N_3  and  C_4
REMARK    3  A    between atoms: C_4  and  C_5
REMARK    4  A    between atoms: C_16  and  N_17
REMARK    5  A    between atoms: C_20  and  O_21
REMARK    6  A    between atoms: C_22  and  O_23
REMARK                            x       y       z     vdW  Elec       q    Type
REMARK                         _______ _______ _______ _____ _____    ______ ____
ROOT
ATOM      1  C   UNL     1       1.874   8.625  18.928  0.00  0.00    +0.000 A 
ATOM      2  C   UNL     1       2.696   8.320  17.902  0.00  0.00    +0.000 A 
ATOM      3  C   UNL     1       3.426   7.060  17.885  0.00  0.00    +0.000 A 
ATOM      4  C   UNL     1       4.262   6.687  16.823  0.00  0.00    +0.000 A 
ATOM      5  C   UNL     1       4.931   5.446  16.856  0.00  0.00    +0.000 A 
ATOM      6  C   UNL     1       4.768   4.580  17.945  0.00  0.00    +0.000 A 
ATOM      7  C   UNL     1       3.938   4.967  18.995  0.00  0.00    +0.000 A 
ATOM      8  C   UNL     1       3.277   6.193  18.960  0.00  0.00    +0.000 A 
ATOM      9  O   UNL     1       2.446   6.525  20.041  0.00  0.00    +0.000 OA
ATOM     10  C   UNL     1       1.714   7.700  20.070  0.00  0.00    +0.000 A 
ATOM     11  O   UNL     1       0.977   7.960  21.017  0.00  0.00    +0.000 OA
ENDROOT
BRANCH   1  13
ATOM     12  O   UNL     1       1.727  10.963  18.537  0.00  0.00    +0.000 OA
ATOM     13  C   UNL     1       1.144   9.927  18.859  0.00  0.00    +0.000 C 
ATOM     14  N   UNL     1      -0.187   9.898  19.173  0.00  0.00    +0.000 N 
ATOM     15  H   UNL     1      -0.619   9.019  19.472  0.00  0.00    +0.000 HD
BRANCH  14  16
ATOM     16  C   UNL     1      -1.013  11.082  19.157  0.00  0.00    +0.000 C 
BRANCH  16  17
ATOM     17  C   UNL     1      -2.098  11.001  18.114  0.00  0.00    +0.000 A 
ATOM     18  C   UNL     1      -3.344  11.612  18.328  0.00  0.00    +0.000 A 
ATOM     19  C   UNL     1      -4.356  11.534  17.364  0.00  0.00    +0.000 A 
ATOM     20  C   UNL     1      -4.132  10.844  16.174  0.00  0.00    +0.000 A 
ATOM     21  C   UNL     1      -2.901  10.236  15.961  0.00  0.00    +0.000 A 
ATOM     22  F   UNL     1      -2.688   9.569  14.818  0.00  0.00    +0.000 F 
ATOM     23  C   UNL     1      -1.889  10.302  16.916  0.00  0.00    +0.000 A 
ENDBRANCH  16  17
ENDBRANCH  14  16
ENDBRANCH   1  13
BRANCH   5  24
ATOM     24  N   UNL     1       5.791   5.075  15.729  0.00  0.00    +0.000 N 
ATOM     25  O   UNL     1       5.688   3.932  15.269  0.00  0.00    +0.000 OA
ATOM     26  O   UNL     1       6.576   5.940  15.307  0.00  0.00    +0.000 OA
ENDBRANCH   5  24
BRANCH   6  27
ATOM     27  O   UNL     1       5.358   3.349  18.090  0.00  0.00    +0.000 OA
ATOM     28  H   UNL     1       5.059   2.751  17.369  0.00  0.00    +0.000 HD
ENDBRANCH   6  27
BRANCH   7  29
ATOM     29  O   UNL     1       3.768   4.132  20.066  0.00  0.00    +0.000 OA
ATOM     30  H   UNL     1       4.662   3.805  20.292  0.00  0.00    +0.000 HD
ENDBRANCH   7  29
TORSDOF 6
ENDMDL
MODEL 7
REMARK VINA RESULT:      -8.4      5.511      8.015
REMARK  Name = 
REMARK  6 active torsions:
REMARK  status: ('A' for Active; 'I' for Inactive)
REMARK    1  A    between atoms: C_2  and  C_12
REMARK    2  A    between atoms: N_3  and  C_4
REMARK    3  A    between atoms: C_4  and  C_5
REMARK    4  A    between atoms: C_16  and  N_17
REMARK    5  A    between atoms: C_20  and  O_21
REMARK    6  A    between atoms: C_22  and  O_23
REMARK                            x       y       z     vdW  Elec       q    Type
REMARK                         _______ _______ _______ _____ _____    ______ ____
ROOT
ATOM      1  C   UNL     1       1.497   8.413  19.462  0.00  0.00    +0.000 A 
ATOM      2  C   UNL     1       1.437   7.353  20.294  0.00  0.00    +0.000 A 
ATOM      3  C   UNL     1       2.164   6.128  19.989  0.00  0.00    +0.000 A 
ATOM      4  C   UNL     1       2.158   5.016  20.843  0.00  0.00    +0.000 A 
ATOM      5  C   UNL     1       2.895   3.863  20.501  0.00  0.00    +0.000 A 
ATOM      6  C   UNL     1       3.634   3.819  19.312  0.00  0.00    +0.000 A 
ATOM      7  C   UNL     1       3.625   4.930  18.471  0.00  0.00    +0.000 A 
ATOM      8  C   UNL     1       2.897   6.069  18.811  0.00  0.00    +0.000 A 
ATOM      9  O   UNL     1       2.934   7.161  17.931  0.00  0.00    +0.000 OA
ATOM     10  C   UNL     1       2.280   8.350  18.210  0.00  0.00    +0.000 A 
ATOM     11  O   UNL     1       2.344   9.300  17.434  0.00  0.00    +0.000 OA
ENDROOT
BRANCH   1  13
ATOM     12  O   UNL     1       0.992  10.227  20.911  0.00  0.00    +0.000 OA
ATOM     13  C   UNL     1       0.740   9.640  19.857  0.00  0.00    +0.000 C 
ATOM     14  N   UNL     1      -0.234  10.062  18.994  0.00  0.00    +0.000 N 
ATOM     15  H   UNL     1      -0.432   9.519  18.148  0.00  0.00    +0.000 HD
BRANCH  14  16
ATOM     16  C   UNL     1      -1.047  11.226  19.252  0.00  0.00    +0.000 C 
BRANCH  16  17
ATOM     17  C   UNL     1      -2.233  11.305  18.325  0.00  0.00    +0.000 A 
ATOM     18  C   UNL     1      -3.488  11.716  18.802  0.00  0.00    +0.000 A 
ATOM     19  C   UNL     1      -4.593  11.785  17.945  0.00  0.00    +0.000 A 
ATOM     20  C   UNL     1      -4.454  11.444  16.601  0.00  0.00    +0.000 A 
ATOM     21  C   UNL     1      -3.214  11.033  16.128  0.00  0.00    +0.000 A 
ATOM     22  F   UNL     1      -3.082  10.701  14.836  0.00  0.00    +0.000 F 
ATOM     23  C   UNL     1      -2.109  10.955  16.973  0.00  0.00    +0.000 A 
ENDBRANCH  16  17
ENDBRANCH  14  16
ENDBRANCH   1  13
BRANCH   5  24
ATOM     24  N   UNL     1       2.881   2.718  21.415  0.00  0.00    +0.000 N 
ATOM     25  O   UNL     1       3.900   2.021  21.491  0.00  0.00    +0.000 OA
ATOM     26  O   UNL     1       1.838   2.518  22.058  0.00  0.00    +0.000 OA
ENDBRANCH   5  24
BRANCH   6  27
ATOM     27  O   UNL     1       4.391   2.762  18.873  0.00  0.00    +0.000 OA
ATOM     28  H   UNL     1       3.892   1.923  18.993  0.00  0.00    +0.000 HD
ENDBRANCH   6  27
BRANCH   7  29
ATOM     29  O   UNL     1       4.341   4.902  17.306  0.00  0.00    +0.000 OA
ATOM     30  H   UNL     1       4.831   5.748  17.275  0.00  0.00    +0.000 HD
ENDBRANCH   7  29
TORSDOF 6
ENDMDL
MODEL 8
REMARK VINA RESULT:      -8.4      1.223      1.310
REMARK  Name = 
REMARK  6 active torsions:
REMARK  status: ('A' for Active; 'I' for Inactive)
REMARK    1  A    between atoms: C_2  and  C_12
REMARK    2  A    between atoms: N_3  and  C_4
REMARK    3  A    between atoms: C_4  and  C_5
REMARK    4  A    between atoms: C_16  and  N_17
REMARK    5  A    between atoms: C_20  and  O_21
REMARK    6  A    between atoms: C_22  and  O_23
REMARK                            x       y       z     vdW  Elec       q    Type
REMARK                         _______ _______ _______ _____ _____    ______ ____
ROOT
ATOM      1  C   UNL     1       6.094   4.627  17.344  0.00  0.00    +0.000 A 
ATOM      2  C   UNL     1       5.507   3.928  16.350  0.00  0.00    +0.000 A 
ATOM      3  C   UNL     1       5.979   4.050  14.977  0.00  0.00    +0.000 A 
ATOM      4  C   UNL     1       5.423   3.316  13.921  0.00  0.00    +0.000 A 
ATOM      5  C   UNL     1       5.934   3.464  12.615  0.00  0.00    +0.000 A 
ATOM      6  C   UNL     1       6.994   4.344  12.363  0.00  0.00    +0.000 A 
ATOM      7  C   UNL     1       7.533   5.071  13.423  0.00  0.00    +0.000 A 
ATOM      8  C   UNL     1       7.028   4.921  14.712  0.00  0.00    +0.000 A 
ATOM      9  O   UNL     1       7.617   5.671  15.741  0.00  0.00    +0.000 OA
ATOM     10  C   UNL     1       7.212   5.552  17.060  0.00  0.00    +0.000 A 
ATOM     11  O   UNL     1       7.757   6.204  17.948  0.00  0.00    +0.000 OA
ENDROOT
BRANCH   1  13
ATOM     12  O   UNL     1       5.404   5.386  19.486  0.00  0.00    +0.000 OA
ATOM     13  C   UNL     1       5.566   4.429  18.728  0.00  0.00    +0.000 C 
ATOM     14  N   UNL     1       5.281   3.142  19.094  0.00  0.00    +0.000 N 
ATOM     15  H   UNL     1       5.468   2.375  18.441  0.00  0.00    +0.000 HD
BRANCH  14  16
ATOM     16  C   UNL     1       4.773   2.804  20.402  0.00  0.00    +0.000 C 
BRANCH  16  17
ATOM     17  C   UNL     1       3.266   2.820  20.446  0.00  0.00    +0.000 A 
ATOM     18  C   UNL     1       2.585   2.765  21.672  0.00  0.00    +0.000 A 
ATOM     19  C   UNL     1       1.186   2.774  21.716  0.00  0.00    +0.000 A 
ATOM     20  C   UNL     1       0.453   2.839  20.533  0.00  0.00    +0.000 A 
ATOM     21  C   UNL     1       1.124   2.890  19.318  0.00  0.00    +0.000 A 
ATOM     22  F   UNL     1       0.418   2.948  18.180  0.00  0.00    +0.000 F 
ATOM     23  C   UNL     1       2.517   2.876  19.262  0.00  0.00    +0.000 A 
ENDBRANCH  16  17
ENDBRANCH  14  16
ENDBRANCH   1  13
BRANCH   5  24
ATOM     24  N   UNL     1       5.341   2.678  11.529  0.00  0.00    +0.000 N 
ATOM     25  O   UNL     1       4.221   3.006  11.117  0.00  0.00    +0.000 OA
ATOM     26  O   UNL     1       6.005   1.725  11.091  0.00  0.00    +0.000 OA
ENDBRANCH   5  24
BRANCH   6  27
ATOM     27  O   UNL     1       7.579   4.571  11.142  0.00  0.00    +0.000 OA
ATOM     28  H   UNL     1       7.493   3.769  10.578  0.00  0.00    +0.000 HD
ENDBRANCH   6  27
BRANCH   7  29
ATOM     29  O   UNL     1       8.569   5.934  13.192  0.00  0.00    +0.000 OA
ATOM     30  H   UNL     1       8.960   6.120  14.069  0.00  0.00    +0.000 HD
ENDBRANCH   7  29
TORSDOF 6
ENDMDL
MODEL 9
REMARK VINA RESULT:      -8.3      5.302      7.431
REMARK  Name = 
REMARK  6 active torsions:
REMARK  status: ('A' for Active; 'I' for Inactive)
REMARK    1  A    between atoms: C_2  and  C_12
REMARK    2  A    between atoms: N_3  and  C_4
REMARK    3  A    between atoms: C_4  and  C_5
REMARK    4  A    between atoms: C_16  and  N_17
REMARK    5  A    between atoms: C_20  and  O_21
REMARK    6  A    between atoms: C_22  and  O_23
REMARK                            x       y       z     vdW  Elec       q    Type
REMARK                         _______ _______ _______ _____ _____    ______ ____
ROOT
ATOM      1  C   UNL     1       1.717   8.428  19.290  0.00  0.00    +0.000 A 
ATOM      2  C   UNL     1       1.846   7.279  19.985  0.00  0.00    +0.000 A 
ATOM      3  C   UNL     1       2.693   6.202  19.490  0.00  0.00    +0.000 A 
ATOM      4  C   UNL     1       2.883   5.007  20.197  0.00  0.00    +0.000 A 
ATOM      5  C   UNL     1       3.728   4.006  19.673  0.00  0.00    +0.000 A 
ATOM      6  C   UNL     1       4.379   4.197  18.448  0.00  0.00    +0.000 A 
ATOM      7  C   UNL     1       4.175   5.388  17.754  0.00  0.00    +0.000 A 
ATOM      8  C   UNL     1       3.341   6.375  18.274  0.00  0.00    +0.000 A 
ATOM      9  O   UNL     1       3.183   7.558  17.536  0.00  0.00    +0.000 OA
ATOM     10  C   UNL     1       2.411   8.612  17.997  0.00  0.00    +0.000 A 
ATOM     11  O   UNL     1       2.303   9.646  17.344  0.00  0.00    +0.000 OA
ENDROOT
BRANCH   1  13
ATOM     12  O   UNL     1       0.855   9.719  21.087  0.00  0.00    +0.000 OA
ATOM     13  C   UNL     1       0.848   9.492  19.877  0.00  0.00    +0.000 C 
ATOM     14  N   UNL     1       0.055  10.184  19.002  0.00  0.00    +0.000 N 
ATOM     15  H   UNL     1       0.055   9.933  18.009  0.00  0.00    +0.000 HD
BRANCH  14  16
ATOM     16  C   UNL     1      -0.840  11.233  19.431  0.00  0.00    +0.000 C 
BRANCH  16  17
ATOM     17  C   UNL     1      -2.131  11.228  18.655  0.00  0.00    +0.000 A 
ATOM     18  C   UNL     1      -3.254  11.924  19.129  0.00  0.00    +0.000 A 
ATOM     19  C   UNL     1      -4.458  11.916  18.414  0.00  0.00    +0.000 A 
ATOM     20  C   UNL     1      -4.550  11.213  17.214  0.00  0.00    +0.000 A 
ATOM     21  C   UNL     1      -3.441  10.520  16.744  0.00  0.00    +0.000 A 
ATOM     22  F   UNL     1      -3.532   9.840  15.593  0.00  0.00    +0.000 F 
ATOM     23  C   UNL     1      -2.240  10.516  17.452  0.00  0.00    +0.000 A 
ENDBRANCH  16  17
ENDBRANCH  14  16
ENDBRANCH   1  13
BRANCH   5  24
ATOM     24  N   UNL     1       3.919   2.770  20.437  0.00  0.00    +0.000 N 
ATOM     25  O   UNL     1       3.021   2.421  21.213  0.00  0.00    +0.000 OA
ATOM     26  O   UNL     1       4.978   2.148  20.254  0.00  0.00    +0.000 OA
ENDBRANCH   5  24
BRANCH   6  27
ATOM     27  O   UNL     1       5.227   3.304  17.840  0.00  0.00    +0.000 OA
ATOM     28  H   UNL     1       4.958   2.385  18.065  0.00  0.00    +0.000 HD
ENDBRANCH   6  27
BRANCH   7  29
ATOM     29  O   UNL     1       4.805   5.588  16.556  0.00  0.00    +0.000 OA
ATOM     30  H   UNL     1       4.141   6.012  15.975  0.00  0.00    +0.000 HD
ENDBRANCH   7  29
TORSDOF 6
ENDMDL
