MODEL 1
REMARK VINA RESULT:      -7.3      0.000      0.000
REMARK  Name = 
REMARK  11 active torsions:
REMARK  status: ('A' for Active; 'I' for Inactive)
REMARK    1  A    between atoms: C_1  and  O_2
REMARK    2  A    between atoms: O_2  and  C_3
REMARK    3  A    between atoms: C_16  and  O_17
REMARK    4  A    between atoms: O_17  and  C_18
REMARK    5  A    between atoms: C_19  and  O_20
REMARK    6  A    between atoms: O_20  and  C_21
REMARK    7  A    between atoms: N_24  and  C_25
REMARK    8  A    between atoms: C_25  and  C_26
REMARK    9  A    between atoms: C_26  and  N_27
REMARK   10  A    between atoms: N_27  and  C_28
REMARK   11  A    between atoms: N_27  and  C_29
REMARK                            x       y       z     vdW  Elec       q    Type
REMARK                         _______ _______ _______ _____ _____    ______ ____
ROOT
ATOM      1  C   UNL     1       6.322   4.654  14.614  0.00  0.00    +0.000 A 
ATOM      2  C   UNL     1       6.349   3.591  15.502  0.00  0.00    +0.000 A 
ATOM      3  C   UNL     1       5.634   3.658  16.699  0.00  0.00    +0.000 A 
ATOM      4  C   UNL     1       4.890   4.801  17.027  0.00  0.00    +0.000 A 
ATOM      5  C   UNL     1       4.094   4.739  18.287  0.00  0.00    +0.000 A 
ATOM      6  O   UNL     1       4.090   3.693  18.923  0.00  0.00    +0.000 OA
ATOM      7  C   UNL     1       3.353   5.914  18.710  0.00  0.00    +0.000 A 
ATOM      8  C   UNL     1       3.276   7.092  18.009  0.00  0.00    +0.000 A 
ATOM      9  S   UNL     1       4.052   7.428  16.485  0.00  0.00    +0.000 S 
ATOM     10  C   UNL     1       4.907   5.903  16.162  0.00  0.00    +0.000 A 
ATOM     11  C   UNL     1       5.635   5.818  14.954  0.00  0.00    +0.000 A 
ATOM     12  C   UNL     1       2.431   7.985  18.694  0.00  0.00    +0.000 A 
ATOM     13  C   UNL     1       1.982   9.286  18.422  0.00  0.00    +0.000 A 
ATOM     14  C   UNL     1       1.092   9.932  19.284  0.00  0.00    +0.000 A 
ATOM     15  C   UNL     1       0.679   9.290  20.467  0.00  0.00    +0.000 A 
ATOM     16  C   UNL     1       1.131   7.987  20.754  0.00  0.00    +0.000 A 
ATOM     17  C   UNL     1       1.998   7.346  19.850  0.00  0.00    +0.000 A 
ATOM     18  N   UNL     1       2.570   6.078  19.854  0.00  0.00    +0.000 N 
ENDROOT
BRANCH   1  20
ATOM     19  C   UNL     1       6.490   3.657  12.486  0.00  0.00    +0.000 C 
ATOM     20  O   UNL     1       6.963   4.650  13.397  0.00  0.00    +0.000 OA
ENDBRANCH   1  20
BRANCH  14  21
ATOM     21  O   UNL     1       0.632  11.205  19.022  0.00  0.00    +0.000 OA
ATOM     22  C   UNL     1       1.603  12.246  19.156  0.00  0.00    +0.000 C 
ENDBRANCH  14  21
BRANCH  15  23
ATOM     23  O   UNL     1      -0.177   9.983  21.295  0.00  0.00    +0.000 OA
ATOM     24  C   UNL     1      -0.190   9.610  22.672  0.00  0.00    +0.000 C 
ENDBRANCH  15  23
BRANCH  18  25
ATOM     25  C   UNL     1       2.287   5.067  20.875  0.00  0.00    +0.000 C 
BRANCH  25  26
ATOM     26  C   UNL     1       1.009   4.258  20.602  0.00  0.00    +0.000 C 
BRANCH  26  27
ATOM     27  N   UNL     1       1.109   2.787  20.753  0.00  0.00    +0.000 NA
ATOM     28  C   UNL     1       1.303   2.102  19.471  0.00  0.00    +0.000 C 
ATOM     29  C   UNL     1       2.264   2.504  21.622  0.00  0.00    +0.000 C 
ENDBRANCH  26  27
ENDBRANCH  25  26
ENDBRANCH  18  25
TORSDOF 6
ENDMDL
MODEL 2
REMARK VINA RESULT:      -7.1      2.507      7.962
REMARK  Name = 
REMARK  11 active torsions:
REMARK  status: ('A' for Active; 'I' for Inactive)
REMARK    1  A    between atoms: C_1  and  O_2
REMARK    2  A    between atoms: O_2  and  C_3
REMARK    3  A    between atoms: C_16  and  O_17
REMARK    4  A    between atoms: O_17  and  C_18
REMARK    5  A    between atoms: C_19  and  O_20
REMARK    6  A    between atoms: O_20  and  C_21
REMARK    7  A    between atoms: N_24  and  C_25
REMARK    8  A    between atoms: C_25  and  C_26
REMARK    9  A    between atoms: C_26  and  N_27
REMARK   10  A    between atoms: N_27  and  C_28
REMARK   11  A    between atoms: N_27  and  C_29
REMARK                            x       y       z     vdW  Elec       q    Type
REMARK                         _______ _______ _______ _____ _____    ______ ____
ROOT
ATOM      1  C   UNL     1      -0.655  11.672  20.592  0.00  0.00    +0.000 A 
ATOM      2  C   UNL     1      -0.007  12.116  19.451  0.00  0.00    +0.000 A 
ATOM      3  C   UNL     1       0.871  11.272  18.769  0.00  0.00    +0.000 A 
ATOM      4  C   UNL     1       1.120   9.972  19.232  0.00  0.00    +0.000 A 
ATOM      5  C   UNL     1       2.008   9.122  18.386  0.00  0.00    +0.000 A 
ATOM      6  O   UNL     1       2.415   9.580  17.325  0.00  0.00    +0.000 OA
ATOM      7  C   UNL     1       2.353   7.788  18.844  0.00  0.00    +0.000 A 
ATOM      8  C   UNL     1       1.881   7.204  19.994  0.00  0.00    +0.000 A 
ATOM      9  S   UNL     1       0.790   7.935  21.140  0.00  0.00    +0.000 S 
ATOM     10  C   UNL     1       0.516   9.538  20.419  0.00  0.00    +0.000 A 
ATOM     11  C   UNL     1      -0.371  10.404  21.096  0.00  0.00    +0.000 A 
ATOM     12  C   UNL     1       2.384   5.893  20.089  0.00  0.00    +0.000 A 
ATOM     13  C   UNL     1       2.205   4.858  21.019  0.00  0.00    +0.000 A 
ATOM     14  C   UNL     1       2.815   3.614  20.833  0.00  0.00    +0.000 A 
ATOM     15  C   UNL     1       3.659   3.412  19.724  0.00  0.00    +0.000 A 
ATOM     16  C   UNL     1       3.852   4.448  18.789  0.00  0.00    +0.000 A 
ATOM     17  C   UNL     1       3.197   5.678  18.982  0.00  0.00    +0.000 A 
ATOM     18  N   UNL     1       3.176   6.846  18.226  0.00  0.00    +0.000 N 
ENDROOT
BRANCH   1  20
ATOM     19  C   UNL     1      -2.658  12.910  20.515  0.00  0.00    +0.000 C 
ATOM     20  O   UNL     1      -1.566  12.425  21.296  0.00  0.00    +0.000 OA
ENDBRANCH   1  20
BRANCH  14  21
ATOM     21  O   UNL     1       2.637   2.584  21.731  0.00  0.00    +0.000 OA
ATOM     22  C   UNL     1       1.278   2.300  22.075  0.00  0.00    +0.000 C 
ENDBRANCH  14  21
BRANCH  15  23
ATOM     23  O   UNL     1       4.257   2.176  19.604  0.00  0.00    +0.000 OA
ATOM     24  C   UNL     1       3.771   1.319  18.573  0.00  0.00    +0.000 C 
ENDBRANCH  15  23
BRANCH  18  25
ATOM     25  C   UNL     1       3.850   6.985  16.934  0.00  0.00    +0.000 C 
BRANCH  25  26
ATOM     26  C   UNL     1       5.363   7.233  17.055  0.00  0.00    +0.000 C 
BRANCH  26  27
ATOM     27  N   UNL     1       6.243   6.385  16.215  0.00  0.00    +0.000 NA
ATOM     28  C   UNL     1       7.222   5.635  17.007  0.00  0.00    +0.000 C 
ATOM     29  C   UNL     1       5.387   5.431  15.490  0.00  0.00    +0.000 C 
ENDBRANCH  26  27
ENDBRANCH  25  26
ENDBRANCH  18  25
TORSDOF 6
ENDMDL
MODEL 3
REMARK VINA RESULT:      -6.4      0.870      1.028
REMARK  Name = 
REMARK  11 active torsions:
REMARK  status: ('A' for Active; 'I' for Inactive)
REMARK    1  A    between atoms: C_1  and  O_2
REMARK    2  A    between atoms: O_2  and  C_3
REMARK    3  A    between atoms: C_16  and  O_17
REMARK    4  A    between atoms: O_17  and  C_18
REMARK    5  A    between atoms: C_19  and  O_20
REMARK    6  A    between atoms: O_20  and  C_21
REMARK    7  A    between atoms: N_24  and  C_25
REMARK    8  A    between atoms: C_25  and  C_26
REMARK    9  A    between atoms: C_26  and  N_27
REMARK   10  A    between atoms: N_27  and  C_28
REMARK   11  A    between atoms: N_27  and  C_29
REMARK                            x       y       z     vdW  Elec       q    Type
REMARK                         _______ _______ _______ _____ _____    ______ ____
ROOT
ATOM      1  C   UNL     1       6.550   5.023  14.810  0.00  0.00    +0.000 A 
ATOM      2  C   UNL     1       6.716   3.937  15.654  0.00  0.00    +0.000 A 
ATOM      3  C   UNL     1       6.014   3.869  16.858  0.00  0.00    +0.000 A 
ATOM      4  C   UNL     1       5.141   4.899  17.238  0.00  0.00    +0.000 A 
ATOM      5  C   UNL     1       4.375   4.691  18.501  0.00  0.00    +0.000 A 
ATOM      6  O   UNL     1       4.506   3.627  19.093  0.00  0.00    +0.000 OA
ATOM      7  C   UNL     1       3.502   5.749  18.978  0.00  0.00    +0.000 A 
ATOM      8  C   UNL     1       3.275   6.936  18.327  0.00  0.00    +0.000 A 
ATOM      9  S   UNL     1       3.985   7.425  16.812  0.00  0.00    +0.000 S 
ATOM     10  C   UNL     1       5.014   6.028  16.420  0.00  0.00    +0.000 A 
ATOM     11  C   UNL     1       5.731   6.081  15.203  0.00  0.00    +0.000 A 
ATOM     12  C   UNL     1       2.337   7.692  19.054  0.00  0.00    +0.000 A 
ATOM     13  C   UNL     1       1.731   8.939  18.840  0.00  0.00    +0.000 A 
ATOM     14  C   UNL     1       0.780   9.437  19.735  0.00  0.00    +0.000 A 
ATOM     15  C   UNL     1       0.463   8.702  20.893  0.00  0.00    +0.000 A 
ATOM     16  C   UNL     1       1.072   7.453  21.123  0.00  0.00    +0.000 A 
ATOM     17  C   UNL     1       1.999   6.959  20.186  0.00  0.00    +0.000 A 
ATOM     18  N   UNL     1       2.720   5.771  20.134  0.00  0.00    +0.000 N 
ENDROOT
BRANCH   1  20
ATOM     19  C   UNL     1       6.833   4.123  12.652  0.00  0.00    +0.000 C 
ATOM     20  O   UNL     1       7.171   5.146  13.589  0.00  0.00    +0.000 OA
ENDBRANCH   1  20
BRANCH  14  21
ATOM     21  O   UNL     1       0.166  10.654  19.529  0.00  0.00    +0.000 OA
ATOM     22  C   UNL     1      -0.815  10.677  18.489  0.00  0.00    +0.000 C 
ENDBRANCH  14  21
BRANCH  15  23
ATOM     23  O   UNL     1      -0.460   9.253  21.756  0.00  0.00    +0.000 OA
ATOM     24  C   UNL     1      -0.027   9.511  23.091  0.00  0.00    +0.000 C 
ENDBRANCH  15  23
BRANCH  18  25
ATOM     25  C   UNL     1       2.575   4.693  21.114  0.00  0.00    +0.000 C 
BRANCH  25  26
ATOM     26  C   UNL     1       1.441   3.710  20.783  0.00  0.00    +0.000 C 
BRANCH  26  27
ATOM     27  N   UNL     1       1.589   2.921  19.536  0.00  0.00    +0.000 NA
ATOM     28  C   UNL     1       2.075   1.560  19.787  0.00  0.00    +0.000 C 
ATOM     29  C   UNL     1       0.265   2.842  18.896  0.00  0.00    +0.000 C 
ENDBRANCH  26  27
ENDBRANCH  25  26
ENDBRANCH  18  25
TORSDOF 6
ENDMDL
MODEL 4
REMARK VINA RESULT:      -6.1      1.676      7.224
REMARK  Name = 
REMARK  11 active torsions:
REMARK  status: ('A' for Active; 'I' for Inactive)
REMARK    1  A    between atoms: C_1  and  O_2
REMARK    2  A    between atoms: O_2  and  C_3
REMARK    3  A    between atoms: C_16  and  O_17
REMARK    4  A    between atoms: O_17  and  C_18
REMARK    5  A    between atoms: C_19  and  O_20
REMARK    6  A    between atoms: O_20  and  C_21
REMARK    7  A    between atoms: N_24  and  C_25
REMARK    8  A    between atoms: C_25  and  C_26
REMARK    9  A    between atoms: C_26  and  N_27
REMARK   10  A    between atoms: N_27  and  C_28
REMARK   11  A    between atoms: N_27  and  C_29
REMARK                            x       y       z     vdW  Elec       q    Type
REMARK                         _______ _______ _______ _____ _____    ______ ____
ROOT
ATOM      1  C   UNL     1      -0.562  12.531  19.764  0.00  0.00    +0.000 A 
ATOM      2  C   UNL     1      -1.079  11.785  20.811  0.00  0.00    +0.000 A 
ATOM      3  C   UNL     1      -0.630  10.483  21.035  0.00  0.00    +0.000 A 
ATOM      4  C   UNL     1       0.340   9.906  20.203  0.00  0.00    +0.000 A 
ATOM      5  C   UNL     1       0.814   8.542  20.577  0.00  0.00    +0.000 A 
ATOM      6  O   UNL     1       0.380   8.036  21.605  0.00  0.00    +0.000 OA
ATOM      7  C   UNL     1       1.772   7.868  19.718  0.00  0.00    +0.000 A 
ATOM      8  C   UNL     1       2.333   8.409  18.588  0.00  0.00    +0.000 A 
ATOM      9  S   UNL     1       2.011   9.997  17.945  0.00  0.00    +0.000 S 
ATOM     10  C   UNL     1       0.823  10.632  19.106  0.00  0.00    +0.000 A 
ATOM     11  C   UNL     1       0.358  11.949  18.894  0.00  0.00    +0.000 A 
ATOM     12  C   UNL     1       3.252   7.493  18.042  0.00  0.00    +0.000 A 
ATOM     13  C   UNL     1       4.112   7.537  16.935  0.00  0.00    +0.000 A 
ATOM     14  C   UNL     1       4.964   6.466  16.647  0.00  0.00    +0.000 A 
ATOM     15  C   UNL     1       4.923   5.310  17.449  0.00  0.00    +0.000 A 
ATOM     16  C   UNL     1       4.057   5.253  18.558  0.00  0.00    +0.000 A 
ATOM     17  C   UNL     1       3.236   6.359  18.846  0.00  0.00    +0.000 A 
ATOM     18  N   UNL     1       2.324   6.596  19.869  0.00  0.00    +0.000 N 
ENDROOT
BRANCH   1  20
ATOM     19  C   UNL     1       0.012  14.546  18.688  0.00  0.00    +0.000 C 
ATOM     20  O   UNL     1      -0.919  13.833  19.502  0.00  0.00    +0.000 OA
ENDBRANCH   1  20
BRANCH  14  21
ATOM     21  O   UNL     1       5.823   6.501  15.570  0.00  0.00    +0.000 OA
ATOM     22  C   UNL     1       5.560   5.538  14.546  0.00  0.00    +0.000 C 
ENDBRANCH  14  21
BRANCH  15  23
ATOM     23  O   UNL     1       5.764   4.274  17.104  0.00  0.00    +0.000 OA
ATOM     24  C   UNL     1       7.096   4.323  17.612  0.00  0.00    +0.000 C 
ENDBRANCH  15  23
BRANCH  18  25
ATOM     25  C   UNL     1       2.085   5.661  20.971  0.00  0.00    +0.000 C 
BRANCH  25  26
ATOM     26  C   UNL     1       1.180   4.479  20.588  0.00  0.00    +0.000 C 
BRANCH  26  27
ATOM     27  N   UNL     1       1.841   3.162  20.425  0.00  0.00    +0.000 NA
ATOM     28  C   UNL     1       1.769   2.344  21.640  0.00  0.00    +0.000 C 
ATOM     29  C   UNL     1       1.158   2.450  19.332  0.00  0.00    +0.000 C 
ENDBRANCH  26  27
ENDBRANCH  25  26
ENDBRANCH  18  25
TORSDOF 6
ENDMDL
MODEL 5
REMARK VINA RESULT:      -6.1      3.849      7.205
REMARK  Name = 
REMARK  11 active torsions:
REMARK  status: ('A' for Active; 'I' for Inactive)
REMARK    1  A    between atoms: C_1  and  O_2
REMARK    2  A    between atoms: O_2  and  C_3
REMARK    3  A    between atoms: C_16  and  O_17
REMARK    4  A    between atoms: O_17  and  C_18
REMARK    5  A    between atoms: C_19  and  O_20
REMARK    6  A    between atoms: O_20  and  C_21
REMARK    7  A    between atoms: N_24  and  C_25
REMARK    8  A    between atoms: C_25  and  C_26
REMARK    9  A    between atoms: C_26  and  N_27
REMARK   10  A    between atoms: N_27  and  C_28
REMARK   11  A    between atoms: N_27  and  C_29
REMARK                            x       y       z     vdW  Elec       q    Type
REMARK                         _______ _______ _______ _____ _____    ______ ____
ROOT
ATOM      1  C   UNL     1       2.753   5.666  19.606  0.00  0.00    +0.000 A 
ATOM      2  C   UNL     1       3.137   6.210  18.391  0.00  0.00    +0.000 A 
ATOM      3  C   UNL     1       2.790   7.522  18.068  0.00  0.00    +0.000 A 
ATOM      4  C   UNL     1       2.041   8.306  18.958  0.00  0.00    +0.000 A 
ATOM      5  C   UNL     1       1.795   9.721  18.556  0.00  0.00    +0.000 A 
ATOM      6  O   UNL     1       2.301  10.128  17.518  0.00  0.00    +0.000 OA
ATOM      7  C   UNL     1       0.974  10.563  19.408  0.00  0.00    +0.000 A 
ATOM      8  C   UNL     1       0.429  10.177  20.607  0.00  0.00    +0.000 A 
ATOM      9  S   UNL     1       0.597   8.609  21.350  0.00  0.00    +0.000 S 
ATOM     10  C   UNL     1       1.597   7.742  20.161  0.00  0.00    +0.000 A 
ATOM     11  C   UNL     1       1.958   6.413  20.473  0.00  0.00    +0.000 A 
ATOM     12  C   UNL     1      -0.259  11.264  21.176  0.00  0.00    +0.000 A 
ATOM     13  C   UNL     1      -0.959  11.438  22.380  0.00  0.00    +0.000 A 
ATOM     14  C   UNL     1      -1.523  12.674  22.709  0.00  0.00    +0.000 A 
ATOM     15  C   UNL     1      -1.433  13.744  21.799  0.00  0.00    +0.000 A 
ATOM     16  C   UNL     1      -0.740  13.578  20.583  0.00  0.00    +0.000 A 
ATOM     17  C   UNL     1      -0.150  12.333  20.294  0.00  0.00    +0.000 A 
ATOM     18  N   UNL     1       0.604  11.894  19.211  0.00  0.00    +0.000 N 
ENDROOT
BRANCH   1  20
ATOM     19  C   UNL     1       4.228   3.846  19.353  0.00  0.00    +0.000 C 
ATOM     20  O   UNL     1       3.091   4.397  20.017  0.00  0.00    +0.000 OA
ENDBRANCH   1  20
BRANCH  14  21
ATOM     21  O   UNL     1      -2.201  12.862  23.894  0.00  0.00    +0.000 OA
ATOM     22  C   UNL     1      -3.545  12.375  23.914  0.00  0.00    +0.000 C 
ENDBRANCH  14  21
BRANCH  15  23
ATOM     23  O   UNL     1      -2.031  14.932  22.161  0.00  0.00    +0.000 OA
ATOM     24  C   UNL     1      -1.168  16.016  22.501  0.00  0.00    +0.000 C 
ENDBRANCH  15  23
BRANCH  18  25
ATOM     25  C   UNL     1       1.008  12.761  18.102  0.00  0.00    +0.000 C 
BRANCH  25  26
ATOM     26  C   UNL     1       2.357  13.461  18.329  0.00  0.00    +0.000 C 
BRANCH  26  27
ATOM     27  N   UNL     1       2.323  14.935  18.483  0.00  0.00    +0.000 NA
ATOM     28  C   UNL     1       2.567  15.362  19.864  0.00  0.00    +0.000 C 
ATOM     29  C   UNL     1       3.374  15.500  17.619  0.00  0.00    +0.000 C 
ENDBRANCH  26  27
ENDBRANCH  25  26
ENDBRANCH  18  25
TORSDOF 6
ENDMDL
MODEL 6
REMARK VINA RESULT:      -6.0      4.245      7.630
REMARK  Name = 
REMARK  11 active torsions:
REMARK  status: ('A' for Active; 'I' for Inactive)
REMARK    1  A    between atoms: C_1  and  O_2
REMARK    2  A    between atoms: O_2  and  C_3
REMARK    3  A    between atoms: C_16  and  O_17
REMARK    4  A    between atoms: O_17  and  C_18
REMARK    5  A    between atoms: C_19  and  O_20
REMARK    6  A    between atoms: O_20  and  C_21
REMARK    7  A    between atoms: N_24  and  C_25
REMARK    8  A    between atoms: C_25  and  C_26
REMARK    9  A    between atoms: C_26  and  N_27
REMARK   10  A    between atoms: N_27  and  C_28
REMARK   11  A    between atoms: N_27  and  C_29
REMARK                            x       y       z     vdW  Elec       q    Type
REMARK                         _______ _______ _______ _____ _____    ______ ____
ROOT
ATOM      1  C   UNL     1       2.295   6.295  20.001  0.00  0.00    +0.000 A 
ATOM      2  C   UNL     1       2.675   6.861  18.795  0.00  0.00    +0.000 A 
ATOM      3  C   UNL     1       2.285   8.162  18.476  0.00  0.00    +0.000 A 
ATOM      4  C   UNL     1       1.496   8.912  19.362  0.00  0.00    +0.000 A 
ATOM      5  C   UNL     1       1.205  10.320  18.966  0.00  0.00    +0.000 A 
ATOM      6  O   UNL     1       1.709  10.753  17.938  0.00  0.00    +0.000 OA
ATOM      7  C   UNL     1       0.342  11.126  19.812  0.00  0.00    +0.000 A 
ATOM      8  C   UNL     1      -0.204  10.711  21.002  0.00  0.00    +0.000 A 
ATOM      9  S   UNL     1       0.011   9.145  21.736  0.00  0.00    +0.000 S 
ATOM     10  C   UNL     1       1.057   8.324  20.555  0.00  0.00    +0.000 A 
ATOM     11  C   UNL     1       1.462   7.006  20.863  0.00  0.00    +0.000 A 
ATOM     12  C   UNL     1      -0.939  11.769  21.569  0.00  0.00    +0.000 A 
ATOM     13  C   UNL     1      -1.660  11.909  22.764  0.00  0.00    +0.000 A 
ATOM     14  C   UNL     1      -2.274  13.121  23.093  0.00  0.00    +0.000 A 
ATOM     15  C   UNL     1      -2.210  14.200  22.192  0.00  0.00    +0.000 A 
ATOM     16  C   UNL     1      -1.495  14.068  20.985  0.00  0.00    +0.000 A 
ATOM     17  C   UNL     1      -0.857  12.847  20.695  0.00  0.00    +0.000 A 
ATOM     18  N   UNL     1      -0.073  12.444  19.619  0.00  0.00    +0.000 N 
ENDROOT
BRANCH   1  20
ATOM     19  C   UNL     1       1.584   4.173  20.738  0.00  0.00    +0.000 C 
ATOM     20  O   UNL     1       2.673   5.036  20.409  0.00  0.00    +0.000 OA
ENDBRANCH   1  20
BRANCH  14  21
ATOM     21  O   UNL     1      -2.973  13.276  24.270  0.00  0.00    +0.000 OA
ATOM     22  C   UNL     1      -4.137  12.455  24.404  0.00  0.00    +0.000 C 
ENDBRANCH  14  21
BRANCH  15  23
ATOM     23  O   UNL     1      -2.856  15.363  22.554  0.00  0.00    +0.000 OA
ATOM     24  C   UNL     1      -2.037  16.472  22.920  0.00  0.00    +0.000 C 
ENDBRANCH  15  23
BRANCH  18  25
ATOM     25  C   UNL     1       0.313  13.333  18.522  0.00  0.00    +0.000 C 
BRANCH  25  26
ATOM     26  C   UNL     1       1.425  14.326  18.898  0.00  0.00    +0.000 C 
BRANCH  26  27
ATOM     27  N   UNL     1       2.769  13.752  19.152  0.00  0.00    +0.000 NA
ATOM     28  C   UNL     1       3.809  14.371  18.324  0.00  0.00    +0.000 C 
ATOM     29  C   UNL     1       3.091  13.981  20.571  0.00  0.00    +0.000 C 
ENDBRANCH  26  27
ENDBRANCH  25  26
ENDBRANCH  18  25
TORSDOF 6
ENDMDL
MODEL 7
REMARK VINA RESULT:      -5.9      2.640      7.825
REMARK  Name = 
REMARK  11 active torsions:
REMARK  status: ('A' for Active; 'I' for Inactive)
REMARK    1  A    between atoms: C_1  and  O_2
REMARK    2  A    between atoms: O_2  and  C_3
REMARK    3  A    between atoms: C_16  and  O_17
REMARK    4  A    between atoms: O_17  and  C_18
REMARK    5  A    between atoms: C_19  and  O_20
REMARK    6  A    between atoms: O_20  and  C_21
REMARK    7  A    between atoms: N_24  and  C_25
REMARK    8  A    between atoms: C_25  and  C_26
REMARK    9  A    between atoms: C_26  and  N_27
REMARK   10  A    between atoms: N_27  and  C_28
REMARK   11  A    between atoms: N_27  and  C_29
REMARK                            x       y       z     vdW  Elec       q    Type
REMARK                         _______ _______ _______ _____ _____    ______ ____
ROOT
ATOM      1  C   UNL     1      -0.205  11.727  20.219  0.00  0.00    +0.000 A 
ATOM      2  C   UNL     1       0.500  12.082  19.080  0.00  0.00    +0.000 A 
ATOM      3  C   UNL     1       1.349  11.162  18.464  0.00  0.00    +0.000 A 
ATOM      4  C   UNL     1       1.510   9.872  18.990  0.00  0.00    +0.000 A 
ATOM      5  C   UNL     1       2.373   8.937  18.210  0.00  0.00    +0.000 A 
ATOM      6  O   UNL     1       2.836   9.324  17.144  0.00  0.00    +0.000 OA
ATOM      7  C   UNL     1       2.628   7.608  18.736  0.00  0.00    +0.000 A 
ATOM      8  C   UNL     1       2.091   7.103  19.895  0.00  0.00    +0.000 A 
ATOM      9  S   UNL     1       1.010   7.944  20.973  0.00  0.00    +0.000 S 
ATOM     10  C   UNL     1       0.848   9.526  20.175  0.00  0.00    +0.000 A 
ATOM     11  C   UNL     1      -0.008  10.469  20.785  0.00  0.00    +0.000 A 
ATOM     12  C   UNL     1       2.515   5.772  20.061  0.00  0.00    +0.000 A 
ATOM     13  C   UNL     1       2.251   4.791  21.029  0.00  0.00    +0.000 A 
ATOM     14  C   UNL     1       2.794   3.508  20.916  0.00  0.00    +0.000 A 
ATOM     15  C   UNL     1       3.658   3.211  19.845  0.00  0.00    +0.000 A 
ATOM     16  C   UNL     1       3.937   4.191  18.872  0.00  0.00    +0.000 A 
ATOM     17  C   UNL     1       3.347   5.463  18.992  0.00  0.00    +0.000 A 
ATOM     18  N   UNL     1       3.414   6.595  18.185  0.00  0.00    +0.000 N 
ENDROOT
BRANCH   1  20
ATOM     19  C   UNL     1      -0.947  12.592  22.281  0.00  0.00    +0.000 C 
ATOM     20  O   UNL     1      -1.092  12.559  20.860  0.00  0.00    +0.000 OA
ENDBRANCH   1  20
BRANCH  14  21
ATOM     21  O   UNL     1       2.532   2.531  21.852  0.00  0.00    +0.000 OA
ATOM     22  C   UNL     1       1.150   2.337  22.163  0.00  0.00    +0.000 C 
ENDBRANCH  14  21
BRANCH  15  23
ATOM     23  O   UNL     1       4.188   1.939  19.797  0.00  0.00    +0.000 OA
ATOM     24  C   UNL     1       3.868   1.146  18.655  0.00  0.00    +0.000 C 
ENDBRANCH  15  23
BRANCH  18  25
ATOM     25  C   UNL     1       4.133   6.639  16.911  0.00  0.00    +0.000 C 
BRANCH  25  26
ATOM     26  C   UNL     1       5.344   5.693  16.856  0.00  0.00    +0.000 C 
BRANCH  26  27
ATOM     27  N   UNL     1       6.674   6.303  17.092  0.00  0.00    +0.000 NA
ATOM     28  C   UNL     1       6.606   7.760  17.236  0.00  0.00    +0.000 C 
ATOM     29  C   UNL     1       7.216   5.727  18.335  0.00  0.00    +0.000 C 
ENDBRANCH  26  27
ENDBRANCH  25  26
ENDBRANCH  18  25
TORSDOF 6
ENDMDL
MODEL 8
REMARK VINA RESULT:      -5.9      4.410      8.334
REMARK  Name = 
REMARK  11 active torsions:
REMARK  status: ('A' for Active; 'I' for Inactive)
REMARK    1  A    between atoms: C_1  and  O_2
REMARK    2  A    between atoms: O_2  and  C_3
REMARK    3  A    between atoms: C_16  and  O_17
REMARK    4  A    between atoms: O_17  and  C_18
REMARK    5  A    between atoms: C_19  and  O_20
REMARK    6  A    between atoms: O_20  and  C_21
REMARK    7  A    between atoms: N_24  and  C_25
REMARK    8  A    between atoms: C_25  and  C_26
REMARK    9  A    between atoms: C_26  and  N_27
REMARK   10  A    between atoms: N_27  and  C_28
REMARK   11  A    between atoms: N_27  and  C_29
REMARK                            x       y       z     vdW  Elec       q    Type
REMARK                         _______ _______ _______ _____ _____    ______ ____
ROOT
ATOM      1  C   UNL     1       2.287   6.862  19.804  0.00  0.00    +0.000 A 
ATOM      2  C   UNL     1       2.578   7.525  18.623  0.00  0.00    +0.000 A 
ATOM      3  C   UNL     1       2.076   8.806  18.394  0.00  0.00    +0.000 A 
ATOM      4  C   UNL     1       1.263   9.438  19.347  0.00  0.00    +0.000 A 
ATOM      5  C   UNL     1       0.848  10.840  19.045  0.00  0.00    +0.000 A 
ATOM      6  O   UNL     1       1.280  11.369  18.029  0.00  0.00    +0.000 OA
ATOM      7  C   UNL     1      -0.045  11.523  19.964  0.00  0.00    +0.000 A 
ATOM      8  C   UNL     1      -0.514  10.999  21.143  0.00  0.00    +0.000 A 
ATOM      9  S   UNL     1      -0.151   9.416  21.776  0.00  0.00    +0.000 S 
ATOM     10  C   UNL     1       0.914   8.751  20.516  0.00  0.00    +0.000 A 
ATOM     11  C   UNL     1       1.432   7.454  20.732  0.00  0.00    +0.000 A 
ATOM     12  C   UNL     1      -1.309  11.961  21.794  0.00  0.00    +0.000 A 
ATOM     13  C   UNL     1      -1.996  11.974  23.017  0.00  0.00    +0.000 A 
ATOM     14  C   UNL     1      -2.690  13.112  23.437  0.00  0.00    +0.000 A 
ATOM     15  C   UNL     1      -2.743  14.243  22.600  0.00  0.00    +0.000 A 
ATOM     16  C   UNL     1      -2.064  14.237  21.366  0.00  0.00    +0.000 A 
ATOM     17  C   UNL     1      -1.343  13.090  20.984  0.00  0.00    +0.000 A 
ATOM     18  N   UNL     1      -0.568  12.813  19.862  0.00  0.00    +0.000 N 
ENDROOT
BRANCH   1  20
ATOM     19  C   UNL     1       1.843   4.774  20.801  0.00  0.00    +0.000 C 
ATOM     20  O   UNL     1       2.776   5.617  20.124  0.00  0.00    +0.000 OA
ENDBRANCH   1  20
BRANCH  14  21
ATOM     21  O   UNL     1      -3.357  13.144  24.642  0.00  0.00    +0.000 OA
ATOM     22  C   UNL     1      -4.583  12.408  24.683  0.00  0.00    +0.000 C 
ENDBRANCH  14  21
BRANCH  15  23
ATOM     23  O   UNL     1      -3.465  15.328  23.050  0.00  0.00    +0.000 OA
ATOM     24  C   UNL     1      -4.722  15.575  22.423  0.00  0.00    +0.000 C 
ENDBRANCH  15  23
BRANCH  18  25
ATOM     25  C   UNL     1      -0.292  13.791  18.809  0.00  0.00    +0.000 C 
BRANCH  25  26
ATOM     26  C   UNL     1       0.916  14.693  19.108  0.00  0.00    +0.000 C 
BRANCH  26  27
ATOM     27  N   UNL     1       0.870  16.069  18.557  0.00  0.00    +0.000 NA
ATOM     28  C   UNL     1      -0.487  16.625  18.548  0.00  0.00    +0.000 C 
ATOM     29  C   UNL     1       1.726  16.918  19.403  0.00  0.00    +0.000 C 
ENDBRANCH  26  27
ENDBRANCH  25  26
ENDBRANCH  18  25
TORSDOF 6
ENDMDL
MODEL 9
REMARK VINA RESULT:      -5.8      4.098      7.822
REMARK  Name = 
REMARK  11 active torsions:
REMARK  status: ('A' for Active; 'I' for Inactive)
REMARK    1  A    between atoms: C_1  and  O_2
REMARK    2  A    between atoms: O_2  and  C_3
REMARK    3  A    between atoms: C_16  and  O_17
REMARK    4  A    between atoms: O_17  and  C_18
REMARK    5  A    between atoms: C_19  and  O_20
REMARK    6  A    between atoms: O_20  and  C_21
REMARK    7  A    between atoms: N_24  and  C_25
REMARK    8  A    between atoms: C_25  and  C_26
REMARK    9  A    between atoms: C_26  and  N_27
REMARK   10  A    between atoms: N_27  and  C_28
REMARK   11  A    between atoms: N_27  and  C_29
REMARK                            x       y       z     vdW  Elec       q    Type
REMARK                         _______ _______ _______ _____ _____    ______ ____
ROOT
ATOM      1  C   UNL     1       2.301   6.192  19.902  0.00  0.00    +0.000 A 
ATOM      2  C   UNL     1       2.656   6.796  18.707  0.00  0.00    +0.000 A 
ATOM      3  C   UNL     1       2.244   8.100  18.430  0.00  0.00    +0.000 A 
ATOM      4  C   UNL     1       1.459   8.814  19.348  0.00  0.00    +0.000 A 
ATOM      5  C   UNL     1       1.142  10.229  18.996  0.00  0.00    +0.000 A 
ATOM      6  O   UNL     1       1.626  10.697  17.973  0.00  0.00    +0.000 OA
ATOM      7  C   UNL     1       0.281  10.999  19.876  0.00  0.00    +0.000 A 
ATOM      8  C   UNL     1      -0.241  10.544  21.062  0.00  0.00    +0.000 A 
ATOM      9  S   UNL     1       0.005   8.961  21.749  0.00  0.00    +0.000 S 
ATOM     10  C   UNL     1       1.045   8.188  20.530  0.00  0.00    +0.000 A 
ATOM     11  C   UNL     1       1.472   6.868  20.795  0.00  0.00    +0.000 A 
ATOM     12  C   UNL     1      -0.981  11.576  21.668  0.00  0.00    +0.000 A 
ATOM     13  C   UNL     1      -1.687  11.672  22.877  0.00  0.00    +0.000 A 
ATOM     14  C   UNL     1      -2.311  12.866  23.249  0.00  0.00    +0.000 A 
ATOM     15  C   UNL     1      -2.275  13.971  22.378  0.00  0.00    +0.000 A 
ATOM     16  C   UNL     1      -1.577  13.882  21.157  0.00  0.00    +0.000 A 
ATOM     17  C   UNL     1      -0.927  12.679  20.824  0.00  0.00    +0.000 A 
ATOM     18  N   UNL     1      -0.153  12.316  19.726  0.00  0.00    +0.000 N 
ENDROOT
BRANCH   1  20
ATOM     19  C   UNL     1       3.827   4.433  19.543  0.00  0.00    +0.000 C 
ATOM     20  O   UNL     1       2.701   4.928  20.269  0.00  0.00    +0.000 OA
ENDBRANCH   1  20
BRANCH  14  21
ATOM     21  O   UNL     1      -2.995  12.980  24.440  0.00  0.00    +0.000 OA
ATOM     22  C   UNL     1      -4.340  12.493  24.422  0.00  0.00    +0.000 C 
ENDBRANCH  14  21
BRANCH  15  23
ATOM     23  O   UNL     1      -2.931  15.115  22.781  0.00  0.00    +0.000 OA
ATOM     24  C   UNL     1      -2.146  16.298  22.920  0.00  0.00    +0.000 C 
ENDBRANCH  15  23
BRANCH  18  25
ATOM     25  C   UNL     1       0.205  13.241  18.649  0.00  0.00    +0.000 C 
BRANCH  25  26
ATOM     26  C   UNL     1       1.473  14.060  18.938  0.00  0.00    +0.000 C 
BRANCH  26  27
ATOM     27  N   UNL     1       1.282  15.506  19.206  0.00  0.00    +0.000 NA
ATOM     28  C   UNL     1       2.300  16.337  18.555  0.00  0.00    +0.000 C 
ATOM     29  C   UNL     1      -0.044  15.886  18.690  0.00  0.00    +0.000 C 
ENDBRANCH  26  27
ENDBRANCH  25  26
ENDBRANCH  18  25
TORSDOF 6
ENDMDL
