MODEL 1
REMARK VINA RESULT:      -8.7      0.000      0.000
REMARK  Name = 
REMARK  4 active torsions:
REMARK  status: ('A' for Active; 'I' for Inactive)
REMARK    1  A    between atoms: C_1  and  C_2
REMARK    2  A    between atoms: C_7  and  C_8
REMARK    3  A    between atoms: N_10  and  C_11
REMARK    4  A    between atoms: C_14  and  N_15
REMARK                            x       y       z     vdW  Elec       q    Type
REMARK                         _______ _______ _______ _____ _____    ______ ____
ROOT
ATOM      1  C   UNL     1       7.923   8.579  17.848  0.00  0.00    +0.000 A 
ATOM      2  C   UNL     1       6.743   8.397  17.126  0.00  0.00    +0.000 A 
ATOM      3  C   UNL     1       6.011   7.199  17.231  0.00  0.00    +0.000 A 
ATOM      4  C   UNL     1       6.424   6.161  18.082  0.00  0.00    +0.000 A 
ATOM      5  C   UNL     1       7.635   6.349  18.779  0.00  0.00    +0.000 A 
ATOM      6 CL   UNL     1       8.389   5.127  19.752  0.00  0.00    +0.000 Cl
ATOM      7  C   UNL     1       8.364   7.539  18.663  0.00  0.00    +0.000 A 
ENDROOT
BRANCH   4   8
ATOM      8  N   UNL     1       5.587   5.025  18.302  0.00  0.00    +0.000 N 
ATOM      9  C   UNL     1       4.775   4.941  19.504  0.00  0.00    +0.000 C 
ATOM     10  C   UNL     1       3.641   4.081  19.082  0.00  0.00    +0.000 A 
ATOM     11  C   UNL     1       2.393   3.910  19.641  0.00  0.00    +0.000 A 
ATOM     12 CL   UNL     1       1.795   4.999  20.825  0.00  0.00    +0.000 Cl
ATOM     13  C   UNL     1       1.588   2.876  19.165  0.00  0.00    +0.000 A 
ATOM     14  C   UNL     1       2.060   2.016  18.156  0.00  0.00    +0.000 A 
ATOM     15  C   UNL     1       3.281   2.273  17.517  0.00  0.00    +0.000 A 
ATOM     16  C   UNL     1       4.022   3.353  17.962  0.00  0.00    +0.000 A 
ATOM     17  C   UNL     1       5.192   4.050  17.374  0.00  0.00    +0.000 C 
ATOM     18  O   UNL     1       5.616   3.817  16.257  0.00  0.00    +0.000 OA
ENDBRANCH   4   8
BRANCH   1  21
ATOM     19  C   UNL     1       9.252  10.480  18.858  0.00  0.00    +0.000 C 
ATOM     20  O   UNL     1       9.050  10.294  20.048  0.00  0.00    +0.000 OA
ATOM     21  N   UNL     1       8.742   9.724  17.822  0.00  0.00    +0.000 N 
ATOM     22  H   UNL     1       9.038  10.072  16.911  0.00  0.00    +0.000 HD
BRANCH  19  29
ATOM     23  C   UNL     1       8.172  12.988  17.425  0.00  0.00    +0.000 C 
ATOM     24  C   UNL     1       9.625  12.770  17.715  0.00  0.00    +0.000 A 
ATOM     25  C   UNL     1      10.554  13.734  17.306  0.00  0.00    +0.000 A 
ATOM     26  C   UNL     1      11.913  13.552  17.545  0.00  0.00    +0.000 A 
ATOM     27  C   UNL     1      12.316  12.401  18.193  0.00  0.00    +0.000 A 
ATOM     28  N   UNL     1      11.465  11.438  18.607  0.00  0.00    +0.000 NA
ATOM     29  C   UNL     1      10.128  11.631  18.361  0.00  0.00    +0.000 A 
ENDBRANCH  19  29
ENDBRANCH   1  21
TORSDOF 3
ENDMDL
MODEL 2
REMARK VINA RESULT:      -8.3      7.565     10.485
REMARK  Name = 
REMARK  4 active torsions:
REMARK  status: ('A' for Active; 'I' for Inactive)
REMARK    1  A    between atoms: C_1  and  C_2
REMARK    2  A    between atoms: C_7  and  C_8
REMARK    3  A    between atoms: N_10  and  C_11
REMARK    4  A    between atoms: C_14  and  N_15
REMARK                            x       y       z     vdW  Elec       q    Type
REMARK                         _______ _______ _______ _____ _____    ______ ____
ROOT
ATOM      1  C   UNL     1       1.492   8.712  19.834  0.00  0.00    +0.000 A 
ATOM      2  C   UNL     1       1.054   9.747  19.007  0.00  0.00    +0.000 A 
ATOM      3  C   UNL     1       0.305  10.818  19.529  0.00  0.00    +0.000 A 
ATOM      4  C   UNL     1      -0.003  10.899  20.897  0.00  0.00    +0.000 A 
ATOM      5  C   UNL     1       0.420   9.829  21.711  0.00  0.00    +0.000 A 
ATOM      6 CL   UNL     1       0.005   9.669  23.388  0.00  0.00    +0.000 Cl
ATOM      7  C   UNL     1       1.157   8.760  21.185  0.00  0.00    +0.000 A 
ENDROOT
BRANCH   4   8
ATOM      8  N   UNL     1      -0.617  12.070  21.437  0.00  0.00    +0.000 N 
ATOM      9  C   UNL     1      -2.003  12.030  21.873  0.00  0.00    +0.000 C 
ATOM     10  C   UNL     1      -2.056  13.088  22.912  0.00  0.00    +0.000 A 
ATOM     11  C   UNL     1      -2.972  13.308  23.919  0.00  0.00    +0.000 A 
ATOM     12 CL   UNL     1      -4.111  12.101  24.359  0.00  0.00    +0.000 Cl
ATOM     13  C   UNL     1      -2.904  14.505  24.631  0.00  0.00    +0.000 A 
ATOM     14  C   UNL     1      -1.935  15.471  24.302  0.00  0.00    +0.000 A 
ATOM     15  C   UNL     1      -0.938  15.186  23.358  0.00  0.00    +0.000 A 
ATOM     16  C   UNL     1      -0.990  13.959  22.723  0.00  0.00    +0.000 A 
ATOM     17  C   UNL     1       0.007  13.242  21.891  0.00  0.00    +0.000 C 
ATOM     18  O   UNL     1       1.153  13.623  21.745  0.00  0.00    +0.000 OA
ENDBRANCH   4   8
BRANCH   1  21
ATOM     19  C   UNL     1       2.195   6.282  19.873  0.00  0.00    +0.000 C 
ATOM     20  O   UNL     1       1.479   5.851  20.764  0.00  0.00    +0.000 OA
ATOM     21  N   UNL     1       2.238   7.589  19.429  0.00  0.00    +0.000 N 
ATOM     22  H   UNL     1       2.919   7.717  18.682  0.00  0.00    +0.000 HD
BRANCH  19  29
ATOM     23  C   UNL     1       1.382   4.331  17.628  0.00  0.00    +0.000 C 
ATOM     24  C   UNL     1       2.794   4.500  18.098  0.00  0.00    +0.000 A 
ATOM     25  C   UNL     1       3.804   3.728  17.511  0.00  0.00    +0.000 A 
ATOM     26  C   UNL     1       5.123   3.849  17.938  0.00  0.00    +0.000 A 
ATOM     27  C   UNL     1       5.406   4.746  18.949  0.00  0.00    +0.000 A 
ATOM     28  N   UNL     1       4.472   5.513  19.552  0.00  0.00    +0.000 NA
ATOM     29  C   UNL     1       3.174   5.380  19.121  0.00  0.00    +0.000 A 
ENDBRANCH  19  29
ENDBRANCH   1  21
TORSDOF 3
ENDMDL
MODEL 3
REMARK VINA RESULT:      -8.2      1.164      1.469
REMARK  Name = 
REMARK  4 active torsions:
REMARK  status: ('A' for Active; 'I' for Inactive)
REMARK    1  A    between atoms: C_1  and  C_2
REMARK    2  A    between atoms: C_7  and  C_8
REMARK    3  A    between atoms: N_10  and  C_11
REMARK    4  A    between atoms: C_14  and  N_15
REMARK                            x       y       z     vdW  Elec       q    Type
REMARK                         _______ _______ _______ _____ _____    ______ ____
ROOT
ATOM      1  C   UNL     1       7.956   8.255  18.098  0.00  0.00    +0.000 A 
ATOM      2  C   UNL     1       8.393   7.109  18.764  0.00  0.00    +0.000 A 
ATOM      3  C   UNL     1       7.551   5.988  18.898  0.00  0.00    +0.000 A 
ATOM      4  C   UNL     1       6.260   5.972  18.346  0.00  0.00    +0.000 A 
ATOM      5  C   UNL     1       5.825   7.150  17.705  0.00  0.00    +0.000 A 
ATOM      6 CL   UNL     1       4.215   7.381  17.100  0.00  0.00    +0.000 Cl
ATOM      7  C   UNL     1       6.662   8.265  17.583  0.00  0.00    +0.000 A 
ENDROOT
BRANCH   4   8
ATOM      8  N   UNL     1       5.484   4.773  18.346  0.00  0.00    +0.000 N 
ATOM      9  C   UNL     1       4.947   4.253  19.592  0.00  0.00    +0.000 C 
ATOM     10  C   UNL     1       3.745   3.503  19.152  0.00  0.00    +0.000 A 
ATOM     11  C   UNL     1       2.644   3.079  19.864  0.00  0.00    +0.000 A 
ATOM     12 CL   UNL     1       2.319   3.687  21.437  0.00  0.00    +0.000 Cl
ATOM     13  C   UNL     1       1.750   2.203  19.249  0.00  0.00    +0.000 A 
ATOM     14  C   UNL     1       1.992   1.747  17.940  0.00  0.00    +0.000 A 
ATOM     15  C   UNL     1       3.049   2.276  17.186  0.00  0.00    +0.000 A 
ATOM     16  C   UNL     1       3.873   3.201  17.802  0.00  0.00    +0.000 A 
ATOM     17  C   UNL     1       4.893   4.126  17.250  0.00  0.00    +0.000 C 
ATOM     18  O   UNL     1       5.068   4.294  16.057  0.00  0.00    +0.000 OA
ENDBRANCH   4   8
BRANCH   1  21
ATOM     19  C   UNL     1       9.200  10.333  18.829  0.00  0.00    +0.000 C 
ATOM     20  O   UNL     1       9.055  10.273  20.040  0.00  0.00    +0.000 OA
ATOM     21  N   UNL     1       8.700   9.435  17.907  0.00  0.00    +0.000 N 
ATOM     22  H   UNL     1       8.939   9.693  16.951  0.00  0.00    +0.000 HD
BRANCH  19  29
ATOM     23  C   UNL     1       7.898  12.705  17.350  0.00  0.00    +0.000 C 
ATOM     24  C   UNL     1       9.379  12.546  17.502  0.00  0.00    +0.000 A 
ATOM     25  C   UNL     1      10.229  13.503  16.935  0.00  0.00    +0.000 A 
ATOM     26  C   UNL     1      11.611  13.373  17.044  0.00  0.00    +0.000 A 
ATOM     27  C   UNL     1      12.116  12.282  17.723  0.00  0.00    +0.000 A 
ATOM     28  N   UNL     1      11.343  11.328  18.286  0.00  0.00    +0.000 NA
ATOM     29  C   UNL     1       9.982  11.469  18.168  0.00  0.00    +0.000 A 
ENDBRANCH  19  29
ENDBRANCH   1  21
TORSDOF 3
ENDMDL
MODEL 4
REMARK VINA RESULT:      -8.0      6.230     10.962
REMARK  Name = 
REMARK  4 active torsions:
REMARK  status: ('A' for Active; 'I' for Inactive)
REMARK    1  A    between atoms: C_1  and  C_2
REMARK    2  A    between atoms: C_7  and  C_8
REMARK    3  A    between atoms: N_10  and  C_11
REMARK    4  A    between atoms: C_14  and  N_15
REMARK                            x       y       z     vdW  Elec       q    Type
REMARK                         _______ _______ _______ _____ _____    ______ ____
ROOT
ATOM      1  C   UNL     1       1.415   8.601  19.659  0.00  0.00    +0.000 A 
ATOM      2  C   UNL     1       1.813   9.295  18.516  0.00  0.00    +0.000 A 
ATOM      3  C   UNL     1       1.679  10.694  18.438  0.00  0.00    +0.000 A 
ATOM      4  C   UNL     1       1.168  11.442  19.512  0.00  0.00    +0.000 A 
ATOM      5  C   UNL     1       0.741  10.721  20.646  0.00  0.00    +0.000 A 
ATOM      6 CL   UNL     1      -0.057  11.445  22.005  0.00  0.00    +0.000 Cl
ATOM      7  C   UNL     1       0.868   9.329  20.714  0.00  0.00    +0.000 A 
ENDROOT
BRANCH   4   8
ATOM      8  N   UNL     1       1.193  12.870  19.481  0.00  0.00    +0.000 N 
ATOM      9  C   UNL     1       2.462  13.575  19.430  0.00  0.00    +0.000 C 
ATOM     10  C   UNL     1       2.109  14.850  18.758  0.00  0.00    +0.000 A 
ATOM     11  C   UNL     1       2.907  15.778  18.123  0.00  0.00    +0.000 A 
ATOM     12 CL   UNL     1       4.528  15.407  17.696  0.00  0.00    +0.000 Cl
ATOM     13  C   UNL     1       2.345  17.001  17.760  0.00  0.00    +0.000 A 
ATOM     14  C   UNL     1       1.001  17.282  18.065  0.00  0.00    +0.000 A 
ATOM     15  C   UNL     1       0.171  16.289  18.603  0.00  0.00    +0.000 A 
ATOM     16  C   UNL     1       0.742  15.060  18.883  0.00  0.00    +0.000 A 
ATOM     17  C   UNL     1       0.133  13.746  19.204  0.00  0.00    +0.000 C 
ATOM     18  O   UNL     1      -1.063  13.529  19.139  0.00  0.00    +0.000 OA
ENDBRANCH   4   8
BRANCH   1  21
ATOM     19  C   UNL     1       2.472   6.310  19.480  0.00  0.00    +0.000 C 
ATOM     20  O   UNL     1       3.490   6.576  18.860  0.00  0.00    +0.000 OA
ATOM     21  N   UNL     1       1.492   7.209  19.852  0.00  0.00    +0.000 N 
ATOM     22  H   UNL     1       0.729   6.758  20.355  0.00  0.00    +0.000 HD
BRANCH  19  29
ATOM     23  C   UNL     1       1.456   4.090  17.597  0.00  0.00    +0.000 C 
ATOM     24  C   UNL     1       1.696   3.880  19.060  0.00  0.00    +0.000 A 
ATOM     25  C   UNL     1       1.432   2.624  19.620  0.00  0.00    +0.000 A 
ATOM     26  C   UNL     1       1.627   2.402  20.981  0.00  0.00    +0.000 A 
ATOM     27  C   UNL     1       2.085   3.449  21.757  0.00  0.00    +0.000 A 
ATOM     28  N   UNL     1       2.352   4.681  21.270  0.00  0.00    +0.000 NA
ATOM     29  C   UNL     1       2.152   4.884  19.927  0.00  0.00    +0.000 A 
ENDBRANCH  19  29
ENDBRANCH   1  21
TORSDOF 3
ENDMDL
MODEL 5
REMARK VINA RESULT:      -8.0      0.873      1.087
REMARK  Name = 
REMARK  4 active torsions:
REMARK  status: ('A' for Active; 'I' for Inactive)
REMARK    1  A    between atoms: C_1  and  C_2
REMARK    2  A    between atoms: C_7  and  C_8
REMARK    3  A    between atoms: N_10  and  C_11
REMARK    4  A    between atoms: C_14  and  N_15
REMARK                            x       y       z     vdW  Elec       q    Type
REMARK                         _______ _______ _______ _____ _____    ______ ____
ROOT
ATOM      1  C   UNL     1       8.158   8.748  18.079  0.00  0.00    +0.000 A 
ATOM      2  C   UNL     1       7.012   8.617  17.294  0.00  0.00    +0.000 A 
ATOM      3  C   UNL     1       6.262   7.426  17.305  0.00  0.00    +0.000 A 
ATOM      4  C   UNL     1       6.622   6.342  18.122  0.00  0.00    +0.000 A 
ATOM      5  C   UNL     1       7.800   6.480  18.884  0.00  0.00    +0.000 A 
ATOM      6 CL   UNL     1       8.492   5.202  19.832  0.00  0.00    +0.000 Cl
ATOM      7  C   UNL     1       8.547   7.664  18.862  0.00  0.00    +0.000 A 
ENDROOT
BRANCH   4   8
ATOM      8  N   UNL     1       5.762   5.208  18.247  0.00  0.00    +0.000 N 
ATOM      9  C   UNL     1       4.885   5.083  19.398  0.00  0.00    +0.000 C 
ATOM     10  C   UNL     1       3.767   4.257  18.879  0.00  0.00    +0.000 A 
ATOM     11  C   UNL     1       2.488   4.077  19.360  0.00  0.00    +0.000 A 
ATOM     12 CL   UNL     1       1.837   5.122  20.557  0.00  0.00    +0.000 Cl
ATOM     13  C   UNL     1       1.700   3.075  18.797  0.00  0.00    +0.000 A 
ATOM     14  C   UNL     1       2.218   2.253  17.779  0.00  0.00    +0.000 A 
ATOM     15  C   UNL     1       3.475   2.522  17.218  0.00  0.00    +0.000 A 
ATOM     16  C   UNL     1       4.201   3.572  17.750  0.00  0.00    +0.000 A 
ATOM     17  C   UNL     1       5.408   4.280  17.257  0.00  0.00    +0.000 C 
ATOM     18  O   UNL     1       5.890   4.090  16.156  0.00  0.00    +0.000 OA
ENDBRANCH   4   8
BRANCH   1  21
ATOM     19  C   UNL     1       9.414  10.612  19.239  0.00  0.00    +0.000 C 
ATOM     20  O   UNL     1       9.105  10.408  20.402  0.00  0.00    +0.000 OA
ATOM     21  N   UNL     1       8.990   9.881  18.147  0.00  0.00    +0.000 N 
ATOM     22  H   UNL     1       9.370  10.242  17.273  0.00  0.00    +0.000 HD
BRANCH  19  29
ATOM     23  C   UNL     1      10.150  12.965  21.091  0.00  0.00    +0.000 C 
ATOM     24  C   UNL     1      10.677  12.822  19.697  0.00  0.00    +0.000 A 
ATOM     25  C   UNL     1      11.533  13.806  19.187  0.00  0.00    +0.000 A 
ATOM     26  C   UNL     1      12.025  13.712  17.889  0.00  0.00    +0.000 A 
ATOM     27  C   UNL     1      11.648  12.626  17.123  0.00  0.00    +0.000 A 
ATOM     28  N   UNL     1      10.824  11.650  17.561  0.00  0.00    +0.000 NA
ATOM     29  C   UNL     1      10.345  11.759  18.844  0.00  0.00    +0.000 A 
ENDBRANCH  19  29
ENDBRANCH   1  21
TORSDOF 3
ENDMDL
MODEL 6
REMARK VINA RESULT:      -7.9      7.962     10.955
REMARK  Name = 
REMARK  4 active torsions:
REMARK  status: ('A' for Active; 'I' for Inactive)
REMARK    1  A    between atoms: C_1  and  C_2
REMARK    2  A    between atoms: C_7  and  C_8
REMARK    3  A    between atoms: N_10  and  C_11
REMARK    4  A    between atoms: C_14  and  N_15
REMARK                            x       y       z     vdW  Elec       q    Type
REMARK                         _______ _______ _______ _____ _____    ______ ____
ROOT
ATOM      1  C   UNL     1       1.231   8.524  21.227  0.00  0.00    +0.000 A 
ATOM      2  C   UNL     1       0.715   8.765  22.501  0.00  0.00    +0.000 A 
ATOM      3  C   UNL     1       0.089   9.988  22.806  0.00  0.00    +0.000 A 
ATOM      4  C   UNL     1      -0.062  10.995  21.838  0.00  0.00    +0.000 A 
ATOM      5  C   UNL     1       0.493  10.747  20.566  0.00  0.00    +0.000 A 
ATOM      6 CL   UNL     1       0.546  11.921  19.291  0.00  0.00    +0.000 Cl
ATOM      7  C   UNL     1       1.123   9.531  20.271  0.00  0.00    +0.000 A 
ENDROOT
BRANCH   4   8
ATOM      8  N   UNL     1      -0.843  12.159  22.115  0.00  0.00    +0.000 N 
ATOM      9  C   UNL     1      -2.241  12.027  22.487  0.00  0.00    +0.000 C 
ATOM     10  C   UNL     1      -2.487  13.242  23.301  0.00  0.00    +0.000 A 
ATOM     11  C   UNL     1      -3.490  13.527  24.203  0.00  0.00    +0.000 A 
ATOM     12 CL   UNL     1      -4.510  12.289  24.813  0.00  0.00    +0.000 Cl
ATOM     13  C   UNL     1      -3.608  14.833  24.675  0.00  0.00    +0.000 A 
ATOM     14  C   UNL     1      -2.736  15.836  24.213  0.00  0.00    +0.000 A 
ATOM     15  C   UNL     1      -1.650  15.510  23.389  0.00  0.00    +0.000 A 
ATOM     16  C   UNL     1      -1.517  14.190  22.998  0.00  0.00    +0.000 A 
ATOM     17  C   UNL     1      -0.389  13.463  22.365  0.00  0.00    +0.000 C 
ATOM     18  O   UNL     1       0.713  13.951  22.202  0.00  0.00    +0.000 OA
ENDBRANCH   4   8
BRANCH   1  21
ATOM     19  C   UNL     1       2.320   6.973  19.552  0.00  0.00    +0.000 C 
ATOM     20  O   UNL     1       2.192   7.619  18.523  0.00  0.00    +0.000 OA
ATOM     21  N   UNL     1       1.881   7.349  20.806  0.00  0.00    +0.000 N 
ATOM     22  H   UNL     1       2.091   6.645  21.512  0.00  0.00    +0.000 HD
BRANCH  19  29
ATOM     23  C   UNL     1       0.936   4.340  20.365  0.00  0.00    +0.000 C 
ATOM     24  C   UNL     1       2.367   4.415  19.929  0.00  0.00    +0.000 A 
ATOM     25  C   UNL     1       3.133   3.243  19.902  0.00  0.00    +0.000 A 
ATOM     26  C   UNL     1       4.470   3.283  19.519  0.00  0.00    +0.000 A 
ATOM     27  C   UNL     1       5.017   4.502  19.168  0.00  0.00    +0.000 A 
ATOM     28  N   UNL     1       4.325   5.663  19.180  0.00  0.00    +0.000 NA
ATOM     29  C   UNL     1       3.008   5.607  19.562  0.00  0.00    +0.000 A 
ENDBRANCH  19  29
ENDBRANCH   1  21
TORSDOF 3
ENDMDL
MODEL 7
REMARK VINA RESULT:      -7.9      7.845     10.557
REMARK  Name = 
REMARK  4 active torsions:
REMARK  status: ('A' for Active; 'I' for Inactive)
REMARK    1  A    between atoms: C_1  and  C_2
REMARK    2  A    between atoms: C_7  and  C_8
REMARK    3  A    between atoms: N_10  and  C_11
REMARK    4  A    between atoms: C_14  and  N_15
REMARK                            x       y       z     vdW  Elec       q    Type
REMARK                         _______ _______ _______ _____ _____    ______ ____
ROOT
ATOM      1  C   UNL     1       1.184   9.013  19.878  0.00  0.00    +0.000 A 
ATOM      2  C   UNL     1       0.837  10.133  19.121  0.00  0.00    +0.000 A 
ATOM      3  C   UNL     1       0.131  11.204  19.699  0.00  0.00    +0.000 A 
ATOM      4  C   UNL     1      -0.225  11.198  21.058  0.00  0.00    +0.000 A 
ATOM      5  C   UNL     1       0.106  10.046  21.799  0.00  0.00    +0.000 A 
ATOM      6 CL   UNL     1      -0.383   9.783  23.443  0.00  0.00    +0.000 Cl
ATOM      7  C   UNL     1       0.800   8.979  21.217  0.00  0.00    +0.000 A 
ENDROOT
BRANCH   4   8
ATOM      8  N   UNL     1      -0.792  12.359  21.666  0.00  0.00    +0.000 N 
ATOM      9  C   UNL     1      -2.180  12.351  22.097  0.00  0.00    +0.000 C 
ATOM     10  C   UNL     1      -2.194  13.345  23.198  0.00  0.00    +0.000 A 
ATOM     11  C   UNL     1      -3.105  13.542  24.214  0.00  0.00    +0.000 A 
ATOM     12 CL   UNL     1      -4.295  12.360  24.578  0.00  0.00    +0.000 Cl
ATOM     13  C   UNL     1      -2.990  14.689  24.998  0.00  0.00    +0.000 A 
ATOM     14  C   UNL     1      -1.980  15.632  24.731  0.00  0.00    +0.000 A 
ATOM     15  C   UNL     1      -0.992  15.364  23.774  0.00  0.00    +0.000 A 
ATOM     16  C   UNL     1      -1.092  14.180  23.065  0.00  0.00    +0.000 A 
ATOM     17  C   UNL     1      -0.122  13.474  22.192  0.00  0.00    +0.000 C 
ATOM     18  O   UNL     1       1.040  13.815  22.073  0.00  0.00    +0.000 OA
ENDBRANCH   4   8
BRANCH   1  21
ATOM     19  C   UNL     1       2.518   7.660  18.208  0.00  0.00    +0.000 C 
ATOM     20  O   UNL     1       2.571   8.442  17.270  0.00  0.00    +0.000 OA
ATOM     21  N   UNL     1       1.880   7.882  19.412  0.00  0.00    +0.000 N 
ATOM     22  H   UNL     1       1.960   7.085  20.041  0.00  0.00    +0.000 HD
BRANCH  19  29
ATOM     23  C   UNL     1       5.334   7.135  17.066  0.00  0.00    +0.000 C 
ATOM     24  C   UNL     1       4.461   6.056  17.628  0.00  0.00    +0.000 A 
ATOM     25  C   UNL     1       4.924   4.734  17.624  0.00  0.00    +0.000 A 
ATOM     26  C   UNL     1       4.129   3.706  18.122  0.00  0.00    +0.000 A 
ATOM     27  C   UNL     1       2.879   4.024  18.616  0.00  0.00    +0.000 A 
ATOM     28  N   UNL     1       2.381   5.279  18.641  0.00  0.00    +0.000 NA
ATOM     29  C   UNL     1       3.177   6.282  18.144  0.00  0.00    +0.000 A 
ENDBRANCH  19  29
ENDBRANCH   1  21
TORSDOF 3
ENDMDL
MODEL 8
REMARK VINA RESULT:      -7.9      5.989     10.343
REMARK  Name = 
REMARK  4 active torsions:
REMARK  status: ('A' for Active; 'I' for Inactive)
REMARK    1  A    between atoms: C_1  and  C_2
REMARK    2  A    between atoms: C_7  and  C_8
REMARK    3  A    between atoms: N_10  and  C_11
REMARK    4  A    between atoms: C_14  and  N_15
REMARK                            x       y       z     vdW  Elec       q    Type
REMARK                         _______ _______ _______ _____ _____    ______ ____
ROOT
ATOM      1  C   UNL     1       2.003   7.993  18.772  0.00  0.00    +0.000 A 
ATOM      2  C   UNL     1       2.229   8.904  17.740  0.00  0.00    +0.000 A 
ATOM      3  C   UNL     1       1.885  10.261  17.888  0.00  0.00    +0.000 A 
ATOM      4  C   UNL     1       1.330  10.750  19.082  0.00  0.00    +0.000 A 
ATOM      5  C   UNL     1       1.079   9.810  20.101  0.00  0.00    +0.000 A 
ATOM      6 CL   UNL     1       0.259  10.188  21.583  0.00  0.00    +0.000 Cl
ATOM      7  C   UNL     1       1.415   8.459  19.946  0.00  0.00    +0.000 A 
ENDROOT
BRANCH   4   8
ATOM      8  N   UNL     1       1.141  12.153  19.275  0.00  0.00    +0.000 N 
ATOM      9  C   UNL     1       2.291  13.033  19.392  0.00  0.00    +0.000 C 
ATOM     10  C   UNL     1       1.765  14.335  18.912  0.00  0.00    +0.000 A 
ATOM     11  C   UNL     1       2.429  15.458  18.466  0.00  0.00    +0.000 A 
ATOM     12 CL   UNL     1       4.096  15.400  18.060  0.00  0.00    +0.000 Cl
ATOM     13  C   UNL     1       1.698  16.630  18.273  0.00  0.00    +0.000 A 
ATOM     14  C   UNL     1       0.320  16.661  18.557  0.00  0.00    +0.000 A 
ATOM     15  C   UNL     1      -0.363  15.484  18.896  0.00  0.00    +0.000 A 
ATOM     16  C   UNL     1       0.379  14.322  19.006  0.00  0.00    +0.000 A 
ATOM     17  C   UNL     1      -0.032  12.899  19.091  0.00  0.00    +0.000 C 
ATOM     18  O   UNL     1      -1.180  12.526  18.938  0.00  0.00    +0.000 OA
ENDBRANCH   4   8
BRANCH   1  21
ATOM     19  C   UNL     1       3.496   5.965  18.530  0.00  0.00    +0.000 C 
ATOM     20  O   UNL     1       4.570   6.498  18.296  0.00  0.00    +0.000 OA
ATOM     21  N   UNL     1       2.297   6.617  18.741  0.00  0.00    +0.000 N 
ATOM     22  H   UNL     1       1.532   5.966  18.910  0.00  0.00    +0.000 HD
BRANCH  19  29
ATOM     23  C   UNL     1       4.601   4.002  16.425  0.00  0.00    +0.000 C 
ATOM     24  C   UNL     1       3.865   3.561  17.653  0.00  0.00    +0.000 A 
ATOM     25  C   UNL     1       3.643   2.194  17.860  0.00  0.00    +0.000 A 
ATOM     26  C   UNL     1       2.947   1.754  18.982  0.00  0.00    +0.000 A 
ATOM     27  C   UNL     1       2.485   2.697  19.879  0.00  0.00    +0.000 A 
ATOM     28  N   UNL     1       2.667   4.027  19.727  0.00  0.00    +0.000 NA
ATOM     29  C   UNL     1       3.354   4.445  18.614  0.00  0.00    +0.000 A 
ENDBRANCH  19  29
ENDBRANCH   1  21
TORSDOF 3
ENDMDL
MODEL 9
REMARK VINA RESULT:      -7.9      3.889     10.188
REMARK  Name = 
REMARK  4 active torsions:
REMARK  status: ('A' for Active; 'I' for Inactive)
REMARK    1  A    between atoms: C_1  and  C_2
REMARK    2  A    between atoms: C_7  and  C_8
REMARK    3  A    between atoms: N_10  and  C_11
REMARK    4  A    between atoms: C_14  and  N_15
REMARK                            x       y       z     vdW  Elec       q    Type
REMARK                         _______ _______ _______ _____ _____    ______ ____
ROOT
ATOM      1  C   UNL     1       8.242   9.329  17.984  0.00  0.00    +0.000 A 
ATOM      2  C   UNL     1       9.165   9.311  19.030  0.00  0.00    +0.000 A 
ATOM      3  C   UNL     1       9.693  10.510  19.546  0.00  0.00    +0.000 A 
ATOM      4  C   UNL     1       9.293  11.760  19.049  0.00  0.00    +0.000 A 
ATOM      5  C   UNL     1       8.384  11.758  17.971  0.00  0.00    +0.000 A 
ATOM      6 CL   UNL     1       7.892  13.188  17.121  0.00  0.00    +0.000 Cl
ATOM      7  C   UNL     1       7.869  10.563  17.455  0.00  0.00    +0.000 A 
ENDROOT
BRANCH   4   8
ATOM      8  N   UNL     1       9.710  12.966  19.691  0.00  0.00    +0.000 N 
ATOM      9  C   UNL     1      10.756  13.783  19.098  0.00  0.00    +0.000 C 
ATOM     10  C   UNL     1      10.443  15.143  19.600  0.00  0.00    +0.000 A 
ATOM     11  C   UNL     1      10.842  16.380  19.141  0.00  0.00    +0.000 A 
ATOM     12 CL   UNL     1      11.563  16.560  17.594  0.00  0.00    +0.000 Cl
ATOM     13  C   UNL     1      10.575  17.500  19.928  0.00  0.00    +0.000 A 
ATOM     14  C   UNL     1       9.937  17.355  21.174  0.00  0.00    +0.000 A 
ATOM     15  C   UNL     1       9.432  16.110  21.574  0.00  0.00    +0.000 A 
ATOM     16  C   UNL     1       9.648  15.032  20.734  0.00  0.00    +0.000 A 
ATOM     17  C   UNL     1       9.056  13.672  20.712  0.00  0.00    +0.000 C 
ATOM     18  O   UNL     1       8.127  13.336  21.423  0.00  0.00    +0.000 OA
ENDBRANCH   4   8
BRANCH   1  21
ATOM     19  C   UNL     1       7.540   6.903  17.836  0.00  0.00    +0.000 C 
ATOM     20  O   UNL     1       7.982   6.472  18.890  0.00  0.00    +0.000 OA
ATOM     21  N   UNL     1       7.651   8.202  17.382  0.00  0.00    +0.000 N 
ATOM     22  H   UNL     1       7.213   8.328  16.471  0.00  0.00    +0.000 HD
BRANCH  19  29
ATOM     23  C   UNL     1       4.668   5.874  18.285  0.00  0.00    +0.000 C 
ATOM     24  C   UNL     1       5.476   5.548  17.067  0.00  0.00    +0.000 A 
ATOM     25  C   UNL     1       4.922   4.722  16.082  0.00  0.00    +0.000 A 
ATOM     26  C   UNL     1       5.653   4.387  14.947  0.00  0.00    +0.000 A 
ATOM     27  C   UNL     1       6.934   4.889  14.820  0.00  0.00    +0.000 A 
ATOM     28  N   UNL     1       7.519   5.687  15.739  0.00  0.00    +0.000 NA
ATOM     29  C   UNL     1       6.785   6.007  16.855  0.00  0.00    +0.000 A 
ENDBRANCH  19  29
ENDBRANCH   1  21
TORSDOF 3
ENDMDL
