MODEL 1
REMARK VINA RESULT:      -9.4      0.000      0.000
REMARK  Name = 
REMARK  6 active torsions:
REMARK  status: ('A' for Active; 'I' for Inactive)
REMARK    1  A    between atoms: C_1  and  C_2
REMARK    2  A    between atoms: C_2  and  C_3
REMARK    3  A    between atoms: C_2  and  C_4
REMARK    4  A    between atoms: N_6  and  C_7
REMARK    5  A    between atoms: C_7  and  C_8
REMARK    6  A    between atoms: C_13  and  C_14
REMARK                            x       y       z     vdW  Elec       q    Type
REMARK                         _______ _______ _______ _____ _____    ______ ____
ROOT
ATOM      1  C   UNL     1       5.771   4.336  14.566  0.00  0.00    +0.000 A 
ATOM      2  C   UNL     1       7.013   4.968  14.708  0.00  0.00    +0.000 A 
ATOM      3  C   UNL     1       7.541   5.209  15.975  0.00  0.00    +0.000 A 
ATOM      4  C   UNL     1       6.831   4.844  17.124  0.00  0.00    +0.000 A 
ATOM      5 CL   UNL     1       7.623   5.137  18.634  0.00  0.00    +0.000 Cl
ATOM      6  C   UNL     1       5.569   4.240  17.007  0.00  0.00    +0.000 A 
ATOM      7  C   UNL     1       5.055   3.985  15.720  0.00  0.00    +0.000 A 
ENDROOT
BRANCH   6   8
ATOM      8  C   UNL     1       4.732   3.824  18.170  0.00  0.00    +0.000 A 
ATOM      9  N   UNL     1       3.513   4.247  18.293  0.00  0.00    +0.000 NA
ATOM     10  C   UNL     1       2.760   3.805  19.397  0.00  0.00    +0.000 A 
ATOM     11  C   UNL     1       1.435   4.225  19.526  0.00  0.00    +0.000 A 
ATOM     12  C   UNL     1       0.648   3.783  20.595  0.00  0.00    +0.000 A 
ATOM     13  C   UNL     1       1.180   2.914  21.549  0.00  0.00    +0.000 A 
ATOM     14  C   UNL     1       2.502   2.490  21.438  0.00  0.00    +0.000 A 
ATOM     15  C   UNL     1       3.278   2.941  20.366  0.00  0.00    +0.000 A 
ATOM     16  C   UNL     1       4.674   2.513  20.211  0.00  0.00    +0.000 A 
ATOM     17  O   UNL     1       5.222   1.758  21.005  0.00  0.00    +0.000 OA
ATOM     18  N   UNL     1       5.321   3.010  19.110  0.00  0.00    +0.000 N 
ATOM     19  H   UNL     1       6.270   2.676  18.991  0.00  0.00    +0.000 HD
ENDBRANCH   6   8
BRANCH   1  20
ATOM     20  C   UNL     1       5.228   4.040  13.191  0.00  0.00    +0.000 C 
BRANCH  20  23
ATOM     21  C   UNL     1       5.451   2.325  11.465  0.00  0.00    +0.000 C 
ATOM     22  O   UNL     1       4.279   2.475  11.130  0.00  0.00    +0.000 OA
ATOM     23  N   UNL     1       6.021   3.058  12.485  0.00  0.00    +0.000 N 
ATOM     24  H   UNL     1       6.943   2.824  12.827  0.00  0.00    +0.000 HD
BRANCH  21  26
ATOM     25  C   UNL     1       7.845   1.682  11.029  0.00  0.00    +0.000 C 
ATOM     26  C   UNL     1       6.379   1.296  10.818  0.00  0.00    +0.000 C 
ATOM     27  C   UNL     1       6.127  -0.104  11.374  0.00  0.00    +0.000 C 
ENDBRANCH  21  26
ENDBRANCH  20  23
ENDBRANCH   1  20
TORSDOF 4
ENDMDL
MODEL 2
REMARK VINA RESULT:      -9.0      4.414      5.950
REMARK  Name = 
REMARK  6 active torsions:
REMARK  status: ('A' for Active; 'I' for Inactive)
REMARK    1  A    between atoms: C_1  and  C_2
REMARK    2  A    between atoms: C_2  and  C_3
REMARK    3  A    between atoms: C_2  and  C_4
REMARK    4  A    between atoms: N_6  and  C_7
REMARK    5  A    between atoms: C_7  and  C_8
REMARK    6  A    between atoms: C_13  and  C_14
REMARK                            x       y       z     vdW  Elec       q    Type
REMARK                         _______ _______ _______ _____ _____    ______ ____
ROOT
ATOM      1  C   UNL     1       5.144   4.571  18.797  0.00  0.00    +0.000 A 
ATOM      2  C   UNL     1       4.615   3.356  19.251  0.00  0.00    +0.000 A 
ATOM      3  C   UNL     1       3.334   3.305  19.798  0.00  0.00    +0.000 A 
ATOM      4  C   UNL     1       2.566   4.467  19.925  0.00  0.00    +0.000 A 
ATOM      5 CL   UNL     1       0.970   4.260  20.558  0.00  0.00    +0.000 Cl
ATOM      6  C   UNL     1       3.089   5.702  19.509  0.00  0.00    +0.000 A 
ATOM      7  C   UNL     1       4.377   5.738  18.939  0.00  0.00    +0.000 A 
ENDROOT
BRANCH   6   8
ATOM      8  C   UNL     1       2.353   6.996  19.610  0.00  0.00    +0.000 A 
ATOM      9  N   UNL     1       1.708   7.308  20.690  0.00  0.00    +0.000 NA
ATOM     10  C   UNL     1       1.050   8.551  20.741  0.00  0.00    +0.000 A 
ATOM     11  C   UNL     1       0.379   8.915  21.909  0.00  0.00    +0.000 A 
ATOM     12  C   UNL     1      -0.262  10.155  22.006  0.00  0.00    +0.000 A 
ATOM     13  C   UNL     1      -0.239  11.046  20.932  0.00  0.00    +0.000 A 
ATOM     14  C   UNL     1       0.421  10.694  19.756  0.00  0.00    +0.000 A 
ATOM     15  C   UNL     1       1.056   9.452  19.672  0.00  0.00    +0.000 A 
ATOM     16  C   UNL     1       1.767   9.047  18.453  0.00  0.00    +0.000 A 
ATOM     17  O   UNL     1       1.831   9.763  17.461  0.00  0.00    +0.000 OA
ATOM     18  N   UNL     1       2.361   7.814  18.503  0.00  0.00    +0.000 N 
ATOM     19  H   UNL     1       2.883   7.562  17.672  0.00  0.00    +0.000 HD
ENDBRANCH   6   8
BRANCH   1  20
ATOM     20  C   UNL     1       6.513   4.610  18.166  0.00  0.00    +0.000 C 
BRANCH  20  23
ATOM     21  C   UNL     1       6.992   4.918  15.790  0.00  0.00    +0.000 C 
ATOM     22  O   UNL     1       7.436   6.043  16.001  0.00  0.00    +0.000 OA
ATOM     23  N   UNL     1       6.506   4.121  16.806  0.00  0.00    +0.000 N 
ATOM     24  H   UNL     1       6.028   3.256  16.590  0.00  0.00    +0.000 HD
BRANCH  21  26
ATOM     25  C   UNL     1       5.441   4.074  13.997  0.00  0.00    +0.000 C 
ATOM     26  C   UNL     1       6.902   4.304  14.393  0.00  0.00    +0.000 C 
ATOM     27  C   UNL     1       7.585   5.190  13.354  0.00  0.00    +0.000 C 
ENDBRANCH  21  26
ENDBRANCH  20  23
ENDBRANCH   1  20
TORSDOF 4
ENDMDL
MODEL 3
REMARK VINA RESULT:      -8.6      4.240      5.337
REMARK  Name = 
REMARK  6 active torsions:
REMARK  status: ('A' for Active; 'I' for Inactive)
REMARK    1  A    between atoms: C_1  and  C_2
REMARK    2  A    between atoms: C_2  and  C_3
REMARK    3  A    between atoms: C_2  and  C_4
REMARK    4  A    between atoms: N_6  and  C_7
REMARK    5  A    between atoms: C_7  and  C_8
REMARK    6  A    between atoms: C_13  and  C_14
REMARK                            x       y       z     vdW  Elec       q    Type
REMARK                         _______ _______ _______ _____ _____    ______ ____
ROOT
ATOM      1  C   UNL     1       4.838   4.537  17.241  0.00  0.00    +0.000 A 
ATOM      2  C   UNL     1       4.325   3.282  17.593  0.00  0.00    +0.000 A 
ATOM      3  C   UNL     1       3.167   3.184  18.363  0.00  0.00    +0.000 A 
ATOM      4  C   UNL     1       2.513   4.334  18.816  0.00  0.00    +0.000 A 
ATOM      5 CL   UNL     1       1.051   4.078  19.706  0.00  0.00    +0.000 Cl
ATOM      6  C   UNL     1       3.027   5.603  18.504  0.00  0.00    +0.000 A 
ATOM      7  C   UNL     1       4.187   5.689  17.708  0.00  0.00    +0.000 A 
ENDROOT
BRANCH   6   8
ATOM      8  C   UNL     1       2.408   6.886  18.947  0.00  0.00    +0.000 A 
ATOM      9  N   UNL     1       1.978   7.029  20.161  0.00  0.00    +0.000 NA
ATOM     10  C   UNL     1       1.423   8.268  20.532  0.00  0.00    +0.000 A 
ATOM     11  C   UNL     1       0.987   8.449  21.846  0.00  0.00    +0.000 A 
ATOM     12  C   UNL     1       0.456   9.677  22.258  0.00  0.00    +0.000 A 
ATOM     13  C   UNL     1       0.356  10.739  21.357  0.00  0.00    +0.000 A 
ATOM     14  C   UNL     1       0.782  10.572  20.041  0.00  0.00    +0.000 A 
ATOM     15  C   UNL     1       1.308   9.340  19.643  0.00  0.00    +0.000 A 
ATOM     16  C   UNL     1       1.773   9.127  18.266  0.00  0.00    +0.000 A 
ATOM     17  O   UNL     1       1.716  10.001  17.410  0.00  0.00    +0.000 OA
ATOM     18  N   UNL     1       2.283   7.882  18.006  0.00  0.00    +0.000 N 
ATOM     19  H   UNL     1       2.638   7.760  17.065  0.00  0.00    +0.000 HD
ENDBRANCH   6   8
BRANCH   1  20
ATOM     20  C   UNL     1       6.065   4.634  16.371  0.00  0.00    +0.000 C 
BRANCH  20  23
ATOM     21  C   UNL     1       6.598   4.336  14.005  0.00  0.00    +0.000 C 
ATOM     22  O   UNL     1       7.335   5.319  14.023  0.00  0.00    +0.000 OA
ATOM     23  N   UNL     1       5.917   3.912  15.127  0.00  0.00    +0.000 N 
ATOM     24  H   UNL     1       5.219   3.184  15.055  0.00  0.00    +0.000 HD
BRANCH  21  26
ATOM     25  C   UNL     1       4.851   3.549  12.374  0.00  0.00    +0.000 C 
ATOM     26  C   UNL     1       6.336   3.512  12.744  0.00  0.00    +0.000 C 
ATOM     27  C   UNL     1       7.174   4.014  11.570  0.00  0.00    +0.000 C 
ENDBRANCH  21  26
ENDBRANCH  20  23
ENDBRANCH   1  20
TORSDOF 4
ENDMDL
MODEL 4
REMARK VINA RESULT:      -8.5      4.817      5.913
REMARK  Name = 
REMARK  6 active torsions:
REMARK  status: ('A' for Active; 'I' for Inactive)
REMARK    1  A    between atoms: C_1  and  C_2
REMARK    2  A    between atoms: C_2  and  C_3
REMARK    3  A    between atoms: C_2  and  C_4
REMARK    4  A    between atoms: N_6  and  C_7
REMARK    5  A    between atoms: C_7  and  C_8
REMARK    6  A    between atoms: C_13  and  C_14
REMARK                            x       y       z     vdW  Elec       q    Type
REMARK                         _______ _______ _______ _____ _____    ______ ____
ROOT
ATOM      1  C   UNL     1       4.415   6.027  17.168  0.00  0.00    +0.000 A 
ATOM      2  C   UNL     1       4.259   4.698  17.580  0.00  0.00    +0.000 A 
ATOM      3  C   UNL     1       3.334   4.370  18.570  0.00  0.00    +0.000 A 
ATOM      4  C   UNL     1       2.564   5.365  19.183  0.00  0.00    +0.000 A 
ATOM      5 CL   UNL     1       1.407   4.821  20.349  0.00  0.00    +0.000 Cl
ATOM      6  C   UNL     1       2.728   6.708  18.811  0.00  0.00    +0.000 A 
ATOM      7  C   UNL     1       3.652   7.024  17.795  0.00  0.00    +0.000 A 
ENDROOT
BRANCH   6   8
ATOM      8  C   UNL     1       1.962   7.839  19.411  0.00  0.00    +0.000 A 
ATOM      9  N   UNL     1       1.524   7.769  20.629  0.00  0.00    +0.000 NA
ATOM     10  C   UNL     1       0.827   8.874  21.153  0.00  0.00    +0.000 A 
ATOM     11  C   UNL     1       0.377   8.827  22.474  0.00  0.00    +0.000 A 
ATOM     12  C   UNL     1      -0.294   9.918  23.038  0.00  0.00    +0.000 A 
ATOM     13  C   UNL     1      -0.522  11.070  22.284  0.00  0.00    +0.000 A 
ATOM     14  C   UNL     1      -0.084  11.131  20.963  0.00  0.00    +0.000 A 
ATOM     15  C   UNL     1       0.583  10.033  20.411  0.00  0.00    +0.000 A 
ATOM     16  C   UNL     1       1.064  10.060  19.024  0.00  0.00    +0.000 A 
ATOM     17  O   UNL     1       0.901  11.027  18.290  0.00  0.00    +0.000 OA
ATOM     18  N   UNL     1       1.717   8.930  18.609  0.00  0.00    +0.000 N 
ATOM     19  H   UNL     1       2.081   8.975  17.664  0.00  0.00    +0.000 HD
ENDBRANCH   6   8
BRANCH   1  20
ATOM     20  C   UNL     1       5.386   6.367  16.065  0.00  0.00    +0.000 C 
BRANCH  20  23
ATOM     21  C   UNL     1       6.604   4.933  14.507  0.00  0.00    +0.000 C 
ATOM     22  O   UNL     1       7.680   5.364  14.914  0.00  0.00    +0.000 OA
ATOM     23  N   UNL     1       5.400   5.371  15.018  0.00  0.00    +0.000 N 
ATOM     24  H   UNL     1       4.531   5.100  14.577  0.00  0.00    +0.000 HD
BRANCH  21  26
ATOM     25  C   UNL     1       5.022   3.662  13.018  0.00  0.00    +0.000 C 
ATOM     26  C   UNL     1       6.489   3.904  13.381  0.00  0.00    +0.000 C 
ATOM     27  C   UNL     1       7.261   4.352  12.142  0.00  0.00    +0.000 C 
ENDBRANCH  21  26
ENDBRANCH  20  23
ENDBRANCH   1  20
TORSDOF 4
ENDMDL
MODEL 5
REMARK VINA RESULT:      -8.4      4.685      5.772
REMARK  Name = 
REMARK  6 active torsions:
REMARK  status: ('A' for Active; 'I' for Inactive)
REMARK    1  A    between atoms: C_1  and  C_2
REMARK    2  A    between atoms: C_2  and  C_3
REMARK    3  A    between atoms: C_2  and  C_4
REMARK    4  A    between atoms: N_6  and  C_7
REMARK    5  A    between atoms: C_7  and  C_8
REMARK    6  A    between atoms: C_13  and  C_14
REMARK                            x       y       z     vdW  Elec       q    Type
REMARK                         _______ _______ _______ _____ _____    ______ ____
ROOT
ATOM      1  C   UNL     1       4.469   5.725  17.185  0.00  0.00    +0.000 A 
ATOM      2  C   UNL     1       4.211   4.409  17.588  0.00  0.00    +0.000 A 
ATOM      3  C   UNL     1       3.229   4.143  18.541  0.00  0.00    +0.000 A 
ATOM      4  C   UNL     1       2.503   5.185  19.127  0.00  0.00    +0.000 A 
ATOM      5 CL   UNL     1       1.269   4.719  20.246  0.00  0.00    +0.000 Cl
ATOM      6  C   UNL     1       2.768   6.515  18.764  0.00  0.00    +0.000 A 
ATOM      7  C   UNL     1       3.749   6.770  17.785  0.00  0.00    +0.000 A 
ENDROOT
BRANCH   6   8
ATOM      8  C   UNL     1       2.056   7.694  19.337  0.00  0.00    +0.000 A 
ATOM      9  N   UNL     1       1.561   8.609  18.564  0.00  0.00    +0.000 NA
ATOM     10  C   UNL     1       0.879   9.688  19.156  0.00  0.00    +0.000 A 
ATOM     11  C   UNL     1       0.312  10.664  18.334  0.00  0.00    +0.000 A 
ATOM     12  C   UNL     1      -0.398  11.736  18.886  0.00  0.00    +0.000 A 
ATOM     13  C   UNL     1      -0.549  11.842  20.270  0.00  0.00    +0.000 A 
ATOM     14  C   UNL     1       0.015  10.879  21.104  0.00  0.00    +0.000 A 
ATOM     15  C   UNL     1       0.724   9.815  20.539  0.00  0.00    +0.000 A 
ATOM     16  C   UNL     1       1.328   8.778  21.384  0.00  0.00    +0.000 A 
ATOM     17  O   UNL     1       1.250   8.796  22.606  0.00  0.00    +0.000 OA
ATOM     18  N   UNL     1       1.981   7.779  20.709  0.00  0.00    +0.000 N 
ATOM     19  H   UNL     1       2.359   7.048  21.299  0.00  0.00    +0.000 HD
ENDBRANCH   6   8
BRANCH   1  20
ATOM     20  C   UNL     1       5.501   6.001  16.122  0.00  0.00    +0.000 C 
BRANCH  20  23
ATOM     21  C   UNL     1       6.598   4.811  14.291  0.00  0.00    +0.000 C 
ATOM     22  O   UNL     1       7.641   5.433  14.480  0.00  0.00    +0.000 OA
ATOM     23  N   UNL     1       5.472   5.022  15.058  0.00  0.00    +0.000 N 
ATOM     24  H   UNL     1       4.592   4.595  14.800  0.00  0.00    +0.000 HD
BRANCH  21  26
ATOM     25  C   UNL     1       4.962   3.645  12.775  0.00  0.00    +0.000 C 
ATOM     26  C   UNL     1       6.433   3.777  13.178  0.00  0.00    +0.000 C 
ATOM     27  C   UNL     1       7.273   4.140  11.955  0.00  0.00    +0.000 C 
ENDBRANCH  21  26
ENDBRANCH  20  23
ENDBRANCH   1  20
TORSDOF 4
ENDMDL
MODEL 6
REMARK VINA RESULT:      -8.4      4.395      5.996
REMARK  Name = 
REMARK  6 active torsions:
REMARK  status: ('A' for Active; 'I' for Inactive)
REMARK    1  A    between atoms: C_1  and  C_2
REMARK    2  A    between atoms: C_2  and  C_3
REMARK    3  A    between atoms: C_2  and  C_4
REMARK    4  A    between atoms: N_6  and  C_7
REMARK    5  A    between atoms: C_7  and  C_8
REMARK    6  A    between atoms: C_13  and  C_14
REMARK                            x       y       z     vdW  Elec       q    Type
REMARK                         _______ _______ _______ _____ _____    ______ ____
ROOT
ATOM      1  C   UNL     1       5.189   4.718  18.931  0.00  0.00    +0.000 A 
ATOM      2  C   UNL     1       4.648   3.462  19.229  0.00  0.00    +0.000 A 
ATOM      3  C   UNL     1       3.336   3.349  19.686  0.00  0.00    +0.000 A 
ATOM      4  C   UNL     1       2.547   4.489  19.876  0.00  0.00    +0.000 A 
ATOM      5 CL   UNL     1       0.917   4.211  20.384  0.00  0.00    +0.000 Cl
ATOM      6  C   UNL     1       3.080   5.762  19.617  0.00  0.00    +0.000 A 
ATOM      7  C   UNL     1       4.401   5.861  19.136  0.00  0.00    +0.000 A 
ENDROOT
BRANCH   6   8
ATOM      8  C   UNL     1       2.323   7.035  19.797  0.00  0.00    +0.000 A 
ATOM      9  N   UNL     1       2.107   7.824  18.792  0.00  0.00    +0.000 NA
ATOM     10  C   UNL     1       1.368   9.002  19.013  0.00  0.00    +0.000 A 
ATOM     11  C   UNL     1       1.099   9.845  17.934  0.00  0.00    +0.000 A 
ATOM     12  C   UNL     1       0.343  11.010  18.110  0.00  0.00    +0.000 A 
ATOM     13  C   UNL     1      -0.153  11.342  19.372  0.00  0.00    +0.000 A 
ATOM     14  C   UNL     1       0.112  10.514  20.460  0.00  0.00    +0.000 A 
ATOM     15  C   UNL     1       0.870   9.355  20.270  0.00  0.00    +0.000 A 
ATOM     16  C   UNL     1       1.167   8.454  21.390  0.00  0.00    +0.000 A 
ATOM     17  O   UNL     1       0.777   8.672  22.531  0.00  0.00    +0.000 OA
ATOM     18  N   UNL     1       1.903   7.344  21.070  0.00  0.00    +0.000 N 
ATOM     19  H   UNL     1       2.067   6.708  21.843  0.00  0.00    +0.000 HD
ENDBRANCH   6   8
BRANCH   1  20
ATOM     20  C   UNL     1       6.594   4.827  18.394  0.00  0.00    +0.000 C 
BRANCH  20  23
ATOM     21  C   UNL     1       6.651   5.084  15.965  0.00  0.00    +0.000 C 
ATOM     22  O   UNL     1       6.477   6.296  16.066  0.00  0.00    +0.000 OA
ATOM     23  N   UNL     1       6.724   4.262  17.070  0.00  0.00    +0.000 N 
ATOM     24  H   UNL     1       6.735   3.257  16.958  0.00  0.00    +0.000 HD
BRANCH  21  26
ATOM     25  C   UNL     1       5.384   4.091  14.031  0.00  0.00    +0.000 C 
ATOM     26  C   UNL     1       6.769   4.366  14.621  0.00  0.00    +0.000 C 
ATOM     27  C   UNL     1       7.601   5.178  13.630  0.00  0.00    +0.000 C 
ENDBRANCH  21  26
ENDBRANCH  20  23
ENDBRANCH   1  20
TORSDOF 4
ENDMDL
MODEL 7
REMARK VINA RESULT:      -8.3      1.450      1.881
REMARK  Name = 
REMARK  6 active torsions:
REMARK  status: ('A' for Active; 'I' for Inactive)
REMARK    1  A    between atoms: C_1  and  C_2
REMARK    2  A    between atoms: C_2  and  C_3
REMARK    3  A    between atoms: C_2  and  C_4
REMARK    4  A    between atoms: N_6  and  C_7
REMARK    5  A    between atoms: C_7  and  C_8
REMARK    6  A    between atoms: C_13  and  C_14
REMARK                            x       y       z     vdW  Elec       q    Type
REMARK                         _______ _______ _______ _____ _____    ______ ____
ROOT
ATOM      1  C   UNL     1       5.764   4.430  14.383  0.00  0.00    +0.000 A 
ATOM      2  C   UNL     1       7.104   4.817  14.507  0.00  0.00    +0.000 A 
ATOM      3  C   UNL     1       7.637   5.126  15.757  0.00  0.00    +0.000 A 
ATOM      4  C   UNL     1       6.838   5.077  16.904  0.00  0.00    +0.000 A 
ATOM      5 CL   UNL     1       7.634   5.419  18.402  0.00  0.00    +0.000 Cl
ATOM      6  C   UNL     1       5.483   4.725  16.801  0.00  0.00    +0.000 A 
ATOM      7  C   UNL     1       4.961   4.396  15.534  0.00  0.00    +0.000 A 
ENDROOT
BRANCH   6   8
ATOM      8  C   UNL     1       4.549   4.653  17.962  0.00  0.00    +0.000 A 
ATOM      9  N   UNL     1       4.347   3.532  18.580  0.00  0.00    +0.000 NA
ATOM     10  C   UNL     1       3.473   3.525  19.684  0.00  0.00    +0.000 A 
ATOM     11  C   UNL     1       3.271   2.332  20.380  0.00  0.00    +0.000 A 
ATOM     12  C   UNL     1       2.432   2.293  21.499  0.00  0.00    +0.000 A 
ATOM     13  C   UNL     1       1.785   3.451  21.934  0.00  0.00    +0.000 A 
ATOM     14  C   UNL     1       1.972   4.648  21.247  0.00  0.00    +0.000 A 
ATOM     15  C   UNL     1       2.812   4.672  20.129  0.00  0.00    +0.000 A 
ATOM     16  C   UNL     1       3.039   5.915  19.381  0.00  0.00    +0.000 A 
ATOM     17  O   UNL     1       2.507   6.975  19.690  0.00  0.00    +0.000 OA
ATOM     18  N   UNL     1       3.896   5.810  18.317  0.00  0.00    +0.000 N 
ATOM     19  H   UNL     1       4.077   6.682  17.834  0.00  0.00    +0.000 HD
ENDBRANCH   6   8
BRANCH   1  20
ATOM     20  C   UNL     1       5.207   4.055  13.033  0.00  0.00    +0.000 C 
BRANCH  20  23
ATOM     21  C   UNL     1       5.442   2.258  11.395  0.00  0.00    +0.000 C 
ATOM     22  O   UNL     1       4.261   2.361  11.077  0.00  0.00    +0.000 OA
ATOM     23  N   UNL     1       6.012   3.058  12.363  0.00  0.00    +0.000 N 
ATOM     24  H   UNL     1       6.946   2.866  12.698  0.00  0.00    +0.000 HD
BRANCH  21  26
ATOM     25  C   UNL     1       7.845   1.631  10.984  0.00  0.00    +0.000 C 
ATOM     26  C   UNL     1       6.384   1.221  10.783  0.00  0.00    +0.000 C 
ATOM     27  C   UNL     1       6.149  -0.164  11.383  0.00  0.00    +0.000 C 
ENDBRANCH  21  26
ENDBRANCH  20  23
ENDBRANCH   1  20
TORSDOF 4
ENDMDL
MODEL 8
REMARK VINA RESULT:      -8.3      1.252      1.686
REMARK  Name = 
REMARK  6 active torsions:
REMARK  status: ('A' for Active; 'I' for Inactive)
REMARK    1  A    between atoms: C_1  and  C_2
REMARK    2  A    between atoms: C_2  and  C_3
REMARK    3  A    between atoms: C_2  and  C_4
REMARK    4  A    between atoms: N_6  and  C_7
REMARK    5  A    between atoms: C_7  and  C_8
REMARK    6  A    between atoms: C_13  and  C_14
REMARK                            x       y       z     vdW  Elec       q    Type
REMARK                         _______ _______ _______ _____ _____    ______ ____
ROOT
ATOM      1  C   UNL     1       6.368   4.218  14.588  0.00  0.00    +0.000 A 
ATOM      2  C   UNL     1       7.282   5.268  14.742  0.00  0.00    +0.000 A 
ATOM      3  C   UNL     1       7.431   5.899  15.976  0.00  0.00    +0.000 A 
ATOM      4  C   UNL     1       6.653   5.510  17.073  0.00  0.00    +0.000 A 
ATOM      5 CL   UNL     1       6.978   6.326  18.564  0.00  0.00    +0.000 Cl
ATOM      6  C   UNL     1       5.706   4.484  16.933  0.00  0.00    +0.000 A 
ATOM      7  C   UNL     1       5.579   3.841  15.685  0.00  0.00    +0.000 A 
ENDROOT
BRANCH   6   8
ATOM      8  C   UNL     1       4.825   4.005  18.038  0.00  0.00    +0.000 A 
ATOM      9  N   UNL     1       3.611   4.445  18.154  0.00  0.00    +0.000 NA
ATOM     10  C   UNL     1       2.816   3.943  19.202  0.00  0.00    +0.000 A 
ATOM     11  C   UNL     1       1.496   4.382  19.321  0.00  0.00    +0.000 A 
ATOM     12  C   UNL     1       0.667   3.883  20.332  0.00  0.00    +0.000 A 
ATOM     13  C   UNL     1       1.152   2.938  21.237  0.00  0.00    +0.000 A 
ATOM     14  C   UNL     1       2.469   2.494  21.135  0.00  0.00    +0.000 A 
ATOM     15  C   UNL     1       3.286   3.002  20.122  0.00  0.00    +0.000 A 
ATOM     16  C   UNL     1       4.678   2.555  19.978  0.00  0.00    +0.000 A 
ATOM     17  O   UNL     1       5.186   1.734  20.732  0.00  0.00    +0.000 OA
ATOM     18  N   UNL     1       5.368   3.115  18.935  0.00  0.00    +0.000 N 
ATOM     19  H   UNL     1       6.313   2.769  18.821  0.00  0.00    +0.000 HD
ENDBRANCH   6   8
BRANCH   1  20
ATOM     20  C   UNL     1       6.246   3.513  13.261  0.00  0.00    +0.000 C 
BRANCH  20  23
ATOM     21  C   UNL     1       4.578   2.976  11.559  0.00  0.00    +0.000 C 
ATOM     22  O   UNL     1       5.270   2.053  11.138  0.00  0.00    +0.000 OA
ATOM     23  N   UNL     1       4.978   3.766  12.616  0.00  0.00    +0.000 N 
ATOM     24  H   UNL     1       4.455   4.597  12.858  0.00  0.00    +0.000 HD
BRANCH  21  26
ATOM     25  C   UNL     1       3.439   4.297   9.745  0.00  0.00    +0.000 C 
ATOM     26  C   UNL     1       3.234   3.362  10.939  0.00  0.00    +0.000 C 
ATOM     27  C   UNL     1       2.451   2.127  10.501  0.00  0.00    +0.000 C 
ENDBRANCH  21  26
ENDBRANCH  20  23
ENDBRANCH   1  20
TORSDOF 4
ENDMDL
MODEL 9
REMARK VINA RESULT:      -8.2      5.360      8.867
REMARK  Name = 
REMARK  6 active torsions:
REMARK  status: ('A' for Active; 'I' for Inactive)
REMARK    1  A    between atoms: C_1  and  C_2
REMARK    2  A    between atoms: C_2  and  C_3
REMARK    3  A    between atoms: C_2  and  C_4
REMARK    4  A    between atoms: N_6  and  C_7
REMARK    5  A    between atoms: C_7  and  C_8
REMARK    6  A    between atoms: C_13  and  C_14
REMARK                            x       y       z     vdW  Elec       q    Type
REMARK                         _______ _______ _______ _____ _____    ______ ____
ROOT
ATOM      1  C   UNL     1       1.234   9.462  19.348  0.00  0.00    +0.000 A 
ATOM      2  C   UNL     1       0.784   9.100  20.624  0.00  0.00    +0.000 A 
ATOM      3  C   UNL     1       1.088   7.845  21.149  0.00  0.00    +0.000 A 
ATOM      4  C   UNL     1       1.826   6.920  20.402  0.00  0.00    +0.000 A 
ATOM      5 CL   UNL     1       2.193   5.424  21.191  0.00  0.00    +0.000 Cl
ATOM      6  C   UNL     1       2.258   7.248  19.108  0.00  0.00    +0.000 A 
ATOM      7  C   UNL     1       1.961   8.527  18.596  0.00  0.00    +0.000 A 
ENDROOT
BRANCH   6   8
ATOM      8  C   UNL     1       3.041   6.329  18.231  0.00  0.00    +0.000 A 
ATOM      9  N   UNL     1       4.201   6.680  17.773  0.00  0.00    +0.000 NA
ATOM     10  C   UNL     1       4.907   5.766  16.969  0.00  0.00    +0.000 A 
ATOM     11  C   UNL     1       6.173   6.116  16.495  0.00  0.00    +0.000 A 
ATOM     12  C   UNL     1       6.916   5.222  15.718  0.00  0.00    +0.000 A 
ATOM     13  C   UNL     1       6.399   3.963  15.405  0.00  0.00    +0.000 A 
ATOM     14  C   UNL     1       5.136   3.600  15.866  0.00  0.00    +0.000 A 
ATOM     15  C   UNL     1       4.403   4.504  16.640  0.00  0.00    +0.000 A 
ATOM     16  C   UNL     1       3.070   4.157  17.148  0.00  0.00    +0.000 A 
ATOM     17  O   UNL     1       2.538   3.078  16.917  0.00  0.00    +0.000 OA
ATOM     18  N   UNL     1       2.463   5.122  17.909  0.00  0.00    +0.000 N 
ATOM     19  H   UNL     1       1.562   4.856  18.288  0.00  0.00    +0.000 HD
ENDBRANCH   6   8
BRANCH   1  20
ATOM     20  C   UNL     1       0.938  10.838  18.806  0.00  0.00    +0.000 C 
BRANCH  20  23
ATOM     21  C   UNL     1      -1.391  11.328  18.255  0.00  0.00    +0.000 C 
ATOM     22  O   UNL     1      -1.589  11.773  19.382  0.00  0.00    +0.000 OA
ATOM     23  N   UNL     1      -0.162  10.836  17.868  0.00  0.00    +0.000 N 
ATOM     24  H   UNL     1      -0.060  10.357  16.984  0.00  0.00    +0.000 HD
BRANCH  21  26
ATOM     25  C   UNL     1      -2.443   9.884  16.482  0.00  0.00    +0.000 C 
ATOM     26  C   UNL     1      -2.483  11.242  17.187  0.00  0.00    +0.000 C 
ATOM     27  C   UNL     1      -3.867  11.471  17.791  0.00  0.00    +0.000 C 
ENDBRANCH  21  26
ENDBRANCH  20  23
ENDBRANCH   1  20
TORSDOF 4
ENDMDL
