MODEL 1
REMARK VINA RESULT:      -8.6      0.000      0.000
REMARK  Name = 
REMARK  5 active torsions:
REMARK  status: ('A' for Active; 'I' for Inactive)
REMARK    1  A    between atoms: N_10  and  C_11
REMARK    2  A    between atoms: C_11  and  C_12
REMARK    3  A    between atoms: C_12  and  C_13
REMARK    4  A    between atoms: N_16  and  C_17
REMARK    5  A    between atoms: C_17  and  C_18
REMARK                            x       y       z     vdW  Elec       q    Type
REMARK                         _______ _______ _______ _____ _____    ______ ____
ROOT
ATOM      1  C   UNL     1       8.217   7.616  18.413  0.00  0.00    +0.000 C 
ENDROOT
BRANCH   1  11
ATOM      2  O   UNL     1       7.574   5.339  20.208  0.00  0.00    +0.000 OA
ATOM      3  C   UNL     1       6.921   5.629  19.223  0.00  0.00    +0.000 C 
ATOM      4  C   UNL     1       5.720   4.921  18.766  0.00  0.00    +0.000 A 
ATOM      5  C   UNL     1       5.117   3.798  19.301  0.00  0.00    +0.000 A 
ATOM      6  C   UNL     1       4.021   3.333  18.604  0.00  0.00    +0.000 A 
ATOM      7  C   UNL     1       3.546   3.962  17.462  0.00  0.00    +0.000 A 
ATOM      8  C   UNL     1       4.129   5.098  16.939  0.00  0.00    +0.000 A 
ATOM      9  C   UNL     1       5.243   5.572  17.612  0.00  0.00    +0.000 A 
ATOM     10  C   UNL     1       6.116   6.738  17.290  0.00  0.00    +0.000 C 
ATOM     11  N   UNL     1       7.141   6.652  18.316  0.00  0.00    +0.000 N 
ATOM     12  O   UNL     1       2.472   3.315  16.931  0.00  0.00    +0.000 OA
ATOM     13  C   UNL     1       2.402   2.157  17.786  0.00  0.00    +0.000 C 
ATOM     14  O   UNL     1       3.293   2.226  18.919  0.00  0.00    +0.000 OA
ENDBRANCH   1  11
BRANCH   1  15
ATOM     15  C   UNL     1       7.860   8.958  17.760  0.00  0.00    +0.000 C 
BRANCH  15  16
ATOM     16  C   UNL     1       8.893  10.043  18.088  0.00  0.00    +0.000 C 
ATOM     17  C   UNL     1       8.462  11.446  17.662  0.00  0.00    +0.000 C 
ATOM     18  C   UNL     1       9.629  12.411  17.867  0.00  0.00    +0.000 C 
ATOM     19  N   UNL     1      10.107  12.452  19.259  0.00  0.00    +0.000 NA
ATOM     20  C   UNL     1      10.370  11.115  19.815  0.00  0.00    +0.000 C 
ATOM     21  C   UNL     1       9.222  10.120  19.585  0.00  0.00    +0.000 C 
BRANCH  19  22
ATOM     22  C   UNL     1      11.330  13.287  19.359  0.00  0.00    +0.000 C 
BRANCH  22  23
ATOM     23  C   UNL     1      11.161  14.641  18.699  0.00  0.00    +0.000 A 
ATOM     24  C   UNL     1      12.001  15.011  17.640  0.00  0.00    +0.000 A 
ATOM     25  C   UNL     1      11.983  16.314  17.149  0.00  0.00    +0.000 A 
ATOM     26  C   UNL     1      11.112  17.255  17.696  0.00  0.00    +0.000 A 
ATOM     27  C   UNL     1      10.237  16.886  18.716  0.00  0.00    +0.000 A 
ATOM     28  C   UNL     1      10.255  15.582  19.214  0.00  0.00    +0.000 A 
ENDBRANCH  22  23
ENDBRANCH  19  22
ENDBRANCH  15  16
ENDBRANCH   1  15
TORSDOF 5
ENDMDL
MODEL 2
REMARK VINA RESULT:      -8.5      1.027      1.562
REMARK  Name = 
REMARK  5 active torsions:
REMARK  status: ('A' for Active; 'I' for Inactive)
REMARK    1  A    between atoms: N_10  and  C_11
REMARK    2  A    between atoms: C_11  and  C_12
REMARK    3  A    between atoms: C_12  and  C_13
REMARK    4  A    between atoms: N_16  and  C_17
REMARK    5  A    between atoms: C_17  and  C_18
REMARK                            x       y       z     vdW  Elec       q    Type
REMARK                         _______ _______ _______ _____ _____    ______ ____
ROOT
ATOM      1  C   UNL     1       8.249   7.586  18.230  0.00  0.00    +0.000 C 
ENDROOT
BRANCH   1  11
ATOM      2  O   UNL     1       7.556   5.430  20.151  0.00  0.00    +0.000 OA
ATOM      3  C   UNL     1       6.918   5.668  19.141  0.00  0.00    +0.000 C 
ATOM      4  C   UNL     1       5.714   4.947  18.713  0.00  0.00    +0.000 A 
ATOM      5  C   UNL     1       5.090   3.866  19.307  0.00  0.00    +0.000 A 
ATOM      6  C   UNL     1       3.997   3.373  18.626  0.00  0.00    +0.000 A 
ATOM      7  C   UNL     1       3.545   3.938  17.442  0.00  0.00    +0.000 A 
ATOM      8  C   UNL     1       4.148   5.033  16.858  0.00  0.00    +0.000 A 
ATOM      9  C   UNL     1       5.259   5.533  17.516  0.00  0.00    +0.000 A 
ATOM     10  C   UNL     1       6.151   6.667  17.136  0.00  0.00    +0.000 C 
ATOM     11  N   UNL     1       7.162   6.631  18.178  0.00  0.00    +0.000 N 
ATOM     12  O   UNL     1       2.468   3.273  16.937  0.00  0.00    +0.000 OA
ATOM     13  C   UNL     1       2.373   2.169  17.859  0.00  0.00    +0.000 C 
ATOM     14  O   UNL     1       3.252   2.296  18.997  0.00  0.00    +0.000 OA
ENDBRANCH   1  11
BRANCH   1  15
ATOM     15  C   UNL     1       7.808   8.998  17.822  0.00  0.00    +0.000 C 
BRANCH  15  16
ATOM     16  C   UNL     1       8.872  10.048  18.162  0.00  0.00    +0.000 C 
ATOM     17  C   UNL     1       8.469  11.472  17.781  0.00  0.00    +0.000 C 
ATOM     18  C   UNL     1       9.663  12.402  17.993  0.00  0.00    +0.000 C 
ATOM     19  N   UNL     1      10.164  12.393  19.377  0.00  0.00    +0.000 NA
ATOM     20  C   UNL     1      10.402  11.036  19.893  0.00  0.00    +0.000 C 
ATOM     21  C   UNL     1       9.226  10.076  19.655  0.00  0.00    +0.000 C 
BRANCH  19  22
ATOM     22  C   UNL     1      11.408  13.195  19.479  0.00  0.00    +0.000 C 
BRANCH  22  23
ATOM     23  C   UNL     1      11.203  14.488  20.244  0.00  0.00    +0.000 A 
ATOM     24  C   UNL     1      10.403  14.499  21.395  0.00  0.00    +0.000 A 
ATOM     25  C   UNL     1      10.055  15.704  21.999  0.00  0.00    +0.000 A 
ATOM     26  C   UNL     1      10.517  16.910  21.473  0.00  0.00    +0.000 A 
ATOM     27  C   UNL     1      11.353  16.909  20.357  0.00  0.00    +0.000 A 
ATOM     28  C   UNL     1      11.701  15.703  19.746  0.00  0.00    +0.000 A 
ENDBRANCH  22  23
ENDBRANCH  19  22
ENDBRANCH  15  16
ENDBRANCH   1  15
TORSDOF 5
ENDMDL
MODEL 3
REMARK VINA RESULT:      -8.1      1.024      1.863
REMARK  Name = 
REMARK  5 active torsions:
REMARK  status: ('A' for Active; 'I' for Inactive)
REMARK    1  A    between atoms: N_10  and  C_11
REMARK    2  A    between atoms: C_11  and  C_12
REMARK    3  A    between atoms: C_12  and  C_13
REMARK    4  A    between atoms: N_16  and  C_17
REMARK    5  A    between atoms: C_17  and  C_18
REMARK                            x       y       z     vdW  Elec       q    Type
REMARK                         _______ _______ _______ _____ _____    ______ ____
ROOT
ATOM      1  C   UNL     1       8.031   7.490  17.842  0.00  0.00    +0.000 C 
ENDROOT
BRANCH   1  11
ATOM      2  O   UNL     1       5.990   6.762  15.811  0.00  0.00    +0.000 OA
ATOM      3  C   UNL     1       6.070   6.240  16.908  0.00  0.00    +0.000 C 
ATOM      4  C   UNL     1       5.191   5.175  17.403  0.00  0.00    +0.000 A 
ATOM      5  C   UNL     1       4.106   4.585  16.782  0.00  0.00    +0.000 A 
ATOM      6  C   UNL     1       3.441   3.640  17.536  0.00  0.00    +0.000 A 
ATOM      7  C   UNL     1       3.849   3.293  18.816  0.00  0.00    +0.000 A 
ATOM      8  C   UNL     1       4.947   3.859  19.431  0.00  0.00    +0.000 A 
ATOM      9  C   UNL     1       5.618   4.825  18.698  0.00  0.00    +0.000 A 
ATOM     10  C   UNL     1       6.802   5.647  19.081  0.00  0.00    +0.000 C 
ATOM     11  N   UNL     1       6.966   6.514  17.927  0.00  0.00    +0.000 N 
ATOM     12  O   UNL     1       3.032   2.358  19.377  0.00  0.00    +0.000 OA
ATOM     13  C   UNL     1       2.009   2.250  18.367  0.00  0.00    +0.000 C 
ATOM     14  O   UNL     1       2.328   2.959  17.151  0.00  0.00    +0.000 OA
ENDBRANCH   1  11
BRANCH   1  15
ATOM     15  C   UNL     1       7.503   8.930  17.799  0.00  0.00    +0.000 C 
BRANCH  15  16
ATOM     16  C   UNL     1       8.627   9.955  17.993  0.00  0.00    +0.000 C 
ATOM     17  C   UNL     1       8.216  11.386  17.649  0.00  0.00    +0.000 C 
ATOM     18  C   UNL     1       9.448  12.286  17.699  0.00  0.00    +0.000 C 
ATOM     19  N   UNL     1      10.118  12.276  19.011  0.00  0.00    +0.000 NA
ATOM     20  C   UNL     1      10.385  10.917  19.509  0.00  0.00    +0.000 C 
ATOM     21  C   UNL     1       9.165   9.987  19.430  0.00  0.00    +0.000 C 
BRANCH  19  22
ATOM     22  C   UNL     1      11.385  13.047  18.948  0.00  0.00    +0.000 C 
BRANCH  22  23
ATOM     23  C   UNL     1      11.164  14.492  18.551  0.00  0.00    +0.000 A 
ATOM     24  C   UNL     1      10.446  15.348  19.397  0.00  0.00    +0.000 A 
ATOM     25  C   UNL     1      10.076  16.619  18.965  0.00  0.00    +0.000 A 
ATOM     26  C   UNL     1      10.437  17.058  17.692  0.00  0.00    +0.000 A 
ATOM     27  C   UNL     1      11.194  16.234  16.859  0.00  0.00    +0.000 A 
ATOM     28  C   UNL     1      11.562  14.958  17.287  0.00  0.00    +0.000 A 
ENDBRANCH  22  23
ENDBRANCH  19  22
ENDBRANCH  15  16
ENDBRANCH   1  15
TORSDOF 5
ENDMDL
MODEL 4
REMARK VINA RESULT:      -8.1      7.953     10.981
REMARK  Name = 
REMARK  5 active torsions:
REMARK  status: ('A' for Active; 'I' for Inactive)
REMARK    1  A    between atoms: N_10  and  C_11
REMARK    2  A    between atoms: C_11  and  C_12
REMARK    3  A    between atoms: C_12  and  C_13
REMARK    4  A    between atoms: N_16  and  C_17
REMARK    5  A    between atoms: C_17  and  C_18
REMARK                            x       y       z     vdW  Elec       q    Type
REMARK                         _______ _______ _______ _____ _____    ______ ____
ROOT
ATOM      1  C   UNL     1       1.381   9.911  19.056  0.00  0.00    +0.000 C 
ENDROOT
BRANCH   1  11
ATOM      2  O   UNL     1       2.800   8.323  16.986  0.00  0.00    +0.000 OA
ATOM      3  C   UNL     1       2.488   7.886  18.079  0.00  0.00    +0.000 C 
ATOM      4  C   UNL     1       2.763   6.525  18.555  0.00  0.00    +0.000 A 
ATOM      5  C   UNL     1       3.369   5.477  17.888  0.00  0.00    +0.000 A 
ATOM      6  C   UNL     1       3.432   4.293  18.593  0.00  0.00    +0.000 A 
ATOM      7  C   UNL     1       2.943   4.172  19.886  0.00  0.00    +0.000 A 
ATOM      8  C   UNL     1       2.361   5.222  20.566  0.00  0.00    +0.000 A 
ATOM      9  C   UNL     1       2.270   6.416  19.869  0.00  0.00    +0.000 A 
ATOM     10  C   UNL     1       1.669   7.714  20.295  0.00  0.00    +0.000 C 
ATOM     11  N   UNL     1       1.816   8.531  19.103  0.00  0.00    +0.000 N 
ATOM     12  O   UNL     1       3.092   2.909  20.373  0.00  0.00    +0.000 OA
ATOM     13  C   UNL     1       3.611   2.229  19.212  0.00  0.00    +0.000 C 
ATOM     14  O   UNL     1       3.946   3.121  18.129  0.00  0.00    +0.000 OA
ENDBRANCH   1  11
BRANCH   1  15
ATOM     15  C   UNL     1       0.148  10.165  19.933  0.00  0.00    +0.000 C 
BRANCH  15  16
ATOM     16  C   UNL     1      -1.120  10.354  19.093  0.00  0.00    +0.000 C 
ATOM     17  C   UNL     1      -1.588  11.806  19.009  0.00  0.00    +0.000 C 
ATOM     18  C   UNL     1      -2.946  11.854  18.310  0.00  0.00    +0.000 C 
ATOM     19  N   UNL     1      -2.920  11.274  16.957  0.00  0.00    +0.000 NA
ATOM     20  C   UNL     1      -2.306   9.937  16.917  0.00  0.00    +0.000 C 
ATOM     21  C   UNL     1      -0.957   9.861  17.648  0.00  0.00    +0.000 C 
BRANCH  19  22
ATOM     22  C   UNL     1      -4.292  11.214  16.396  0.00  0.00    +0.000 C 
BRANCH  22  23
ATOM     23  C   UNL     1      -5.352  11.561  17.422  0.00  0.00    +0.000 A 
ATOM     24  C   UNL     1      -5.735  10.611  18.379  0.00  0.00    +0.000 A 
ATOM     25  C   UNL     1      -6.831  10.846  19.205  0.00  0.00    +0.000 A 
ATOM     26  C   UNL     1      -7.544  12.039  19.099  0.00  0.00    +0.000 A 
ATOM     27  C   UNL     1      -7.144  13.012  18.185  0.00  0.00    +0.000 A 
ATOM     28  C   UNL     1      -6.048  12.779  17.351  0.00  0.00    +0.000 A 
ENDBRANCH  22  23
ENDBRANCH  19  22
ENDBRANCH  15  16
ENDBRANCH   1  15
TORSDOF 5
ENDMDL
MODEL 5
REMARK VINA RESULT:      -8.0      3.489     11.050
REMARK  Name = 
REMARK  5 active torsions:
REMARK  status: ('A' for Active; 'I' for Inactive)
REMARK    1  A    between atoms: N_10  and  C_11
REMARK    2  A    between atoms: C_11  and  C_12
REMARK    3  A    between atoms: C_12  and  C_13
REMARK    4  A    between atoms: N_16  and  C_17
REMARK    5  A    between atoms: C_17  and  C_18
REMARK                            x       y       z     vdW  Elec       q    Type
REMARK                         _______ _______ _______ _____ _____    ______ ____
ROOT
ATOM      1  C   UNL     1       8.306   8.889  18.814  0.00  0.00    +0.000 C 
ENDROOT
BRANCH   1  11
ATOM      2  O   UNL     1       9.162  10.671  21.031  0.00  0.00    +0.000 OA
ATOM      3  C   UNL     1       9.428  10.872  19.860  0.00  0.00    +0.000 C 
ATOM      4  C   UNL     1      10.211  12.005  19.353  0.00  0.00    +0.000 A 
ATOM      5  C   UNL     1      10.757  13.065  20.052  0.00  0.00    +0.000 A 
ATOM      6  C   UNL     1      11.396  14.010  19.276  0.00  0.00    +0.000 A 
ATOM      7  C   UNL     1      11.502  13.891  17.898  0.00  0.00    +0.000 A 
ATOM      8  C   UNL     1      10.981  12.821  17.198  0.00  0.00    +0.000 A 
ATOM      9  C   UNL     1      10.318  11.869  17.956  0.00  0.00    +0.000 A 
ATOM     10  C   UNL     1       9.616  10.630  17.511  0.00  0.00    +0.000 C 
ATOM     11  N   UNL     1       9.068  10.119  18.755  0.00  0.00    +0.000 N 
ATOM     12  O   UNL     1      12.153  14.950  17.341  0.00  0.00    +0.000 OA
ATOM     13  C   UNL     1      12.333  15.795  18.495  0.00  0.00    +0.000 C 
ATOM     14  O   UNL     1      11.974  15.154  19.736  0.00  0.00    +0.000 OA
ENDBRANCH   1  11
BRANCH   1  15
ATOM     15  C   UNL     1       8.197   8.204  17.446  0.00  0.00    +0.000 C 
BRANCH  15  16
ATOM     16  C   UNL     1       7.271   6.982  17.494  0.00  0.00    +0.000 C 
ATOM     17  C   UNL     1       7.440   6.136  18.755  0.00  0.00    +0.000 C 
ATOM     18  C   UNL     1       6.612   4.859  18.615  0.00  0.00    +0.000 C 
ATOM     19  N   UNL     1       5.181   5.121  18.395  0.00  0.00    +0.000 NA
ATOM     20  C   UNL     1       4.933   6.081  17.307  0.00  0.00    +0.000 C 
ATOM     21  C   UNL     1       5.785   7.355  17.411  0.00  0.00    +0.000 C 
BRANCH  19  22
ATOM     22  C   UNL     1       4.462   3.852  18.117  0.00  0.00    +0.000 C 
BRANCH  22  23
ATOM     23  C   UNL     1       3.338   3.597  19.101  0.00  0.00    +0.000 A 
ATOM     24  C   UNL     1       2.200   4.415  19.089  0.00  0.00    +0.000 A 
ATOM     25  C   UNL     1       1.248   4.313  20.100  0.00  0.00    +0.000 A 
ATOM     26  C   UNL     1       1.411   3.379  21.122  0.00  0.00    +0.000 A 
ATOM     27  C   UNL     1       2.513   2.525  21.117  0.00  0.00    +0.000 A 
ATOM     28  C   UNL     1       3.471   2.627  20.108  0.00  0.00    +0.000 A 
ENDBRANCH  22  23
ENDBRANCH  19  22
ENDBRANCH  15  16
ENDBRANCH   1  15
TORSDOF 5
ENDMDL
MODEL 6
REMARK VINA RESULT:      -8.0      7.289     10.356
REMARK  Name = 
REMARK  5 active torsions:
REMARK  status: ('A' for Active; 'I' for Inactive)
REMARK    1  A    between atoms: N_10  and  C_11
REMARK    2  A    between atoms: C_11  and  C_12
REMARK    3  A    between atoms: C_12  and  C_13
REMARK    4  A    between atoms: N_16  and  C_17
REMARK    5  A    between atoms: C_17  and  C_18
REMARK                            x       y       z     vdW  Elec       q    Type
REMARK                         _______ _______ _______ _____ _____    ______ ____
ROOT
ATOM      1  C   UNL     1       1.863   8.327  18.553  0.00  0.00    +0.000 C 
ENDROOT
BRANCH   1  11
ATOM      2  O   UNL     1      -0.225  10.231  17.637  0.00  0.00    +0.000 OA
ATOM      3  C   UNL     1       0.066  10.056  18.807  0.00  0.00    +0.000 C 
ATOM      4  C   UNL     1      -0.561  10.738  19.945  0.00  0.00    +0.000 A 
ATOM      5  C   UNL     1      -1.542  11.712  19.941  0.00  0.00    +0.000 A 
ATOM      6  C   UNL     1      -1.887  12.201  21.184  0.00  0.00    +0.000 A 
ATOM      7  C   UNL     1      -1.306  11.731  22.353  0.00  0.00    +0.000 A 
ATOM      8  C   UNL     1      -0.345  10.740  22.365  0.00  0.00    +0.000 A 
ATOM      9  C   UNL     1       0.030  10.248  21.125  0.00  0.00    +0.000 A 
ATOM     10  C   UNL     1       1.054   9.217  20.789  0.00  0.00    +0.000 C 
ATOM     11  N   UNL     1       1.026   9.211  19.337  0.00  0.00    +0.000 N 
ATOM     12  O   UNL     1      -1.783  12.374  23.456  0.00  0.00    +0.000 OA
ATOM     13  C   UNL     1      -2.627  13.371  22.845  0.00  0.00    +0.000 C 
ATOM     14  O   UNL     1      -2.796  13.186  21.424  0.00  0.00    +0.000 OA
ENDBRANCH   1  11
BRANCH   1  15
ATOM     15  C   UNL     1       2.309   7.091  19.345  0.00  0.00    +0.000 C 
BRANCH  15  16
ATOM     16  C   UNL     1       3.358   6.274  18.581  0.00  0.00    +0.000 C 
ATOM     17  C   UNL     1       2.787   5.037  17.891  0.00  0.00    +0.000 C 
ATOM     18  C   UNL     1       3.936   4.206  17.322  0.00  0.00    +0.000 C 
ATOM     19  N   UNL     1       4.769   4.953  16.365  0.00  0.00    +0.000 NA
ATOM     20  C   UNL     1       5.212   6.257  16.885  0.00  0.00    +0.000 C 
ATOM     21  C   UNL     1       4.076   7.090  17.497  0.00  0.00    +0.000 C 
BRANCH  19  22
ATOM     22  C   UNL     1       5.948   4.144  15.968  0.00  0.00    +0.000 C 
BRANCH  22  23
ATOM     23  C   UNL     1       6.278   4.287  14.496  0.00  0.00    +0.000 A 
ATOM     24  C   UNL     1       5.596   3.512  13.548  0.00  0.00    +0.000 A 
ATOM     25  C   UNL     1       6.013   3.495  12.219  0.00  0.00    +0.000 A 
ATOM     26  C   UNL     1       7.102   4.267  11.819  0.00  0.00    +0.000 A 
ATOM     27  C   UNL     1       7.759   5.079  12.742  0.00  0.00    +0.000 A 
ATOM     28  C   UNL     1       7.347   5.096  14.075  0.00  0.00    +0.000 A 
ENDBRANCH  22  23
ENDBRANCH  19  22
ENDBRANCH  15  16
ENDBRANCH   1  15
TORSDOF 5
ENDMDL
MODEL 7
REMARK VINA RESULT:      -8.0      1.509      2.124
REMARK  Name = 
REMARK  5 active torsions:
REMARK  status: ('A' for Active; 'I' for Inactive)
REMARK    1  A    between atoms: N_10  and  C_11
REMARK    2  A    between atoms: C_11  and  C_12
REMARK    3  A    between atoms: C_12  and  C_13
REMARK    4  A    between atoms: N_16  and  C_17
REMARK    5  A    between atoms: C_17  and  C_18
REMARK                            x       y       z     vdW  Elec       q    Type
REMARK                         _______ _______ _______ _____ _____    ______ ____
ROOT
ATOM      1  C   UNL     1       7.975   7.453  17.585  0.00  0.00    +0.000 C 
ENDROOT
BRANCH   1  11
ATOM      2  O   UNL     1       5.891   6.652  15.627  0.00  0.00    +0.000 OA
ATOM      3  C   UNL     1       5.995   6.169  16.739  0.00  0.00    +0.000 C 
ATOM      4  C   UNL     1       5.129   5.121  17.291  0.00  0.00    +0.000 A 
ATOM      5  C   UNL     1       4.032   4.509  16.715  0.00  0.00    +0.000 A 
ATOM      6  C   UNL     1       3.385   3.591  17.517  0.00  0.00    +0.000 A 
ATOM      7  C   UNL     1       3.821   3.289  18.799  0.00  0.00    +0.000 A 
ATOM      8  C   UNL     1       4.932   3.878  19.369  0.00  0.00    +0.000 A 
ATOM      9  C   UNL     1       5.585   4.818  18.588  0.00  0.00    +0.000 A 
ATOM     10  C   UNL     1       6.776   5.654  18.915  0.00  0.00    +0.000 C 
ATOM     11  N   UNL     1       6.913   6.480  17.729  0.00  0.00    +0.000 N 
ATOM     12  O   UNL     1       3.018   2.374  19.410  0.00  0.00    +0.000 OA
ATOM     13  C   UNL     1       1.974   2.229  18.427  0.00  0.00    +0.000 C 
ATOM     14  O   UNL     1       2.265   2.895  17.181  0.00  0.00    +0.000 OA
ENDBRANCH   1  11
BRANCH   1  15
ATOM     15  C   UNL     1       7.467   8.895  17.715  0.00  0.00    +0.000 C 
BRANCH  15  16
ATOM     16  C   UNL     1       8.606   9.874  18.024  0.00  0.00    +0.000 C 
ATOM     17  C   UNL     1       8.282  11.323  17.662  0.00  0.00    +0.000 C 
ATOM     18  C   UNL     1       9.538  12.175  17.837  0.00  0.00    +0.000 C 
ATOM     19  N   UNL     1      10.083  12.127  19.204  0.00  0.00    +0.000 NA
ATOM     20  C   UNL     1      10.252  10.754  19.707  0.00  0.00    +0.000 C 
ATOM     21  C   UNL     1       9.011   9.871  19.504  0.00  0.00    +0.000 C 
BRANCH  19  22
ATOM     22  C   UNL     1      11.378  12.848  19.268  0.00  0.00    +0.000 C 
BRANCH  22  23
ATOM     23  C   UNL     1      11.269  14.168  20.004  0.00  0.00    +0.000 A 
ATOM     24  C   UNL     1      12.110  15.234  19.656  0.00  0.00    +0.000 A 
ATOM     25  C   UNL     1      12.152  16.384  20.440  0.00  0.00    +0.000 A 
ATOM     26  C   UNL     1      11.339  16.491  21.568  0.00  0.00    +0.000 A 
ATOM     27  C   UNL     1      10.463  15.458  21.896  0.00  0.00    +0.000 A 
ATOM     28  C   UNL     1      10.421  14.302  21.116  0.00  0.00    +0.000 A 
ENDBRANCH  22  23
ENDBRANCH  19  22
ENDBRANCH  15  16
ENDBRANCH   1  15
TORSDOF 5
ENDMDL
MODEL 8
REMARK VINA RESULT:      -8.0      6.590      8.295
REMARK  Name = 
REMARK  5 active torsions:
REMARK  status: ('A' for Active; 'I' for Inactive)
REMARK    1  A    between atoms: N_10  and  C_11
REMARK    2  A    between atoms: C_11  and  C_12
REMARK    3  A    between atoms: C_12  and  C_13
REMARK    4  A    between atoms: N_16  and  C_17
REMARK    5  A    between atoms: C_17  and  C_18
REMARK                            x       y       z     vdW  Elec       q    Type
REMARK                         _______ _______ _______ _____ _____    ______ ____
ROOT
ATOM      1  C   UNL     1       4.422   3.967  19.905  0.00  0.00    +0.000 C 
ENDROOT
BRANCH   1  11
ATOM      2  O   UNL     1       3.689   2.635  17.353  0.00  0.00    +0.000 OA
ATOM      3  C   UNL     1       4.562   3.478  17.450  0.00  0.00    +0.000 C 
ATOM      4  C   UNL     1       5.381   3.979  16.340  0.00  0.00    +0.000 A 
ATOM      5  C   UNL     1       5.374   3.593  15.013  0.00  0.00    +0.000 A 
ATOM      6  C   UNL     1       6.312   4.217  14.217  0.00  0.00    +0.000 A 
ATOM      7  C   UNL     1       7.183   5.178  14.711  0.00  0.00    +0.000 A 
ATOM      8  C   UNL     1       7.176   5.585  16.029  0.00  0.00    +0.000 A 
ATOM      9  C   UNL     1       6.255   4.957  16.851  0.00  0.00    +0.000 A 
ATOM     10  C   UNL     1       6.019   5.134  18.313  0.00  0.00    +0.000 C 
ATOM     11  N   UNL     1       4.991   4.145  18.585  0.00  0.00    +0.000 N 
ATOM     12  O   UNL     1       8.033   5.639  13.751  0.00  0.00    +0.000 OA
ATOM     13  C   UNL     1       7.685   4.782  12.646  0.00  0.00    +0.000 C 
ATOM     14  O   UNL     1       6.516   3.973  12.893  0.00  0.00    +0.000 OA
ENDBRANCH   1  11
BRANCH   1  15
ATOM     15  C   UNL     1       2.946   4.380  19.966  0.00  0.00    +0.000 C 
BRANCH  15  16
ATOM     16  C   UNL     1       2.762   5.878  19.695  0.00  0.00    +0.000 C 
ATOM     17  C   UNL     1       2.367   6.196  18.254  0.00  0.00    +0.000 C 
ATOM     18  C   UNL     1       2.391   7.710  18.051  0.00  0.00    +0.000 C 
ATOM     19  N   UNL     1       1.493   8.429  18.969  0.00  0.00    +0.000 NA
ATOM     20  C   UNL     1       1.679   8.041  20.376  0.00  0.00    +0.000 C 
ATOM     21  C   UNL     1       1.696   6.520  20.594  0.00  0.00    +0.000 C 
BRANCH  19  22
ATOM     22  C   UNL     1       1.676   9.895  18.824  0.00  0.00    +0.000 C 
BRANCH  22  23
ATOM     23  C   UNL     1       0.363  10.624  18.619  0.00  0.00    +0.000 A 
ATOM     24  C   UNL     1      -0.727   9.953  18.048  0.00  0.00    +0.000 A 
ATOM     25  C   UNL     1      -1.874  10.655  17.684  0.00  0.00    +0.000 A 
ATOM     26  C   UNL     1      -1.953  12.029  17.905  0.00  0.00    +0.000 A 
ATOM     27  C   UNL     1      -0.895  12.699  18.517  0.00  0.00    +0.000 A 
ATOM     28  C   UNL     1       0.258  12.001  18.879  0.00  0.00    +0.000 A 
ENDBRANCH  22  23
ENDBRANCH  19  22
ENDBRANCH  15  16
ENDBRANCH   1  15
TORSDOF 5
ENDMDL
MODEL 9
REMARK VINA RESULT:      -8.0      8.007     10.073
REMARK  Name = 
REMARK  5 active torsions:
REMARK  status: ('A' for Active; 'I' for Inactive)
REMARK    1  A    between atoms: N_10  and  C_11
REMARK    2  A    between atoms: C_11  and  C_12
REMARK    3  A    between atoms: C_12  and  C_13
REMARK    4  A    between atoms: N_16  and  C_17
REMARK    5  A    between atoms: C_17  and  C_18
REMARK                            x       y       z     vdW  Elec       q    Type
REMARK                         _______ _______ _______ _____ _____    ______ ____
ROOT
ATOM      1  C   UNL     1       1.259   7.717  20.011  0.00  0.00    +0.000 C 
ENDROOT
BRANCH   1  11
ATOM      2  O   UNL     1       2.360   8.727  17.444  0.00  0.00    +0.000 OA
ATOM      3  C   UNL     1       2.774   7.734  18.015  0.00  0.00    +0.000 C 
ATOM      4  C   UNL     1       3.875   6.886  17.544  0.00  0.00    +0.000 A 
ATOM      5  C   UNL     1       4.622   6.996  16.386  0.00  0.00    +0.000 A 
ATOM      6  C   UNL     1       5.559   6.001  16.197  0.00  0.00    +0.000 A 
ATOM      7  C   UNL     1       5.752   4.979  17.116  0.00  0.00    +0.000 A 
ATOM      8  C   UNL     1       5.027   4.880  18.286  0.00  0.00    +0.000 A 
ATOM      9  C   UNL     1       4.067   5.858  18.486  0.00  0.00    +0.000 A 
ATOM     10  C   UNL     1       3.100   6.016  19.612  0.00  0.00    +0.000 C 
ATOM     11  N   UNL     1       2.325   7.172  19.198  0.00  0.00    +0.000 N 
ATOM     12  O   UNL     1       6.711   4.101  16.710  0.00  0.00    +0.000 OA
ATOM     13  C   UNL     1       7.008   4.611  15.395  0.00  0.00    +0.000 C 
ATOM     14  O   UNL     1       6.379   5.880  15.117  0.00  0.00    +0.000 OA
ENDBRANCH   1  11
BRANCH   1  15
ATOM     15  C   UNL     1       1.747   8.155  21.398  0.00  0.00    +0.000 C 
BRANCH  15  16
ATOM     16  C   UNL     1       1.003   9.400  21.897  0.00  0.00    +0.000 C 
ATOM     17  C   UNL     1       0.651  10.389  20.786  0.00  0.00    +0.000 C 
ATOM     18  C   UNL     1       0.083  11.661  21.411  0.00  0.00    +0.000 C 
ATOM     19  N   UNL     1      -1.111  11.416  22.237  0.00  0.00    +0.000 NA
ATOM     20  C   UNL     1      -0.917  10.337  23.219  0.00  0.00    +0.000 C 
ATOM     21  C   UNL     1      -0.311   9.061  22.615  0.00  0.00    +0.000 C 
BRANCH  19  22
ATOM     22  C   UNL     1      -1.520  12.661  22.933  0.00  0.00    +0.000 C 
BRANCH  22  23
ATOM     23  C   UNL     1      -3.025  12.837  22.966  0.00  0.00    +0.000 A 
ATOM     24  C   UNL     1      -3.709  12.776  24.188  0.00  0.00    +0.000 A 
ATOM     25  C   UNL     1      -5.101  12.750  24.215  0.00  0.00    +0.000 A 
ATOM     26  C   UNL     1      -5.826  12.804  23.026  0.00  0.00    +0.000 A 
ATOM     27  C   UNL     1      -5.157  12.915  21.807  0.00  0.00    +0.000 A 
ATOM     28  C   UNL     1      -3.762  12.937  21.775  0.00  0.00    +0.000 A 
ENDBRANCH  22  23
ENDBRANCH  19  22
ENDBRANCH  15  16
ENDBRANCH   1  15
TORSDOF 5
ENDMDL
