MODEL 1
REMARK VINA RESULT:      -7.4      0.000      0.000
REMARK  Name = 
REMARK  8 active torsions:
REMARK  status: ('A' for Active; 'I' for Inactive)
REMARK    1  A    between atoms: C_1  and  C_2
REMARK    2  A    between atoms: C_4  and  C_5
REMARK    3  A    between atoms: C_11  and  N_12
REMARK    4  A    between atoms: N_12  and  C_13
REMARK    5  A    between atoms: C_13  and  C_14
REMARK    6  A    between atoms: C_14  and  C_15
REMARK    7  A    between atoms: C_15  and  N_16
REMARK    8  A    between atoms: C_23  and  C_24
REMARK                            x       y       z     vdW  Elec       q    Type
REMARK                         _______ _______ _______ _____ _____    ______ ____
ROOT
ATOM      1  C   UNL     1       1.535   3.232  21.728  0.00  0.00    +0.000 C 
ATOM      2  C   UNL     1       2.410   3.438  20.519  0.00  0.00    +0.000 A 
ATOM      3  C   UNL     1       2.172   2.644  19.363  0.00  0.00    +0.000 A 
ATOM      4  C   UNL     1       2.932   2.771  18.181  0.00  0.00    +0.000 A 
ATOM      5  C   UNL     1       2.687   1.936  16.972  0.00  0.00    +0.000 C 
ATOM      6  C   UNL     1       3.893   3.772  18.362  0.00  0.00    +0.000 A 
ATOM      7  C   UNL     1       4.124   4.555  19.531  0.00  0.00    +0.000 A 
ATOM      8  N   UNL     1       3.372   4.402  20.652  0.00  0.00    +0.000 NA
ATOM      9  N   UNL     1       5.130   5.414  19.373  0.00  0.00    +0.000 NA
ATOM     10  N   UNL     1       5.548   5.213  18.088  0.00  0.00    +0.000 N 
ATOM     11  C   UNL     1       6.570   5.919  17.402  0.00  0.00    +0.000 A 
ATOM     12  C   UNL     1       6.821   5.600  16.122  0.00  0.00    +0.000 A 
ATOM     13  C   UNL     1       6.013   4.497  15.526  0.00  0.00    +0.000 A 
ATOM     14  C   UNL     1       6.338   4.103  14.106  0.00  0.00    +0.000 C 
ATOM     15  N   UNL     1       5.065   3.847  16.136  0.00  0.00    +0.000 NA
ATOM     16  C   UNL     1       4.810   4.207  17.434  0.00  0.00    +0.000 A 
ENDROOT
BRANCH  11  17
ATOM     17  N   UNL     1       7.291   6.901  18.102  0.00  0.00    +0.000 N 
ATOM     18  H   UNL     1       6.824   7.120  18.989  0.00  0.00    +0.000 HD
BRANCH  17  19
ATOM     19  C   UNL     1       7.851   8.092  17.459  0.00  0.00    +0.000 C 
BRANCH  19  20
ATOM     20  C   UNL     1       8.497   9.015  18.501  0.00  0.00    +0.000 C 
BRANCH  20  21
ATOM     21  C   UNL     1       8.800  10.416  17.942  0.00  0.00    +0.000 C 
BRANCH  21  22
ATOM     22  N   UNL     1       9.757  11.147  18.770  0.00  0.00    +0.000 NA
ATOM     23  C   UNL     1      10.120  12.475  18.232  0.00  0.00    +0.000 C 
ATOM     24  C   UNL     1      11.245  13.079  19.090  0.00  0.00    +0.000 C 
ATOM     25  O   UNL     1      10.853  13.202  20.466  0.00  0.00    +0.000 OA
ATOM     26  C   UNL     1      10.442  11.929  20.987  0.00  0.00    +0.000 C 
ATOM     27  C   UNL     1       9.291  11.335  20.158  0.00  0.00    +0.000 C 
ENDBRANCH  21  22
ENDBRANCH  20  21
ENDBRANCH  19  20
ENDBRANCH  17  19
ENDBRANCH  11  17
TORSDOF 5
ENDMDL
MODEL 2
REMARK VINA RESULT:      -7.2      5.118      7.393
REMARK  Name = 
REMARK  8 active torsions:
REMARK  status: ('A' for Active; 'I' for Inactive)
REMARK    1  A    between atoms: C_1  and  C_2
REMARK    2  A    between atoms: C_4  and  C_5
REMARK    3  A    between atoms: C_11  and  N_12
REMARK    4  A    between atoms: N_12  and  C_13
REMARK    5  A    between atoms: C_13  and  C_14
REMARK    6  A    between atoms: C_14  and  C_15
REMARK    7  A    between atoms: C_15  and  N_16
REMARK    8  A    between atoms: C_23  and  C_24
REMARK                            x       y       z     vdW  Elec       q    Type
REMARK                         _______ _______ _______ _____ _____    ______ ____
ROOT
ATOM      1  C   UNL     1       7.160   5.200  14.128  0.00  0.00    +0.000 C 
ATOM      2  C   UNL     1       6.128   5.119  15.223  0.00  0.00    +0.000 A 
ATOM      3  C   UNL     1       5.774   3.839  15.733  0.00  0.00    +0.000 A 
ATOM      4  C   UNL     1       4.827   3.664  16.763  0.00  0.00    +0.000 A 
ATOM      5  C   UNL     1       4.453   2.324  17.293  0.00  0.00    +0.000 C 
ATOM      6  C   UNL     1       4.346   4.917  17.159  0.00  0.00    +0.000 A 
ATOM      7  C   UNL     1       4.705   6.193  16.632  0.00  0.00    +0.000 A 
ATOM      8  N   UNL     1       5.622   6.321  15.637  0.00  0.00    +0.000 NA
ATOM      9  N   UNL     1       4.048   7.188  17.225  0.00  0.00    +0.000 NA
ATOM     10  N   UNL     1       3.271   6.568  18.163  0.00  0.00    +0.000 N 
ATOM     11  C   UNL     1       2.411   7.190  19.105  0.00  0.00    +0.000 A 
ATOM     12  C   UNL     1       1.746   6.412  19.976  0.00  0.00    +0.000 A 
ATOM     13  C   UNL     1       1.947   4.938  19.861  0.00  0.00    +0.000 A 
ATOM     14  C   UNL     1       1.153   4.066  20.803  0.00  0.00    +0.000 C 
ATOM     15  N   UNL     1       2.740   4.353  19.011  0.00  0.00    +0.000 NA
ATOM     16  C   UNL     1       3.427   5.168  18.150  0.00  0.00    +0.000 A 
ENDROOT
BRANCH  11  17
ATOM     17  N   UNL     1       2.274   8.587  19.068  0.00  0.00    +0.000 N 
ATOM     18  H   UNL     1       2.209   8.963  20.020  0.00  0.00    +0.000 HD
BRANCH  17  19
ATOM     19  C   UNL     1       1.384   9.279  18.133  0.00  0.00    +0.000 C 
BRANCH  19  20
ATOM     20  C   UNL     1       1.104  10.710  18.613  0.00  0.00    +0.000 C 
BRANCH  20  21
ATOM     21  C   UNL     1      -0.288  10.857  19.250  0.00  0.00    +0.000 C 
BRANCH  21  22
ATOM     22  N   UNL     1      -0.227  10.909  20.709  0.00  0.00    +0.000 NA
ATOM     23  C   UNL     1      -1.296  11.722  21.324  0.00  0.00    +0.000 C 
ATOM     24  C   UNL     1      -1.039  11.839  22.837  0.00  0.00    +0.000 C 
ATOM     25  O   UNL     1      -0.985  10.549  23.464  0.00  0.00    +0.000 OA
ATOM     26  C   UNL     1       0.011   9.726  22.840  0.00  0.00    +0.000 C 
ATOM     27  C   UNL     1      -0.260   9.572  21.334  0.00  0.00    +0.000 C 
ENDBRANCH  21  22
ENDBRANCH  20  21
ENDBRANCH  19  20
ENDBRANCH  17  19
ENDBRANCH  11  17
TORSDOF 5
ENDMDL
MODEL 3
REMARK VINA RESULT:      -7.2      5.288      7.487
REMARK  Name = 
REMARK  8 active torsions:
REMARK  status: ('A' for Active; 'I' for Inactive)
REMARK    1  A    between atoms: C_1  and  C_2
REMARK    2  A    between atoms: C_4  and  C_5
REMARK    3  A    between atoms: C_11  and  N_12
REMARK    4  A    between atoms: N_12  and  C_13
REMARK    5  A    between atoms: C_13  and  C_14
REMARK    6  A    between atoms: C_14  and  C_15
REMARK    7  A    between atoms: C_15  and  N_16
REMARK    8  A    between atoms: C_23  and  C_24
REMARK                            x       y       z     vdW  Elec       q    Type
REMARK                         _______ _______ _______ _____ _____    ______ ____
ROOT
ATOM      1  C   UNL     1       6.371   5.289  14.545  0.00  0.00    +0.000 C 
ATOM      2  C   UNL     1       5.470   5.006  15.718  0.00  0.00    +0.000 A 
ATOM      3  C   UNL     1       5.202   3.651  16.061  0.00  0.00    +0.000 A 
ATOM      4  C   UNL     1       4.380   3.288  17.147  0.00  0.00    +0.000 A 
ATOM      5  C   UNL     1       4.095   1.869  17.502  0.00  0.00    +0.000 C 
ATOM      6  C   UNL     1       3.920   4.448  17.780  0.00  0.00    +0.000 A 
ATOM      7  C   UNL     1       4.191   5.800  17.419  0.00  0.00    +0.000 A 
ATOM      8  N   UNL     1       4.988   6.111  16.364  0.00  0.00    +0.000 NA
ATOM      9  N   UNL     1       3.583   6.670  18.226  0.00  0.00    +0.000 NA
ATOM     10  N   UNL     1       2.929   5.887  19.135  0.00  0.00    +0.000 N 
ATOM     11  C   UNL     1       2.167   6.328  20.248  0.00  0.00    +0.000 A 
ATOM     12  C   UNL     1       1.620   5.404  21.056  0.00  0.00    +0.000 A 
ATOM     13  C   UNL     1       1.837   3.972  20.695  0.00  0.00    +0.000 A 
ATOM     14  C   UNL     1       1.171   2.939  21.571  0.00  0.00    +0.000 C 
ATOM     15  N   UNL     1       2.542   3.552  19.685  0.00  0.00    +0.000 NA
ATOM     16  C   UNL     1       3.111   4.512  18.890  0.00  0.00    +0.000 A 
ENDROOT
BRANCH  11  17
ATOM     17  N   UNL     1       1.998   7.709  20.441  0.00  0.00    +0.000 N 
ATOM     18  H   UNL     1       2.824   8.107  20.902  0.00  0.00    +0.000 HD
BRANCH  17  19
ATOM     19  C   UNL     1       0.750   8.302  20.924  0.00  0.00    +0.000 C 
BRANCH  19  20
ATOM     20  C   UNL     1       0.998   9.121  22.197  0.00  0.00    +0.000 C 
BRANCH  20  21
ATOM     21  C   UNL     1      -0.289   9.751  22.755  0.00  0.00    +0.000 C 
BRANCH  21  22
ATOM     22  N   UNL     1      -0.257  11.212  22.710  0.00  0.00    +0.000 NA
ATOM     23  C   UNL     1       0.069  11.762  21.378  0.00  0.00    +0.000 C 
ATOM     24  C   UNL     1       0.235  13.288  21.485  0.00  0.00    +0.000 C 
ATOM     25  O   UNL     1      -0.953  13.913  21.993  0.00  0.00    +0.000 OA
ATOM     26  C   UNL     1      -1.317  13.349  23.262  0.00  0.00    +0.000 C 
ATOM     27  C   UNL     1      -1.521  11.829  23.155  0.00  0.00    +0.000 C 
ENDBRANCH  21  22
ENDBRANCH  20  21
ENDBRANCH  19  20
ENDBRANCH  17  19
ENDBRANCH  11  17
TORSDOF 5
ENDMDL
MODEL 4
REMARK VINA RESULT:      -7.1      5.489      7.892
REMARK  Name = 
REMARK  8 active torsions:
REMARK  status: ('A' for Active; 'I' for Inactive)
REMARK    1  A    between atoms: C_1  and  C_2
REMARK    2  A    between atoms: C_4  and  C_5
REMARK    3  A    between atoms: C_11  and  N_12
REMARK    4  A    between atoms: N_12  and  C_13
REMARK    5  A    between atoms: C_13  and  C_14
REMARK    6  A    between atoms: C_14  and  C_15
REMARK    7  A    between atoms: C_15  and  N_16
REMARK    8  A    between atoms: C_23  and  C_24
REMARK                            x       y       z     vdW  Elec       q    Type
REMARK                         _______ _______ _______ _____ _____    ______ ____
ROOT
ATOM      1  C   UNL     1       6.603   5.267  14.529  0.00  0.00    +0.000 C 
ATOM      2  C   UNL     1       5.651   5.018  15.669  0.00  0.00    +0.000 A 
ATOM      3  C   UNL     1       5.308   3.675  15.990  0.00  0.00    +0.000 A 
ATOM      4  C   UNL     1       4.433   3.344  17.045  0.00  0.00    +0.000 A 
ATOM      5  C   UNL     1       4.069   1.938  17.378  0.00  0.00    +0.000 C 
ATOM      6  C   UNL     1       4.008   4.519  17.673  0.00  0.00    +0.000 A 
ATOM      7  C   UNL     1       4.355   5.860  17.334  0.00  0.00    +0.000 A 
ATOM      8  N   UNL     1       5.201   6.141  16.309  0.00  0.00    +0.000 NA
ATOM      9  N   UNL     1       3.763   6.751  18.128  0.00  0.00    +0.000 NA
ATOM     10  N   UNL     1       3.042   5.994  19.007  0.00  0.00    +0.000 N 
ATOM     11  C   UNL     1       2.264   6.462  20.099  0.00  0.00    +0.000 A 
ATOM     12  C   UNL     1       1.647   5.559  20.879  0.00  0.00    +0.000 A 
ATOM     13  C   UNL     1       1.808   4.122  20.513  0.00  0.00    +0.000 A 
ATOM     14  C   UNL     1       1.065   3.116  21.357  0.00  0.00    +0.000 C 
ATOM     15  N   UNL     1       2.526   3.676  19.523  0.00  0.00    +0.000 NA
ATOM     16  C   UNL     1       3.167   4.614  18.756  0.00  0.00    +0.000 A 
ENDROOT
BRANCH  11  17
ATOM     17  N   UNL     1       2.155   7.848  20.298  0.00  0.00    +0.000 N 
ATOM     18  H   UNL     1       2.494   8.100  21.233  0.00  0.00    +0.000 HD
BRANCH  17  19
ATOM     19  C   UNL     1       0.975   8.622  19.906  0.00  0.00    +0.000 C 
BRANCH  19  20
ATOM     20  C   UNL     1       1.221   9.343  18.574  0.00  0.00    +0.000 C 
BRANCH  20  21
ATOM     21  C   UNL     1       0.575  10.739  18.530  0.00  0.00    +0.000 C 
BRANCH  21  22
ATOM     22  N   UNL     1      -0.884  10.676  18.565  0.00  0.00    +0.000 NA
ATOM     23  C   UNL     1      -1.538  11.995  18.681  0.00  0.00    +0.000 C 
ATOM     24  C   UNL     1      -3.052  11.797  18.871  0.00  0.00    +0.000 C 
ATOM     25  O   UNL     1      -3.629  11.062  17.782  0.00  0.00    +0.000 OA
ATOM     26  C   UNL     1      -2.967   9.799  17.619  0.00  0.00    +0.000 C 
ATOM     27  C   UNL     1      -1.458   9.990  17.390  0.00  0.00    +0.000 C 
ENDBRANCH  21  22
ENDBRANCH  20  21
ENDBRANCH  19  20
ENDBRANCH  17  19
ENDBRANCH  11  17
TORSDOF 5
ENDMDL
MODEL 5
REMARK VINA RESULT:      -7.1      3.432      6.181
REMARK  Name = 
REMARK  8 active torsions:
REMARK  status: ('A' for Active; 'I' for Inactive)
REMARK    1  A    between atoms: C_1  and  C_2
REMARK    2  A    between atoms: C_4  and  C_5
REMARK    3  A    between atoms: C_11  and  N_12
REMARK    4  A    between atoms: N_12  and  C_13
REMARK    5  A    between atoms: C_13  and  C_14
REMARK    6  A    between atoms: C_14  and  C_15
REMARK    7  A    between atoms: C_15  and  N_16
REMARK    8  A    between atoms: C_23  and  C_24
REMARK                            x       y       z     vdW  Elec       q    Type
REMARK                         _______ _______ _______ _____ _____    ______ ____
ROOT
ATOM      1  C   UNL     1       1.823  11.098  17.864  0.00  0.00    +0.000 C 
ATOM      2  C   UNL     1       1.959   9.714  18.443  0.00  0.00    +0.000 A 
ATOM      3  C   UNL     1       1.341   9.435  19.694  0.00  0.00    +0.000 A 
ATOM      4  C   UNL     1       1.405   8.168  20.309  0.00  0.00    +0.000 A 
ATOM      5  C   UNL     1       0.763   7.877  21.621  0.00  0.00    +0.000 C 
ATOM      6  C   UNL     1       2.141   7.301  19.495  0.00  0.00    +0.000 A 
ATOM      7  C   UNL     1       2.762   7.598  18.246  0.00  0.00    +0.000 A 
ATOM      8  N   UNL     1       2.679   8.832  17.684  0.00  0.00    +0.000 NA
ATOM      9  N   UNL     1       3.400   6.546  17.735  0.00  0.00    +0.000 NA
ATOM     10  N   UNL     1       3.178   5.545  18.639  0.00  0.00    +0.000 N 
ATOM     11  C   UNL     1       3.604   4.195  18.539  0.00  0.00    +0.000 A 
ATOM     12  C   UNL     1       3.262   3.341  19.518  0.00  0.00    +0.000 A 
ATOM     13  C   UNL     1       2.476   3.896  20.659  0.00  0.00    +0.000 A 
ATOM     14  C   UNL     1       2.146   2.947  21.785  0.00  0.00    +0.000 C 
ATOM     15  N   UNL     1       2.069   5.127  20.761  0.00  0.00    +0.000 NA
ATOM     16  C   UNL     1       2.408   5.974  19.738  0.00  0.00    +0.000 A 
ENDROOT
BRANCH  11  17
ATOM     17  N   UNL     1       4.385   3.819  17.434  0.00  0.00    +0.000 N 
ATOM     18  H   UNL     1       5.366   3.706  17.714  0.00  0.00    +0.000 HD
BRANCH  17  19
ATOM     19  C   UNL     1       4.251   4.435  16.112  0.00  0.00    +0.000 C 
BRANCH  19  20
ATOM     20  C   UNL     1       5.459   4.091  15.231  0.00  0.00    +0.000 C 
BRANCH  20  21
ATOM     21  C   UNL     1       6.765   3.980  16.035  0.00  0.00    +0.000 C 
BRANCH  21  22
ATOM     22  N   UNL     1       6.898   5.045  17.027  0.00  0.00    +0.000 NA
ATOM     23  C   UNL     1       7.816   4.718  18.137  0.00  0.00    +0.000 C 
ATOM     24  C   UNL     1       7.752   5.834  19.195  0.00  0.00    +0.000 C 
ATOM     25  O   UNL     1       8.098   7.111  18.636  0.00  0.00    +0.000 OA
ATOM     26  C   UNL     1       7.250   7.418  17.519  0.00  0.00    +0.000 C 
ATOM     27  C   UNL     1       7.337   6.326  16.440  0.00  0.00    +0.000 C 
ENDBRANCH  21  22
ENDBRANCH  20  21
ENDBRANCH  19  20
ENDBRANCH  17  19
ENDBRANCH  11  17
TORSDOF 5
ENDMDL
MODEL 6
REMARK VINA RESULT:      -7.0      6.129      7.307
REMARK  Name = 
REMARK  8 active torsions:
REMARK  status: ('A' for Active; 'I' for Inactive)
REMARK    1  A    between atoms: C_1  and  C_2
REMARK    2  A    between atoms: C_4  and  C_5
REMARK    3  A    between atoms: C_11  and  N_12
REMARK    4  A    between atoms: N_12  and  C_13
REMARK    5  A    between atoms: C_13  and  C_14
REMARK    6  A    between atoms: C_14  and  C_15
REMARK    7  A    between atoms: C_15  and  N_16
REMARK    8  A    between atoms: C_23  and  C_24
REMARK                            x       y       z     vdW  Elec       q    Type
REMARK                         _______ _______ _______ _____ _____    ______ ____
ROOT
ATOM      1  C   UNL     1       4.848   4.249  16.910  0.00  0.00    +0.000 C 
ATOM      2  C   UNL     1       3.981   5.137  17.764  0.00  0.00    +0.000 A 
ATOM      3  C   UNL     1       3.500   4.631  19.004  0.00  0.00    +0.000 A 
ATOM      4  C   UNL     1       2.691   5.390  19.874  0.00  0.00    +0.000 A 
ATOM      5  C   UNL     1       2.184   4.859  21.170  0.00  0.00    +0.000 C 
ATOM      6  C   UNL     1       2.478   6.655  19.314  0.00  0.00    +0.000 A 
ATOM      7  C   UNL     1       2.961   7.144  18.065  0.00  0.00    +0.000 A 
ATOM      8  N   UNL     1       3.737   6.382  17.252  0.00  0.00    +0.000 NA
ATOM      9  N   UNL     1       2.561   8.392  17.823  0.00  0.00    +0.000 NA
ATOM     10  N   UNL     1       1.834   8.734  18.928  0.00  0.00    +0.000 N 
ATOM     11  C   UNL     1       1.226   9.989  19.195  0.00  0.00    +0.000 A 
ATOM     12  C   UNL     1       0.573  10.149  20.358  0.00  0.00    +0.000 A 
ATOM     13  C   UNL     1       0.516   8.972  21.273  0.00  0.00    +0.000 A 
ATOM     14  C   UNL     1      -0.268   9.140  22.552  0.00  0.00    +0.000 C 
ATOM     15  N   UNL     1       1.077   7.820  21.049  0.00  0.00    +0.000 NA
ATOM     16  C   UNL     1       1.759   7.688  19.868  0.00  0.00    +0.000 A 
ENDROOT
BRANCH  11  17
ATOM     17  N   UNL     1       1.312  10.996  18.220  0.00  0.00    +0.000 N 
ATOM     18  H   UNL     1       1.995  10.736  17.500  0.00  0.00    +0.000 HD
BRANCH  17  19
ATOM     19  C   UNL     1       1.363  12.423  18.547  0.00  0.00    +0.000 C 
BRANCH  19  20
ATOM     20  C   UNL     1       2.806  12.941  18.479  0.00  0.00    +0.000 C 
BRANCH  20  21
ATOM     21  C   UNL     1       2.981  14.294  19.189  0.00  0.00    +0.000 C 
BRANCH  21  22
ATOM     22  N   UNL     1       2.399  15.399  18.430  0.00  0.00    +0.000 NA
ATOM     23  C   UNL     1       1.568  16.311  19.241  0.00  0.00    +0.000 C 
ATOM     24  C   UNL     1       0.881  17.331  18.316  0.00  0.00    +0.000 C 
ATOM     25  O   UNL     1       1.839  18.087  17.561  0.00  0.00    +0.000 OA
ATOM     26  C   UNL     1       2.693  17.212  16.809  0.00  0.00    +0.000 C 
ATOM     27  C   UNL     1       3.413  16.214  17.731  0.00  0.00    +0.000 C 
ENDBRANCH  21  22
ENDBRANCH  20  21
ENDBRANCH  19  20
ENDBRANCH  17  19
ENDBRANCH  11  17
TORSDOF 5
ENDMDL
MODEL 7
REMARK VINA RESULT:      -7.0      6.166      8.509
REMARK  Name = 
REMARK  8 active torsions:
REMARK  status: ('A' for Active; 'I' for Inactive)
REMARK    1  A    between atoms: C_1  and  C_2
REMARK    2  A    between atoms: C_4  and  C_5
REMARK    3  A    between atoms: C_11  and  N_12
REMARK    4  A    between atoms: N_12  and  C_13
REMARK    5  A    between atoms: C_13  and  C_14
REMARK    6  A    between atoms: C_14  and  C_15
REMARK    7  A    between atoms: C_15  and  N_16
REMARK    8  A    between atoms: C_23  and  C_24
REMARK                            x       y       z     vdW  Elec       q    Type
REMARK                         _______ _______ _______ _____ _____    ______ ____
ROOT
ATOM      1  C   UNL     1       7.166   5.074  14.068  0.00  0.00    +0.000 C 
ATOM      2  C   UNL     1       6.135   5.060  15.166  0.00  0.00    +0.000 A 
ATOM      3  C   UNL     1       5.801   3.817  15.771  0.00  0.00    +0.000 A 
ATOM      4  C   UNL     1       4.856   3.705  16.812  0.00  0.00    +0.000 A 
ATOM      5  C   UNL     1       4.502   2.403  17.442  0.00  0.00    +0.000 C 
ATOM      6  C   UNL     1       4.355   4.977  17.113  0.00  0.00    +0.000 A 
ATOM      7  C   UNL     1       4.695   6.214  16.491  0.00  0.00    +0.000 A 
ATOM      8  N   UNL     1       5.610   6.282  15.489  0.00  0.00    +0.000 NA
ATOM      9  N   UNL     1       4.022   7.241  17.008  0.00  0.00    +0.000 NA
ATOM     10  N   UNL     1       3.254   6.681  17.990  0.00  0.00    +0.000 N 
ATOM     11  C   UNL     1       2.384   7.360  18.884  0.00  0.00    +0.000 A 
ATOM     12  C   UNL     1       1.731   6.640  19.811  0.00  0.00    +0.000 A 
ATOM     13  C   UNL     1       1.954   5.164  19.807  0.00  0.00    +0.000 A 
ATOM     14  C   UNL     1       1.173   4.353  20.812  0.00  0.00    +0.000 C 
ATOM     15  N   UNL     1       2.756   4.529  19.003  0.00  0.00    +0.000 NA
ATOM     16  C   UNL     1       3.431   5.287  18.083  0.00  0.00    +0.000 A 
ENDROOT
BRANCH  11  17
ATOM     17  N   UNL     1       2.226   8.748  18.741  0.00  0.00    +0.000 N 
ATOM     18  H   UNL     1       3.122   9.225  18.893  0.00  0.00    +0.000 HD
BRANCH  17  19
ATOM     19  C   UNL     1       1.098   9.487  19.312  0.00  0.00    +0.000 C 
BRANCH  19  20
ATOM     20  C   UNL     1       0.076   9.838  18.223  0.00  0.00    +0.000 C 
BRANCH  20  21
ATOM     21  C   UNL     1      -0.886  10.958  18.654  0.00  0.00    +0.000 C 
BRANCH  21  22
ATOM     22  N   UNL     1      -2.211  10.812  18.055  0.00  0.00    +0.000 NA
ATOM     23  C   UNL     1      -3.236  11.697  18.646  0.00  0.00    +0.000 C 
ATOM     24  C   UNL     1      -4.612  11.345  18.057  0.00  0.00    +0.000 C 
ATOM     25  O   UNL     1      -4.623  11.474  16.627  0.00  0.00    +0.000 OA
ATOM     26  C   UNL     1      -3.595  10.664  16.040  0.00  0.00    +0.000 C 
ATOM     27  C   UNL     1      -2.210  11.035  16.596  0.00  0.00    +0.000 C 
ENDBRANCH  21  22
ENDBRANCH  20  21
ENDBRANCH  19  20
ENDBRANCH  17  19
ENDBRANCH  11  17
TORSDOF 5
ENDMDL
MODEL 8
REMARK VINA RESULT:      -7.0      4.925      6.849
REMARK  Name = 
REMARK  8 active torsions:
REMARK  status: ('A' for Active; 'I' for Inactive)
REMARK    1  A    between atoms: C_1  and  C_2
REMARK    2  A    between atoms: C_4  and  C_5
REMARK    3  A    between atoms: C_11  and  N_12
REMARK    4  A    between atoms: N_12  and  C_13
REMARK    5  A    between atoms: C_13  and  C_14
REMARK    6  A    between atoms: C_14  and  C_15
REMARK    7  A    between atoms: C_15  and  N_16
REMARK    8  A    between atoms: C_23  and  C_24
REMARK                            x       y       z     vdW  Elec       q    Type
REMARK                         _______ _______ _______ _____ _____    ______ ____
ROOT
ATOM      1  C   UNL     1       6.498   5.260  14.588  0.00  0.00    +0.000 C 
ATOM      2  C   UNL     1       5.571   4.988  15.744  0.00  0.00    +0.000 A 
ATOM      3  C   UNL     1       5.296   3.637  16.094  0.00  0.00    +0.000 A 
ATOM      4  C   UNL     1       4.450   3.284  17.165  0.00  0.00    +0.000 A 
ATOM      5  C   UNL     1       4.158   1.869  17.529  0.00  0.00    +0.000 C 
ATOM      6  C   UNL     1       3.976   4.450  17.776  0.00  0.00    +0.000 A 
ATOM      7  C   UNL     1       4.254   5.799  17.408  0.00  0.00    +0.000 A 
ATOM      8  N   UNL     1       5.074   6.100  16.367  0.00  0.00    +0.000 NA
ATOM      9  N   UNL     1       3.628   6.676  18.191  0.00  0.00    +0.000 NA
ATOM     10  N   UNL     1       2.954   5.903  19.093  0.00  0.00    +0.000 N 
ATOM     11  C   UNL     1       2.167   6.354  20.185  0.00  0.00    +0.000 A 
ATOM     12  C   UNL     1       1.603   5.438  20.989  0.00  0.00    +0.000 A 
ATOM     13  C   UNL     1       1.829   4.003  20.648  0.00  0.00    +0.000 A 
ATOM     14  C   UNL     1       1.144   2.979  21.520  0.00  0.00    +0.000 C 
ATOM     15  N   UNL     1       2.556   3.573  19.659  0.00  0.00    +0.000 NA
ATOM     16  C   UNL     1       3.143   4.525  18.867  0.00  0.00    +0.000 A 
ENDROOT
BRANCH  11  17
ATOM     17  N   UNL     1       1.993   7.737  20.360  0.00  0.00    +0.000 N 
ATOM     18  H   UNL     1       2.905   8.203  20.433  0.00  0.00    +0.000 HD
BRANCH  17  19
ATOM     19  C   UNL     1       1.000   8.309  21.270  0.00  0.00    +0.000 C 
BRANCH  19  20
ATOM     20  C   UNL     1       0.310   9.519  20.626  0.00  0.00    +0.000 C 
BRANCH  20  21
ATOM     21  C   UNL     1      -0.093  10.587  21.657  0.00  0.00    +0.000 C 
BRANCH  21  22
ATOM     22  N   UNL     1       0.647  11.835  21.480  0.00  0.00    +0.000 NA
ATOM     23  C   UNL     1       1.267  11.981  20.148  0.00  0.00    +0.000 C 
ATOM     24  C   UNL     1       2.147  13.242  20.131  0.00  0.00    +0.000 C 
ATOM     25  O   UNL     1       1.388  14.419  20.447  0.00  0.00    +0.000 OA
ATOM     26  C   UNL     1       0.732  14.272  21.715  0.00  0.00    +0.000 C 
ATOM     27  C   UNL     1      -0.180  13.033  21.726  0.00  0.00    +0.000 C 
ENDBRANCH  21  22
ENDBRANCH  20  21
ENDBRANCH  19  20
ENDBRANCH  17  19
ENDBRANCH  11  17
TORSDOF 5
ENDMDL
MODEL 9
REMARK VINA RESULT:      -6.9      7.800     10.178
REMARK  Name = 
REMARK  8 active torsions:
REMARK  status: ('A' for Active; 'I' for Inactive)
REMARK    1  A    between atoms: C_1  and  C_2
REMARK    2  A    between atoms: C_4  and  C_5
REMARK    3  A    between atoms: C_11  and  N_12
REMARK    4  A    between atoms: N_12  and  C_13
REMARK    5  A    between atoms: C_13  and  C_14
REMARK    6  A    between atoms: C_14  and  C_15
REMARK    7  A    between atoms: C_15  and  N_16
REMARK    8  A    between atoms: C_23  and  C_24
REMARK                            x       y       z     vdW  Elec       q    Type
REMARK                         _______ _______ _______ _____ _____    ______ ____
ROOT
ATOM      1  C   UNL     1      -4.032  10.136  14.444  0.00  0.00    +0.000 C 
ATOM      2  C   UNL     1      -3.419  10.408  15.793  0.00  0.00    +0.000 A 
ATOM      3  C   UNL     1      -4.167  11.160  16.741  0.00  0.00    +0.000 A 
ATOM      4  C   UNL     1      -3.681  11.457  18.031  0.00  0.00    +0.000 A 
ATOM      5  C   UNL     1      -4.462  12.249  19.023  0.00  0.00    +0.000 C 
ATOM      6  C   UNL     1      -2.409  10.895  18.182  0.00  0.00    +0.000 A 
ATOM      7  C   UNL     1      -1.668  10.150  17.217  0.00  0.00    +0.000 A 
ATOM      8  N   UNL     1      -2.169   9.885  15.982  0.00  0.00    +0.000 NA
ATOM      9  N   UNL     1      -0.478   9.770  17.678  0.00  0.00    +0.000 NA
ATOM     10  N   UNL     1      -0.443  10.246  18.959  0.00  0.00    +0.000 N 
ATOM     11  C   UNL     1       0.595  10.064  19.909  0.00  0.00    +0.000 A 
ATOM     12  C   UNL     1       0.436  10.583  21.138  0.00  0.00    +0.000 A 
ATOM     13  C   UNL     1      -0.823  11.340  21.398  0.00  0.00    +0.000 A 
ATOM     14  C   UNL     1      -0.970  11.970  22.761  0.00  0.00    +0.000 C 
ATOM     15  N   UNL     1      -1.789  11.505  20.543  0.00  0.00    +0.000 NA
ATOM     16  C   UNL     1      -1.615  10.946  19.303  0.00  0.00    +0.000 A 
ENDROOT
BRANCH  11  17
ATOM     17  N   UNL     1       1.753   9.374  19.513  0.00  0.00    +0.000 N 
ATOM     18  H   UNL     1       2.092   9.736  18.615  0.00  0.00    +0.000 HD
BRANCH  17  19
ATOM     19  C   UNL     1       1.892   7.920  19.616  0.00  0.00    +0.000 C 
BRANCH  19  20
ATOM     20  C   UNL     1       2.362   7.327  18.282  0.00  0.00    +0.000 C 
BRANCH  20  21
ATOM     21  C   UNL     1       3.369   6.179  18.468  0.00  0.00    +0.000 C 
BRANCH  21  22
ATOM     22  N   UNL     1       2.736   4.962  18.970  0.00  0.00    +0.000 NA
ATOM     23  C   UNL     1       1.967   4.222  17.948  0.00  0.00    +0.000 C 
ATOM     24  C   UNL     1       1.217   3.059  18.620  0.00  0.00    +0.000 C 
ATOM     25  O   UNL     1       2.119   2.166  19.290  0.00  0.00    +0.000 OA
ATOM     26  C   UNL     1       2.915   2.880  20.248  0.00  0.00    +0.000 C 
ATOM     27  C   UNL     1       3.698   4.021  19.577  0.00  0.00    +0.000 C 
ENDBRANCH  21  22
ENDBRANCH  20  21
ENDBRANCH  19  20
ENDBRANCH  17  19
ENDBRANCH  11  17
TORSDOF 5
ENDMDL
