MODEL 1
REMARK VINA RESULT:      -6.0      0.000      0.000
REMARK  Name = 
REMARK  17 active torsions:
REMARK  status: ('A' for Active; 'I' for Inactive)
REMARK    1  A    between atoms: C_1  and  C_2
REMARK    2  A    between atoms: C_2  and  C_3
REMARK    3  A    between atoms: C_3  and  C_4
REMARK    4  A    between atoms: C_4  and  C_5
REMARK    5  A    between atoms: C_5  and  C_6
REMARK    6  A    between atoms: C_7  and  C_8
REMARK    7  A    between atoms: C_8  and  C_9
REMARK    8  A    between atoms: C_11  and  C_12
REMARK    9  A    between atoms: C_12  and  C_13
REMARK   10  A    between atoms: C_13  and  C_14
REMARK   11  A    between atoms: C_14  and  C_15
REMARK   12  A    between atoms: C_15  and  C_16
REMARK   13  A    between atoms: C_17  and  C_18
REMARK   14  A    between atoms: C_18  and  C_19
REMARK   15  A    between atoms: C_19  and  C_20
REMARK   16  A    between atoms: C_20  and  C_21
REMARK   17  A    between atoms: C_21  and  O_23
REMARK                            x       y       z     vdW  Elec       q    Type
REMARK                         _______ _______ _______ _____ _____    ______ ____
ROOT
ATOM      1  C   UNL     1       1.702   3.835  20.679  0.00  0.00    +0.000 C 
ENDROOT
BRANCH   1   4
ATOM      2  C   UNL     1       3.014   2.702  18.767  0.00  0.00    +0.000 C 
ATOM      3  O   UNL     1       3.439   2.209  20.048  0.00  0.00    +0.000 OA
ATOM      4  C   UNL     1       2.987   3.568  19.986  0.00  0.00    +0.000 C 
BRANCH   2   5
ATOM      5  C   UNL     1       4.087   2.937  17.762  0.00  0.00    +0.000 C 
BRANCH   5   7
ATOM      6  C   UNL     1       4.680   5.305  17.086  0.00  0.00    +0.000 C 
ATOM      7  C   UNL     1       3.919   4.205  16.980  0.00  0.00    +0.000 C 
BRANCH   6   8
ATOM      8  C   UNL     1       5.815   5.468  18.049  0.00  0.00    +0.000 C 
BRANCH   8   9
ATOM      9  C   UNL     1       7.094   5.942  17.365  0.00  0.00    +0.000 C 
BRANCH   9  10
ATOM     10  C   UNL     1       7.781   6.995  18.232  0.00  0.00    +0.000 C 
BRANCH  10  12
ATOM     11  C   UNL     1       8.570   9.369  18.379  0.00  0.00    +0.000 C 
ATOM     12  C   UNL     1       7.796   8.358  17.551  0.00  0.00    +0.000 C 
ENDBRANCH  10  12
ENDBRANCH   9  10
ENDBRANCH   8   9
ENDBRANCH   6   8
ENDBRANCH   5   7
ENDBRANCH   2   5
ENDBRANCH   1   4
BRANCH   1  13
ATOM     13  C   UNL     1       1.399   5.334  20.672  0.00  0.00    +0.000 C 
BRANCH  13  14
ATOM     14  C   UNL     1       2.466   6.138  19.930  0.00  0.00    +0.000 C 
BRANCH  14  15
ATOM     15  C   UNL     1       2.105   7.611  19.719  0.00  0.00    +0.000 C 
BRANCH  15  16
ATOM     16  C   UNL     1       2.488   8.093  18.347  0.00  0.00    +0.000 C 
ATOM     17  C   UNL     1       2.024   9.200  17.750  0.00  0.00    +0.000 C 
BRANCH  17  18
ATOM     18  C   UNL     1       1.071  10.180  18.368  0.00  0.00    +0.000 C 
BRANCH  18  19
ATOM     19  C   UNL     1      -0.353   9.982  17.843  0.00  0.00    +0.000 C 
BRANCH  19  20
ATOM     20  C   UNL     1      -1.411  10.457  18.839  0.00  0.00    +0.000 C 
BRANCH  20  21
ATOM     21  C   UNL     1      -2.294  11.533  18.261  0.00  0.00    +0.000 C 
ATOM     22  O   UNL     1      -3.407  11.833  18.662  0.00  0.00    +0.000 OA
BRANCH  21  23
ATOM     23  O   UNL     1      -1.710  12.159  17.210  0.00  0.00    +0.000 OA
ATOM     24  H   UNL     1      -2.278  12.833  16.790  0.00  0.00    +0.000 HD
ENDBRANCH  21  23
ENDBRANCH  20  21
ENDBRANCH  19  20
ENDBRANCH  18  19
ENDBRANCH  17  18
ENDBRANCH  15  16
ENDBRANCH  14  15
ENDBRANCH  13  14
ENDBRANCH   1  13
TORSDOF 16
ENDMDL
MODEL 2
REMARK VINA RESULT:      -5.8      2.854      7.041
REMARK  Name = 
REMARK  17 active torsions:
REMARK  status: ('A' for Active; 'I' for Inactive)
REMARK    1  A    between atoms: C_1  and  C_2
REMARK    2  A    between atoms: C_2  and  C_3
REMARK    3  A    between atoms: C_3  and  C_4
REMARK    4  A    between atoms: C_4  and  C_5
REMARK    5  A    between atoms: C_5  and  C_6
REMARK    6  A    between atoms: C_7  and  C_8
REMARK    7  A    between atoms: C_8  and  C_9
REMARK    8  A    between atoms: C_11  and  C_12
REMARK    9  A    between atoms: C_12  and  C_13
REMARK   10  A    between atoms: C_13  and  C_14
REMARK   11  A    between atoms: C_14  and  C_15
REMARK   12  A    between atoms: C_15  and  C_16
REMARK   13  A    between atoms: C_17  and  C_18
REMARK   14  A    between atoms: C_18  and  C_19
REMARK   15  A    between atoms: C_19  and  C_20
REMARK   16  A    between atoms: C_20  and  C_21
REMARK   17  A    between atoms: C_21  and  O_23
REMARK                            x       y       z     vdW  Elec       q    Type
REMARK                         _______ _______ _______ _____ _____    ______ ____
ROOT
ATOM      1  C   UNL     1       1.442   3.676  21.144  0.00  0.00    +0.000 C 
ENDROOT
BRANCH   1   4
ATOM      2  C   UNL     1       2.350   5.587  19.666  0.00  0.00    +0.000 C 
ATOM      3  O   UNL     1       1.595   6.105  20.774  0.00  0.00    +0.000 OA
ATOM      4  C   UNL     1       1.197   4.832  20.246  0.00  0.00    +0.000 C 
BRANCH   2   5
ATOM      5  C   UNL     1       2.156   6.272  18.358  0.00  0.00    +0.000 C 
BRANCH   5   7
ATOM      6  C   UNL     1       2.676   8.710  17.909  0.00  0.00    +0.000 C 
ATOM      7  C   UNL     1       3.062   7.448  18.150  0.00  0.00    +0.000 C 
BRANCH   6   8
ATOM      8  C   UNL     1       1.253   9.154  17.763  0.00  0.00    +0.000 C 
BRANCH   8   9
ATOM      9  C   UNL     1       0.915  10.332  18.673  0.00  0.00    +0.000 C 
BRANCH   9  10
ATOM     10  C   UNL     1      -0.046   9.875  19.768  0.00  0.00    +0.000 C 
BRANCH  10  12
ATOM     11  C   UNL     1      -0.255   8.922  22.076  0.00  0.00    +0.000 C 
ATOM     12  C   UNL     1       0.698   9.501  21.045  0.00  0.00    +0.000 C 
ENDBRANCH  10  12
ENDBRANCH   9  10
ENDBRANCH   8   9
ENDBRANCH   6   8
ENDBRANCH   5   7
ENDBRANCH   2   5
ENDBRANCH   1   4
BRANCH   1  13
ATOM     13  C   UNL     1       1.841   2.447  20.325  0.00  0.00    +0.000 C 
BRANCH  13  14
ATOM     14  C   UNL     1       1.078   2.357  19.004  0.00  0.00    +0.000 C 
BRANCH  14  15
ATOM     15  C   UNL     1       1.968   2.446  17.761  0.00  0.00    +0.000 C 
BRANCH  15  16
ATOM     16  C   UNL     1       3.325   1.845  17.995  0.00  0.00    +0.000 C 
ATOM     17  C   UNL     1       4.499   2.461  17.796  0.00  0.00    +0.000 C 
BRANCH  17  18
ATOM     18  C   UNL     1       4.662   3.883  17.345  0.00  0.00    +0.000 C 
BRANCH  18  19
ATOM     19  C   UNL     1       5.618   4.652  18.260  0.00  0.00    +0.000 C 
BRANCH  19  20
ATOM     20  C   UNL     1       6.955   4.952  17.584  0.00  0.00    +0.000 C 
BRANCH  20  21
ATOM     21  C   UNL     1       7.351   6.399  17.722  0.00  0.00    +0.000 C 
ATOM     22  O   UNL     1       8.039   6.867  18.615  0.00  0.00    +0.000 OA
BRANCH  21  23
ATOM     23  O   UNL     1       6.848   7.161  16.721  0.00  0.00    +0.000 OA
ATOM     24  H   UNL     1       7.169   8.084  16.731  0.00  0.00    +0.000 HD
ENDBRANCH  21  23
ENDBRANCH  20  21
ENDBRANCH  19  20
ENDBRANCH  18  19
ENDBRANCH  17  18
ENDBRANCH  15  16
ENDBRANCH  14  15
ENDBRANCH  13  14
ENDBRANCH   1  13
TORSDOF 16
ENDMDL
MODEL 3
REMARK VINA RESULT:      -5.7      2.475      5.083
REMARK  Name = 
REMARK  17 active torsions:
REMARK  status: ('A' for Active; 'I' for Inactive)
REMARK    1  A    between atoms: C_1  and  C_2
REMARK    2  A    between atoms: C_2  and  C_3
REMARK    3  A    between atoms: C_3  and  C_4
REMARK    4  A    between atoms: C_4  and  C_5
REMARK    5  A    between atoms: C_5  and  C_6
REMARK    6  A    between atoms: C_7  and  C_8
REMARK    7  A    between atoms: C_8  and  C_9
REMARK    8  A    between atoms: C_11  and  C_12
REMARK    9  A    between atoms: C_12  and  C_13
REMARK   10  A    between atoms: C_13  and  C_14
REMARK   11  A    between atoms: C_14  and  C_15
REMARK   12  A    between atoms: C_15  and  C_16
REMARK   13  A    between atoms: C_17  and  C_18
REMARK   14  A    between atoms: C_18  and  C_19
REMARK   15  A    between atoms: C_19  and  C_20
REMARK   16  A    between atoms: C_20  and  C_21
REMARK   17  A    between atoms: C_21  and  O_23
REMARK                            x       y       z     vdW  Elec       q    Type
REMARK                         _______ _______ _______ _____ _____    ______ ____
ROOT
ATOM      1  C   UNL     1       5.218   4.399  17.101  0.00  0.00    +0.000 C 
ENDROOT
BRANCH   1   4
ATOM      2  C   UNL     1       7.366   5.601  17.875  0.00  0.00    +0.000 C 
ATOM      3  O   UNL     1       7.003   4.553  18.789  0.00  0.00    +0.000 OA
ATOM      4  C   UNL     1       5.937   5.224  18.103  0.00  0.00    +0.000 C 
BRANCH   2   5
ATOM      5  C   UNL     1       7.866   6.864  18.485  0.00  0.00    +0.000 C 
BRANCH   5   7
ATOM      6  C   UNL     1       8.253   9.276  17.818  0.00  0.00    +0.000 C 
ATOM      7  C   UNL     1       7.724   8.064  17.597  0.00  0.00    +0.000 C 
BRANCH   6   8
ATOM      8  C   UNL     1       9.050   9.653  19.029  0.00  0.00    +0.000 C 
BRANCH   8   9
ATOM      9  C   UNL     1       9.829  10.951  18.831  0.00  0.00    +0.000 C 
BRANCH   9  10
ATOM     10  C   UNL     1      10.416  11.406  20.165  0.00  0.00    +0.000 C 
BRANCH  10  12
ATOM     11  C   UNL     1      11.882  13.351  19.574  0.00  0.00    +0.000 C 
ATOM     12  C   UNL     1      11.851  11.896  20.008  0.00  0.00    +0.000 C 
ENDBRANCH  10  12
ENDBRANCH   9  10
ENDBRANCH   8   9
ENDBRANCH   6   8
ENDBRANCH   5   7
ENDBRANCH   2   5
ENDBRANCH   1   4
BRANCH   1  13
ATOM     13  C   UNL     1       3.707   4.521  17.303  0.00  0.00    +0.000 C 
BRANCH  13  14
ATOM     14  C   UNL     1       3.030   3.161  17.462  0.00  0.00    +0.000 C 
BRANCH  14  15
ATOM     15  C   UNL     1       2.174   3.031  18.725  0.00  0.00    +0.000 C 
BRANCH  15  16
ATOM     16  C   UNL     1       2.946   3.377  19.967  0.00  0.00    +0.000 C 
ATOM     17  C   UNL     1       2.689   4.406  20.787  0.00  0.00    +0.000 C 
BRANCH  17  18
ATOM     18  C   UNL     1       1.550   5.371  20.631  0.00  0.00    +0.000 C 
BRANCH  18  19
ATOM     19  C   UNL     1       2.039   6.739  20.148  0.00  0.00    +0.000 C 
BRANCH  19  20
ATOM     20  C   UNL     1       1.711   7.855  21.139  0.00  0.00    +0.000 C 
BRANCH  20  21
ATOM     21  C   UNL     1       0.663   8.799  20.607  0.00  0.00    +0.000 C 
ATOM     22  O   UNL     1       0.802   9.556  19.660  0.00  0.00    +0.000 OA
BRANCH  21  23
ATOM     23  O   UNL     1      -0.493   8.722  21.310  0.00  0.00    +0.000 OA
ATOM     24  H   UNL     1      -1.127   8.072  20.952  0.00  0.00    +0.000 HD
ENDBRANCH  21  23
ENDBRANCH  20  21
ENDBRANCH  19  20
ENDBRANCH  18  19
ENDBRANCH  17  18
ENDBRANCH  15  16
ENDBRANCH  14  15
ENDBRANCH  13  14
ENDBRANCH   1  13
TORSDOF 16
ENDMDL
MODEL 4
REMARK VINA RESULT:      -5.7      2.375      3.176
REMARK  Name = 
REMARK  17 active torsions:
REMARK  status: ('A' for Active; 'I' for Inactive)
REMARK    1  A    between atoms: C_1  and  C_2
REMARK    2  A    between atoms: C_2  and  C_3
REMARK    3  A    between atoms: C_3  and  C_4
REMARK    4  A    between atoms: C_4  and  C_5
REMARK    5  A    between atoms: C_5  and  C_6
REMARK    6  A    between atoms: C_7  and  C_8
REMARK    7  A    between atoms: C_8  and  C_9
REMARK    8  A    between atoms: C_11  and  C_12
REMARK    9  A    between atoms: C_12  and  C_13
REMARK   10  A    between atoms: C_13  and  C_14
REMARK   11  A    between atoms: C_14  and  C_15
REMARK   12  A    between atoms: C_15  and  C_16
REMARK   13  A    between atoms: C_17  and  C_18
REMARK   14  A    between atoms: C_18  and  C_19
REMARK   15  A    between atoms: C_19  and  C_20
REMARK   16  A    between atoms: C_20  and  C_21
REMARK   17  A    between atoms: C_21  and  O_23
REMARK                            x       y       z     vdW  Elec       q    Type
REMARK                         _______ _______ _______ _____ _____    ______ ____
ROOT
ATOM      1  C   UNL     1       1.275   4.678  20.152  0.00  0.00    +0.000 C 
ENDROOT
BRANCH   1   4
ATOM      2  C   UNL     1       2.840   3.465  18.497  0.00  0.00    +0.000 C 
ATOM      3  O   UNL     1       2.407   2.579  19.543  0.00  0.00    +0.000 OA
ATOM      4  C   UNL     1       2.547   3.967  19.875  0.00  0.00    +0.000 C 
BRANCH   2   5
ATOM      5  C   UNL     1       4.264   3.345  18.079  0.00  0.00    +0.000 C 
BRANCH   5   7
ATOM      6  C   UNL     1       5.826   5.147  18.932  0.00  0.00    +0.000 C 
ATOM      7  C   UNL     1       5.233   3.950  19.050  0.00  0.00    +0.000 C 
BRANCH   6   8
ATOM      8  C   UNL     1       5.651   6.076  17.770  0.00  0.00    +0.000 C 
BRANCH   8   9
ATOM      9  C   UNL     1       6.952   6.303  17.006  0.00  0.00    +0.000 C 
BRANCH   9  10
ATOM     10  C   UNL     1       7.093   5.252  15.907  0.00  0.00    +0.000 C 
BRANCH  10  12
ATOM     11  C   UNL     1       5.747   3.909  14.273  0.00  0.00    +0.000 C 
ATOM     12  C   UNL     1       5.884   5.248  14.978  0.00  0.00    +0.000 C 
ENDBRANCH  10  12
ENDBRANCH   9  10
ENDBRANCH   8   9
ENDBRANCH   6   8
ENDBRANCH   5   7
ENDBRANCH   2   5
ENDBRANCH   1   4
BRANCH   1  13
ATOM     13  C   UNL     1       1.555   6.129  20.545  0.00  0.00    +0.000 C 
BRANCH  13  14
ATOM     14  C   UNL     1       2.606   6.780  19.646  0.00  0.00    +0.000 C 
BRANCH  14  15
ATOM     15  C   UNL     1       2.086   7.173  18.260  0.00  0.00    +0.000 C 
BRANCH  15  16
ATOM     16  C   UNL     1       2.429   8.595  17.913  0.00  0.00    +0.000 C 
ATOM     17  C   UNL     1       1.681   9.671  18.196  0.00  0.00    +0.000 C 
BRANCH  17  18
ATOM     18  C   UNL     1       0.386   9.648  18.954  0.00  0.00    +0.000 C 
BRANCH  18  19
ATOM     19  C   UNL     1       0.478  10.471  20.242  0.00  0.00    +0.000 C 
BRANCH  19  20
ATOM     20  C   UNL     1       1.071   9.670  21.401  0.00  0.00    +0.000 C 
BRANCH  20  21
ATOM     21  C   UNL     1       0.022   9.250  22.398  0.00  0.00    +0.000 C 
ATOM     22  O   UNL     1      -0.834   8.399  22.215  0.00  0.00    +0.000 OA
BRANCH  21  23
ATOM     23  O   UNL     1       0.123   9.938  23.561  0.00  0.00    +0.000 OA
ATOM     24  H   UNL     1       0.509   9.417  24.292  0.00  0.00    +0.000 HD
ENDBRANCH  21  23
ENDBRANCH  20  21
ENDBRANCH  19  20
ENDBRANCH  18  19
ENDBRANCH  17  18
ENDBRANCH  15  16
ENDBRANCH  14  15
ENDBRANCH  13  14
ENDBRANCH   1  13
TORSDOF 16
ENDMDL
MODEL 5
REMARK VINA RESULT:      -5.7      6.382      8.806
REMARK  Name = 
REMARK  17 active torsions:
REMARK  status: ('A' for Active; 'I' for Inactive)
REMARK    1  A    between atoms: C_1  and  C_2
REMARK    2  A    between atoms: C_2  and  C_3
REMARK    3  A    between atoms: C_3  and  C_4
REMARK    4  A    between atoms: C_4  and  C_5
REMARK    5  A    between atoms: C_5  and  C_6
REMARK    6  A    between atoms: C_7  and  C_8
REMARK    7  A    between atoms: C_8  and  C_9
REMARK    8  A    between atoms: C_11  and  C_12
REMARK    9  A    between atoms: C_12  and  C_13
REMARK   10  A    between atoms: C_13  and  C_14
REMARK   11  A    between atoms: C_14  and  C_15
REMARK   12  A    between atoms: C_15  and  C_16
REMARK   13  A    between atoms: C_17  and  C_18
REMARK   14  A    between atoms: C_18  and  C_19
REMARK   15  A    between atoms: C_19  and  C_20
REMARK   16  A    between atoms: C_20  and  C_21
REMARK   17  A    between atoms: C_21  and  O_23
REMARK                            x       y       z     vdW  Elec       q    Type
REMARK                         _______ _______ _______ _____ _____    ______ ____
ROOT
ATOM      1  C   UNL     1       7.592   5.464  18.302  0.00  0.00    +0.000 C 
ENDROOT
BRANCH   1   4
ATOM      2  C   UNL     1       6.969   4.263  16.104  0.00  0.00    +0.000 C 
ATOM      3  O   UNL     1       7.671   5.490  15.842  0.00  0.00    +0.000 OA
ATOM      4  C   UNL     1       6.850   5.442  17.016  0.00  0.00    +0.000 C 
BRANCH   2   5
ATOM      5  C   UNL     1       5.825   3.953  15.203  0.00  0.00    +0.000 C 
BRANCH   5   7
ATOM      6  C   UNL     1       5.974   4.549  12.745  0.00  0.00    +0.000 C 
ATOM      7  C   UNL     1       5.717   4.871  14.022  0.00  0.00    +0.000 C 
BRANCH   6   8
ATOM      8  C   UNL     1       6.461   3.210  12.284  0.00  0.00    +0.000 C 
BRANCH   8   9
ATOM      9  C   UNL     1       5.390   2.433  11.523  0.00  0.00    +0.000 C 
BRANCH   9  10
ATOM     10  C   UNL     1       4.066   3.192  11.582  0.00  0.00    +0.000 C 
BRANCH  10  12
ATOM     11  C   UNL     1       3.011   4.322   9.609  0.00  0.00    +0.000 C 
ATOM     12  C   UNL     1       3.251   2.995  10.309  0.00  0.00    +0.000 C 
ENDBRANCH  10  12
ENDBRANCH   9  10
ENDBRANCH   8   9
ENDBRANCH   6   8
ENDBRANCH   5   7
ENDBRANCH   2   5
ENDBRANCH   1   4
BRANCH   1  13
ATOM     13  C   UNL     1       8.194   6.849  18.541  0.00  0.00    +0.000 C 
BRANCH  13  14
ATOM     14  C   UNL     1       7.472   7.940  17.751  0.00  0.00    +0.000 C 
BRANCH  14  15
ATOM     15  C   UNL     1       8.222   9.274  17.697  0.00  0.00    +0.000 C 
BRANCH  15  16
ATOM     16  C   UNL     1       8.889   9.598  19.004  0.00  0.00    +0.000 C 
ATOM     17  C   UNL     1       9.596  10.706  19.267  0.00  0.00    +0.000 C 
BRANCH  17  18
ATOM     18  C   UNL     1       9.808  11.843  18.311  0.00  0.00    +0.000 C 
BRANCH  18  19
ATOM     19  C   UNL     1      11.151  11.722  17.588  0.00  0.00    +0.000 C 
BRANCH  19  20
ATOM     20  C   UNL     1      11.903  13.052  17.533  0.00  0.00    +0.000 C 
BRANCH  20  21
ATOM     21  C   UNL     1      11.100  14.184  18.120  0.00  0.00    +0.000 C 
ATOM     22  O   UNL     1      10.237  14.822  17.538  0.00  0.00    +0.000 OA
BRANCH  21  23
ATOM     23  O   UNL     1      11.443  14.436  19.407  0.00  0.00    +0.000 OA
ATOM     24  H   UNL     1      12.310  14.876  19.502  0.00  0.00    +0.000 HD
ENDBRANCH  21  23
ENDBRANCH  20  21
ENDBRANCH  19  20
ENDBRANCH  18  19
ENDBRANCH  17  18
ENDBRANCH  15  16
ENDBRANCH  14  15
ENDBRANCH  13  14
ENDBRANCH   1  13
TORSDOF 16
ENDMDL
MODEL 6
REMARK VINA RESULT:      -5.7      3.151      7.332
REMARK  Name = 
REMARK  17 active torsions:
REMARK  status: ('A' for Active; 'I' for Inactive)
REMARK    1  A    between atoms: C_1  and  C_2
REMARK    2  A    between atoms: C_2  and  C_3
REMARK    3  A    between atoms: C_3  and  C_4
REMARK    4  A    between atoms: C_4  and  C_5
REMARK    5  A    between atoms: C_5  and  C_6
REMARK    6  A    between atoms: C_7  and  C_8
REMARK    7  A    between atoms: C_8  and  C_9
REMARK    8  A    between atoms: C_11  and  C_12
REMARK    9  A    between atoms: C_12  and  C_13
REMARK   10  A    between atoms: C_13  and  C_14
REMARK   11  A    between atoms: C_14  and  C_15
REMARK   12  A    between atoms: C_15  and  C_16
REMARK   13  A    between atoms: C_17  and  C_18
REMARK   14  A    between atoms: C_18  and  C_19
REMARK   15  A    between atoms: C_19  and  C_20
REMARK   16  A    between atoms: C_20  and  C_21
REMARK   17  A    between atoms: C_21  and  O_23
REMARK                            x       y       z     vdW  Elec       q    Type
REMARK                         _______ _______ _______ _____ _____    ______ ____
ROOT
ATOM      1  C   UNL     1       2.215   3.481  18.033  0.00  0.00    +0.000 C 
ENDROOT
BRANCH   1   4
ATOM      2  C   UNL     1       2.705   5.977  18.467  0.00  0.00    +0.000 C 
ATOM      3  O   UNL     1       3.147   5.165  19.568  0.00  0.00    +0.000 OA
ATOM      4  C   UNL     1       2.000   4.711  18.835  0.00  0.00    +0.000 C 
BRANCH   2   5
ATOM      5  C   UNL     1       2.058   7.271  18.820  0.00  0.00    +0.000 C 
BRANCH   5   7
ATOM      6  C   UNL     1       1.907   9.590  17.814  0.00  0.00    +0.000 C 
ATOM      7  C   UNL     1       2.560   8.437  18.024  0.00  0.00    +0.000 C 
BRANCH   6   8
ATOM      8  C   UNL     1       0.527   9.893  18.311  0.00  0.00    +0.000 C 
BRANCH   8   9
ATOM      9  C   UNL     1       0.507  11.062  19.293  0.00  0.00    +0.000 C 
BRANCH   9  10
ATOM     10  C   UNL     1      -0.238  10.653  20.562  0.00  0.00    +0.000 C 
BRANCH  10  12
ATOM     11  C   UNL     1      -0.246   8.442  21.742  0.00  0.00    +0.000 C 
ATOM     12  C   UNL     1       0.576   9.671  21.397  0.00  0.00    +0.000 C 
ENDBRANCH  10  12
ENDBRANCH   9  10
ENDBRANCH   8   9
ENDBRANCH   6   8
ENDBRANCH   5   7
ENDBRANCH   2   5
ENDBRANCH   1   4
BRANCH   1  13
ATOM     13  C   UNL     1       3.497   2.776  18.479  0.00  0.00    +0.000 C 
BRANCH  13  14
ATOM     14  C   UNL     1       4.680   3.089  17.564  0.00  0.00    +0.000 C 
BRANCH  14  15
ATOM     15  C   UNL     1       4.281   3.643  16.193  0.00  0.00    +0.000 C 
BRANCH  15  16
ATOM     16  C   UNL     1       5.475   4.104  15.404  0.00  0.00    +0.000 C 
ATOM     17  C   UNL     1       5.880   5.375  15.270  0.00  0.00    +0.000 C 
BRANCH  17  18
ATOM     18  C   UNL     1       5.236   6.561  15.926  0.00  0.00    +0.000 C 
BRANCH  18  19
ATOM     19  C   UNL     1       5.882   6.871  17.279  0.00  0.00    +0.000 C 
BRANCH  19  20
ATOM     20  C   UNL     1       7.381   6.573  17.287  0.00  0.00    +0.000 C 
BRANCH  20  21
ATOM     21  C   UNL     1       7.761   5.597  18.371  0.00  0.00    +0.000 C 
ATOM     22  O   UNL     1       7.905   4.393  18.227  0.00  0.00    +0.000 OA
BRANCH  21  23
ATOM     23  O   UNL     1       7.932   6.209  19.568  0.00  0.00    +0.000 OA
ATOM     24  H   UNL     1       7.127   6.651  19.901  0.00  0.00    +0.000 HD
ENDBRANCH  21  23
ENDBRANCH  20  21
ENDBRANCH  19  20
ENDBRANCH  18  19
ENDBRANCH  17  18
ENDBRANCH  15  16
ENDBRANCH  14  15
ENDBRANCH  13  14
ENDBRANCH   1  13
TORSDOF 16
ENDMDL
MODEL 7
REMARK VINA RESULT:      -5.6      3.200      4.231
REMARK  Name = 
REMARK  17 active torsions:
REMARK  status: ('A' for Active; 'I' for Inactive)
REMARK    1  A    between atoms: C_1  and  C_2
REMARK    2  A    between atoms: C_2  and  C_3
REMARK    3  A    between atoms: C_3  and  C_4
REMARK    4  A    between atoms: C_4  and  C_5
REMARK    5  A    between atoms: C_5  and  C_6
REMARK    6  A    between atoms: C_7  and  C_8
REMARK    7  A    between atoms: C_8  and  C_9
REMARK    8  A    between atoms: C_11  and  C_12
REMARK    9  A    between atoms: C_12  and  C_13
REMARK   10  A    between atoms: C_13  and  C_14
REMARK   11  A    between atoms: C_14  and  C_15
REMARK   12  A    between atoms: C_15  and  C_16
REMARK   13  A    between atoms: C_17  and  C_18
REMARK   14  A    between atoms: C_18  and  C_19
REMARK   15  A    between atoms: C_19  and  C_20
REMARK   16  A    between atoms: C_20  and  C_21
REMARK   17  A    between atoms: C_21  and  O_23
REMARK                            x       y       z     vdW  Elec       q    Type
REMARK                         _______ _______ _______ _____ _____    ______ ____
ROOT
ATOM      1  C   UNL     1       2.429   4.887  20.619  0.00  0.00    +0.000 C 
ENDROOT
BRANCH   1   4
ATOM      2  C   UNL     1       3.054   3.533  18.513  0.00  0.00    +0.000 C 
ATOM      3  O   UNL     1       3.800   3.084  19.656  0.00  0.00    +0.000 OA
ATOM      4  C   UNL     1       3.437   4.471  19.613  0.00  0.00    +0.000 C 
BRANCH   2   5
ATOM      5  C   UNL     1       3.801   3.614  17.227  0.00  0.00    +0.000 C 
BRANCH   5   7
ATOM      6  C   UNL     1       5.295   5.262  16.015  0.00  0.00    +0.000 C 
ATOM      7  C   UNL     1       4.368   4.972  16.940  0.00  0.00    +0.000 C 
BRANCH   6   8
ATOM      8  C   UNL     1       5.962   4.255  15.130  0.00  0.00    +0.000 C 
BRANCH   8   9
ATOM      9  C   UNL     1       5.361   4.225  13.727  0.00  0.00    +0.000 C 
BRANCH   9  10
ATOM     10  C   UNL     1       6.317   3.512  12.774  0.00  0.00    +0.000 C 
BRANCH  10  12
ATOM     11  C   UNL     1       6.449   1.524  11.253  0.00  0.00    +0.000 C 
ATOM     12  C   UNL     1       5.565   2.645  11.770  0.00  0.00    +0.000 C 
ENDBRANCH  10  12
ENDBRANCH   9  10
ENDBRANCH   8   9
ENDBRANCH   6   8
ENDBRANCH   5   7
ENDBRANCH   2   5
ENDBRANCH   1   4
BRANCH   1  13
ATOM     13  C   UNL     1       1.820   6.235  20.231  0.00  0.00    +0.000 C 
BRANCH  13  14
ATOM     14  C   UNL     1       2.770   7.077  19.380  0.00  0.00    +0.000 C 
BRANCH  14  15
ATOM     15  C   UNL     1       2.123   7.678  18.129  0.00  0.00    +0.000 C 
BRANCH  15  16
ATOM     16  C   UNL     1       2.317   9.167  18.055  0.00  0.00    +0.000 C 
ATOM     17  C   UNL     1       1.399  10.092  18.368  0.00  0.00    +0.000 C 
BRANCH  17  18
ATOM     18  C   UNL     1       0.024   9.801  18.893  0.00  0.00    +0.000 C 
BRANCH  18  19
ATOM     19  C   UNL     1      -0.159  10.344  20.312  0.00  0.00    +0.000 C 
BRANCH  19  20
ATOM     20  C   UNL     1       0.808   9.704  21.308  0.00  0.00    +0.000 C 
BRANCH  20  21
ATOM     21  C   UNL     1       0.133   9.347  22.607  0.00  0.00    +0.000 C 
ATOM     22  O   UNL     1       0.413   9.803  23.704  0.00  0.00    +0.000 OA
BRANCH  21  23
ATOM     23  O   UNL     1      -0.852   8.432  22.432  0.00  0.00    +0.000 OA
ATOM     24  H   UNL     1      -1.706   8.697  22.825  0.00  0.00    +0.000 HD
ENDBRANCH  21  23
ENDBRANCH  20  21
ENDBRANCH  19  20
ENDBRANCH  18  19
ENDBRANCH  17  18
ENDBRANCH  15  16
ENDBRANCH  14  15
ENDBRANCH  13  14
ENDBRANCH   1  13
TORSDOF 16
ENDMDL
MODEL 8
REMARK VINA RESULT:      -5.6      3.927      6.867
REMARK  Name = 
REMARK  17 active torsions:
REMARK  status: ('A' for Active; 'I' for Inactive)
REMARK    1  A    between atoms: C_1  and  C_2
REMARK    2  A    between atoms: C_2  and  C_3
REMARK    3  A    between atoms: C_3  and  C_4
REMARK    4  A    between atoms: C_4  and  C_5
REMARK    5  A    between atoms: C_5  and  C_6
REMARK    6  A    between atoms: C_7  and  C_8
REMARK    7  A    between atoms: C_8  and  C_9
REMARK    8  A    between atoms: C_11  and  C_12
REMARK    9  A    between atoms: C_12  and  C_13
REMARK   10  A    between atoms: C_13  and  C_14
REMARK   11  A    between atoms: C_14  and  C_15
REMARK   12  A    between atoms: C_15  and  C_16
REMARK   13  A    between atoms: C_17  and  C_18
REMARK   14  A    between atoms: C_18  and  C_19
REMARK   15  A    between atoms: C_19  and  C_20
REMARK   16  A    between atoms: C_20  and  C_21
REMARK   17  A    between atoms: C_21  and  O_23
REMARK                            x       y       z     vdW  Elec       q    Type
REMARK                         _______ _______ _______ _____ _____    ______ ____
ROOT
ATOM      1  C   UNL     1       4.505   3.761  16.906  0.00  0.00    +0.000 C 
ENDROOT
BRANCH   1   4
ATOM      2  C   UNL     1       3.007   2.425  18.527  0.00  0.00    +0.000 C 
ATOM      3  O   UNL     1       3.100   1.770  17.251  0.00  0.00    +0.000 OA
ATOM      4  C   UNL     1       3.177   3.202  17.261  0.00  0.00    +0.000 C 
BRANCH   2   5
ATOM      5  C   UNL     1       1.666   2.420  19.174  0.00  0.00    +0.000 C 
BRANCH   5   7
ATOM      6  C   UNL     1       1.528   3.787  21.302  0.00  0.00    +0.000 C 
ATOM      7  C   UNL     1       1.709   2.624  20.659  0.00  0.00    +0.000 C 
BRANCH   6   8
ATOM      8  C   UNL     1       1.292   5.106  20.632  0.00  0.00    +0.000 C 
BRANCH   8   9
ATOM      9  C   UNL     1       2.594   5.835  20.309  0.00  0.00    +0.000 C 
BRANCH   9  10
ATOM     10  C   UNL     1       2.287   7.269  19.884  0.00  0.00    +0.000 C 
BRANCH  10  12
ATOM     11  C   UNL     1       2.525   8.567  17.753  0.00  0.00    +0.000 C 
ATOM     12  C   UNL     1       1.904   7.347  18.410  0.00  0.00    +0.000 C 
ENDBRANCH  10  12
ENDBRANCH   9  10
ENDBRANCH   8   9
ENDBRANCH   6   8
ENDBRANCH   5   7
ENDBRANCH   2   5
ENDBRANCH   1   4
BRANCH   1  13
ATOM     13  C   UNL     1       4.562   5.249  17.254  0.00  0.00    +0.000 C 
BRANCH  13  14
ATOM     14  C   UNL     1       5.396   6.048  16.254  0.00  0.00    +0.000 C 
BRANCH  14  15
ATOM     15  C   UNL     1       6.905   5.813  16.368  0.00  0.00    +0.000 C 
BRANCH  15  16
ATOM     16  C   UNL     1       7.370   5.826  17.797  0.00  0.00    +0.000 C 
ATOM     17  C   UNL     1       7.775   6.908  18.477  0.00  0.00    +0.000 C 
BRANCH  17  18
ATOM     18  C   UNL     1       7.791   8.310  17.942  0.00  0.00    +0.000 C 
BRANCH  18  19
ATOM     19  C   UNL     1       8.927   9.130  18.557  0.00  0.00    +0.000 C 
BRANCH  19  20
ATOM     20  C   UNL     1       8.978  10.554  18.006  0.00  0.00    +0.000 C 
BRANCH  20  21
ATOM     21  C   UNL     1       9.232  11.574  19.087  0.00  0.00    +0.000 C 
ATOM     22  O   UNL     1       9.230  12.785  18.937  0.00  0.00    +0.000 OA
BRANCH  21  23
ATOM     23  O   UNL     1       9.473  10.992  20.287  0.00  0.00    +0.000 OA
ATOM     24  H   UNL     1       9.375  11.600  21.044  0.00  0.00    +0.000 HD
ENDBRANCH  21  23
ENDBRANCH  20  21
ENDBRANCH  19  20
ENDBRANCH  18  19
ENDBRANCH  17  18
ENDBRANCH  15  16
ENDBRANCH  14  15
ENDBRANCH  13  14
ENDBRANCH   1  13
TORSDOF 16
ENDMDL
MODEL 9
REMARK VINA RESULT:      -5.6      4.153      7.867
REMARK  Name = 
REMARK  17 active torsions:
REMARK  status: ('A' for Active; 'I' for Inactive)
REMARK    1  A    between atoms: C_1  and  C_2
REMARK    2  A    between atoms: C_2  and  C_3
REMARK    3  A    between atoms: C_3  and  C_4
REMARK    4  A    between atoms: C_4  and  C_5
REMARK    5  A    between atoms: C_5  and  C_6
REMARK    6  A    between atoms: C_7  and  C_8
REMARK    7  A    between atoms: C_8  and  C_9
REMARK    8  A    between atoms: C_11  and  C_12
REMARK    9  A    between atoms: C_12  and  C_13
REMARK   10  A    between atoms: C_13  and  C_14
REMARK   11  A    between atoms: C_14  and  C_15
REMARK   12  A    between atoms: C_15  and  C_16
REMARK   13  A    between atoms: C_17  and  C_18
REMARK   14  A    between atoms: C_18  and  C_19
REMARK   15  A    between atoms: C_19  and  C_20
REMARK   16  A    between atoms: C_20  and  C_21
REMARK   17  A    between atoms: C_21  and  O_23
REMARK                            x       y       z     vdW  Elec       q    Type
REMARK                         _______ _______ _______ _____ _____    ______ ____
ROOT
ATOM      1  C   UNL     1       6.079   4.283  17.668  0.00  0.00    +0.000 C 
ENDROOT
BRANCH   1   4
ATOM      2  C   UNL     1       3.677   5.119  18.105  0.00  0.00    +0.000 C 
ATOM      3  O   UNL     1       3.780   4.493  16.815  0.00  0.00    +0.000 OA
ATOM      4  C   UNL     1       4.943   5.169  17.311  0.00  0.00    +0.000 C 
BRANCH   2   5
ATOM      5  C   UNL     1       2.842   6.350  18.176  0.00  0.00    +0.000 C 
BRANCH   5   7
ATOM      6  C   UNL     1       1.998   6.234  20.561  0.00  0.00    +0.000 C 
ATOM      7  C   UNL     1       2.642   6.867  19.570  0.00  0.00    +0.000 C 
BRANCH   6   8
ATOM      8  C   UNL     1       1.321   4.905  20.429  0.00  0.00    +0.000 C 
BRANCH   8   9
ATOM      9  C   UNL     1       2.017   3.815  21.240  0.00  0.00    +0.000 C 
BRANCH   9  10
ATOM     10  C   UNL     1       1.445   2.450  20.863  0.00  0.00    +0.000 C 
BRANCH  10  12
ATOM     11  C   UNL     1       3.134   1.866  19.106  0.00  0.00    +0.000 C 
ATOM     12  C   UNL     1       1.667   2.139  19.387  0.00  0.00    +0.000 C 
ENDBRANCH  10  12
ENDBRANCH   9  10
ENDBRANCH   8   9
ENDBRANCH   6   8
ENDBRANCH   5   7
ENDBRANCH   2   5
ENDBRANCH   1   4
BRANCH   1  13
ATOM     13  C   UNL     1       7.289   5.119  18.088  0.00  0.00    +0.000 C 
BRANCH  13  14
ATOM     14  C   UNL     1       6.965   6.610  18.164  0.00  0.00    +0.000 C 
BRANCH  14  15
ATOM     15  C   UNL     1       8.193   7.509  18.337  0.00  0.00    +0.000 C 
BRANCH  15  16
ATOM     16  C   UNL     1       7.975   8.878  17.755  0.00  0.00    +0.000 C 
ATOM     17  C   UNL     1       8.511  10.017  18.215  0.00  0.00    +0.000 C 
BRANCH  17  18
ATOM     18  C   UNL     1       9.464  10.119  19.370  0.00  0.00    +0.000 C 
BRANCH  18  19
ATOM     19  C   UNL     1       9.423  11.510  20.006  0.00  0.00    +0.000 C 
BRANCH  19  20
ATOM     20  C   UNL     1       9.190  12.614  18.975  0.00  0.00    +0.000 C 
BRANCH  20  21
ATOM     21  C   UNL     1      10.466  13.032  18.291  0.00  0.00    +0.000 C 
ATOM     22  O   UNL     1      11.537  13.231  18.841  0.00  0.00    +0.000 OA
BRANCH  21  23
ATOM     23  O   UNL     1      10.301  13.174  16.953  0.00  0.00    +0.000 OA
ATOM     24  H   UNL     1      11.039  13.639  16.514  0.00  0.00    +0.000 HD
ENDBRANCH  21  23
ENDBRANCH  20  21
ENDBRANCH  19  20
ENDBRANCH  18  19
ENDBRANCH  17  18
ENDBRANCH  15  16
ENDBRANCH  14  15
ENDBRANCH  13  14
ENDBRANCH   1  13
TORSDOF 16
ENDMDL
