MODEL 1
REMARK VINA RESULT:      -5.6      0.000      0.000
REMARK  Name = 
REMARK  11 active torsions:
REMARK  status: ('A' for Active; 'I' for Inactive)
REMARK    1  A    between atoms: C_2  and  C_3
REMARK    2  A    between atoms: C_3  and  C_4
REMARK    3  A    between atoms: C_8  and  O_9
REMARK    4  A    between atoms: O_9  and  C_10
REMARK    5  A    between atoms: C_11  and  O_12
REMARK    6  A    between atoms: O_12  and  C_13
REMARK    7  A    between atoms: C_13  and  C_14
REMARK    8  A    between atoms: C_14  and  O_15
REMARK    9  A    between atoms: O_15  and  C_16
REMARK   10  A    between atoms: C_16  and  C_17
REMARK   11  A    between atoms: C_17  and  N_18
REMARK                            x       y       z     vdW  Elec       q    Type
REMARK                         _______ _______ _______ _____ _____    ______ ____
ROOT
ATOM      1  C   UNL     1       3.100   6.050  18.497  0.00  0.00    +0.000 A 
ATOM      2  C   UNL     1       1.994   5.409  17.853  0.00  0.00    +0.000 A 
ATOM      3  C   UNL     1       1.840   4.044  17.793  0.00  0.00    +0.000 A 
ATOM      4  C   UNL     1       2.708   3.220  18.469  0.00  0.00    +0.000 A 
ATOM      5  C   UNL     1       3.795   3.751  19.177  0.00  0.00    +0.000 A 
ATOM      6  C   UNL     1       4.097   5.157  19.164  0.00  0.00    +0.000 A 
ENDROOT
BRANCH   5   7
ATOM      7  O   UNL     1       4.467   2.880  20.000  0.00  0.00    +0.000 OA
ATOM      8  C   UNL     1       4.562   1.509  19.636  0.00  0.00    +0.000 C 
ENDBRANCH   5   7
BRANCH   1   9
ATOM      9  C   UNL     1       3.022   7.545  18.068  0.00  0.00    +0.000 C 
BRANCH   9  11
ATOM     10  C   UNL     1       1.010   9.314  17.896  0.00  0.00    +0.000 C 
ATOM     11  C   UNL     1       1.989   8.608  18.479  0.00  0.00    +0.000 C 
ENDBRANCH   9  11
ENDBRANCH   1   9
BRANCH   6  12
ATOM     12  O   UNL     1       5.378   5.576  19.715  0.00  0.00    +0.000 OA
BRANCH  12  13
ATOM     13  C   UNL     1       6.612   5.140  18.995  0.00  0.00    +0.000 C 
BRANCH  13  14
ATOM     14  C   UNL     1       6.956   4.973  17.453  0.00  0.00    +0.000 C 
BRANCH  14  15
ATOM     15  O   UNL     1       6.382   6.172  16.786  0.00  0.00    +0.000 OA
BRANCH  15  16
ATOM     16  C   UNL     1       5.409   5.964  15.740  0.00  0.00    +0.000 C 
BRANCH  16  17
ATOM     17  C   UNL     1       5.402   4.487  15.251  0.00  0.00    +0.000 C 
BRANCH  17  18
ATOM     18  N   UNL     1       6.091   4.291  13.981  0.00  0.00    +0.000 N 
ATOM     19  C   UNL     1       7.240   4.912  13.567  0.00  0.00    +0.000 A 
ATOM     20  C   UNL     1       7.469   4.446  12.292  0.00  0.00    +0.000 A 
ATOM     21  N   UNL     1       6.520   3.515  11.945  0.00  0.00    +0.000 NA
ATOM     22  C   UNL     1       5.718   3.426  12.981  0.00  0.00    +0.000 A 
ENDBRANCH  17  18
ENDBRANCH  16  17
ENDBRANCH  15  16
ENDBRANCH  14  15
ENDBRANCH  13  14
ENDBRANCH  12  13
ENDBRANCH   6  12
TORSDOF 10
ENDMDL
MODEL 2
REMARK VINA RESULT:      -5.6      2.231      3.300
REMARK  Name = 
REMARK  11 active torsions:
REMARK  status: ('A' for Active; 'I' for Inactive)
REMARK    1  A    between atoms: C_2  and  C_3
REMARK    2  A    between atoms: C_3  and  C_4
REMARK    3  A    between atoms: C_8  and  O_9
REMARK    4  A    between atoms: O_9  and  C_10
REMARK    5  A    between atoms: C_11  and  O_12
REMARK    6  A    between atoms: O_12  and  C_13
REMARK    7  A    between atoms: C_13  and  C_14
REMARK    8  A    between atoms: C_14  and  O_15
REMARK    9  A    between atoms: O_15  and  C_16
REMARK   10  A    between atoms: C_16  and  C_17
REMARK   11  A    between atoms: C_17  and  N_18
REMARK                            x       y       z     vdW  Elec       q    Type
REMARK                         _______ _______ _______ _____ _____    ______ ____
ROOT
ATOM      1  C   UNL     1       2.153   5.253  20.155  0.00  0.00    +0.000 A 
ATOM      2  C   UNL     1       1.014   4.592  20.713  0.00  0.00    +0.000 A 
ATOM      3  C   UNL     1       0.819   3.232  20.645  0.00  0.00    +0.000 A 
ATOM      4  C   UNL     1       1.797   2.418  20.123  0.00  0.00    +0.000 A 
ATOM      5  C   UNL     1       2.976   2.963  19.599  0.00  0.00    +0.000 A 
ATOM      6  C   UNL     1       3.184   4.384  19.509  0.00  0.00    +0.000 A 
ENDROOT
BRANCH   5   7
ATOM      7  O   UNL     1       3.981   2.071  19.312  0.00  0.00    +0.000 OA
ATOM      8  C   UNL     1       4.915   1.722  20.326  0.00  0.00    +0.000 C 
ENDBRANCH   5   7
BRANCH   1   9
ATOM      9  C   UNL     1       1.816   6.773  20.201  0.00  0.00    +0.000 C 
BRANCH   9  11
ATOM     10  C   UNL     1       2.392   7.954  17.860  0.00  0.00    +0.000 C 
ATOM     11  C   UNL     1       2.173   7.865  19.180  0.00  0.00    +0.000 C 
ENDBRANCH   9  11
ENDBRANCH   1   9
BRANCH   6  12
ATOM     12  O   UNL     1       4.320   4.850  18.726  0.00  0.00    +0.000 OA
BRANCH  12  13
ATOM     13  C   UNL     1       4.209   4.768  17.238  0.00  0.00    +0.000 C 
BRANCH  13  14
ATOM     14  C   UNL     1       4.690   3.684  16.181  0.00  0.00    +0.000 C 
BRANCH  14  15
ATOM     15  O   UNL     1       4.918   4.435  14.918  0.00  0.00    +0.000 OA
BRANCH  15  16
ATOM     16  C   UNL     1       5.994   5.397  14.888  0.00  0.00    +0.000 C 
BRANCH  16  17
ATOM     17  C   UNL     1       7.282   4.835  15.556  0.00  0.00    +0.000 C 
BRANCH  17  18
ATOM     18  N   UNL     1       7.500   5.330  16.910  0.00  0.00    +0.000 N 
ATOM     19  C   UNL     1       7.470   6.637  17.320  0.00  0.00    +0.000 A 
ATOM     20  C   UNL     1       7.783   6.607  18.660  0.00  0.00    +0.000 A 
ATOM     21  N   UNL     1       7.946   5.311  19.085  0.00  0.00    +0.000 NA
ATOM     22  C   UNL     1       7.751   4.565  18.022  0.00  0.00    +0.000 A 
ENDBRANCH  17  18
ENDBRANCH  16  17
ENDBRANCH  15  16
ENDBRANCH  14  15
ENDBRANCH  13  14
ENDBRANCH  12  13
ENDBRANCH   6  12
TORSDOF 10
ENDMDL
MODEL 3
REMARK VINA RESULT:      -5.5      4.710      5.773
REMARK  Name = 
REMARK  11 active torsions:
REMARK  status: ('A' for Active; 'I' for Inactive)
REMARK    1  A    between atoms: C_2  and  C_3
REMARK    2  A    between atoms: C_3  and  C_4
REMARK    3  A    between atoms: C_8  and  O_9
REMARK    4  A    between atoms: O_9  and  C_10
REMARK    5  A    between atoms: C_11  and  O_12
REMARK    6  A    between atoms: O_12  and  C_13
REMARK    7  A    between atoms: C_13  and  C_14
REMARK    8  A    between atoms: C_14  and  O_15
REMARK    9  A    between atoms: O_15  and  C_16
REMARK   10  A    between atoms: C_16  and  C_17
REMARK   11  A    between atoms: C_17  and  N_18
REMARK                            x       y       z     vdW  Elec       q    Type
REMARK                         _______ _______ _______ _____ _____    ______ ____
ROOT
ATOM      1  C   UNL     1       3.134   5.981  18.098  0.00  0.00    +0.000 A 
ATOM      2  C   UNL     1       2.050   5.047  18.083  0.00  0.00    +0.000 A 
ATOM      3  C   UNL     1       2.110   3.828  17.449  0.00  0.00    +0.000 A 
ATOM      4  C   UNL     1       3.288   3.398  16.886  0.00  0.00    +0.000 A 
ATOM      5  C   UNL     1       4.426   4.216  16.895  0.00  0.00    +0.000 A 
ATOM      6  C   UNL     1       4.394   5.557  17.415  0.00  0.00    +0.000 A 
ENDROOT
BRANCH   5   7
ATOM      7  O   UNL     1       5.605   3.620  16.518  0.00  0.00    +0.000 OA
ATOM      8  C   UNL     1       6.093   3.814  15.196  0.00  0.00    +0.000 C 
ENDBRANCH   5   7
BRANCH   1   9
ATOM      9  C   UNL     1       2.533   7.306  18.655  0.00  0.00    +0.000 C 
BRANCH   9  11
ATOM     10  C   UNL     1       1.991   9.838  17.948  0.00  0.00    +0.000 C 
ATOM     11  C   UNL     1       1.959   8.500  17.875  0.00  0.00    +0.000 C 
ENDBRANCH   9  11
ENDBRANCH   1   9
BRANCH   6  12
ATOM     12  O   UNL     1       5.546   6.408  17.152  0.00  0.00    +0.000 OA
BRANCH  12  13
ATOM     13  C   UNL     1       6.692   6.329  18.107  0.00  0.00    +0.000 C 
BRANCH  13  14
ATOM     14  C   UNL     1       8.000   7.210  18.295  0.00  0.00    +0.000 C 
BRANCH  14  15
ATOM     15  O   UNL     1       7.874   8.323  17.317  0.00  0.00    +0.000 OA
BRANCH  15  16
ATOM     16  C   UNL     1       7.956   9.675  17.816  0.00  0.00    +0.000 C 
BRANCH  16  17
ATOM     17  C   UNL     1       9.140   9.846  18.811  0.00  0.00    +0.000 C 
BRANCH  17  18
ATOM     18  N   UNL     1       9.753  11.168  18.765  0.00  0.00    +0.000 N 
ATOM     19  C   UNL     1       9.174  12.354  19.136  0.00  0.00    +0.000 A 
ATOM     20  C   UNL     1      10.115  13.320  18.865  0.00  0.00    +0.000 A 
ATOM     21  N   UNL     1      11.270  12.746  18.393  0.00  0.00    +0.000 NA
ATOM     22  C   UNL     1      11.034  11.455  18.362  0.00  0.00    +0.000 A 
ENDBRANCH  17  18
ENDBRANCH  16  17
ENDBRANCH  15  16
ENDBRANCH  14  15
ENDBRANCH  13  14
ENDBRANCH  12  13
ENDBRANCH   6  12
TORSDOF 10
ENDMDL
MODEL 4
REMARK VINA RESULT:      -5.5      4.279      7.374
REMARK  Name = 
REMARK  11 active torsions:
REMARK  status: ('A' for Active; 'I' for Inactive)
REMARK    1  A    between atoms: C_2  and  C_3
REMARK    2  A    between atoms: C_3  and  C_4
REMARK    3  A    between atoms: C_8  and  O_9
REMARK    4  A    between atoms: O_9  and  C_10
REMARK    5  A    between atoms: C_11  and  O_12
REMARK    6  A    between atoms: O_12  and  C_13
REMARK    7  A    between atoms: C_13  and  C_14
REMARK    8  A    between atoms: C_14  and  O_15
REMARK    9  A    between atoms: O_15  and  C_16
REMARK   10  A    between atoms: C_16  and  C_17
REMARK   11  A    between atoms: C_17  and  N_18
REMARK                            x       y       z     vdW  Elec       q    Type
REMARK                         _______ _______ _______ _____ _____    ______ ____
ROOT
ATOM      1  C   UNL     1       4.786   6.053  16.973  0.00  0.00    +0.000 A 
ATOM      2  C   UNL     1       5.305   4.826  16.452  0.00  0.00    +0.000 A 
ATOM      3  C   UNL     1       4.727   3.600  16.686  0.00  0.00    +0.000 A 
ATOM      4  C   UNL     1       3.528   3.516  17.353  0.00  0.00    +0.000 A 
ATOM      5  C   UNL     1       2.908   4.666  17.857  0.00  0.00    +0.000 A 
ATOM      6  C   UNL     1       3.526   5.963  17.773  0.00  0.00    +0.000 A 
ENDROOT
BRANCH   5   7
ATOM      7  O   UNL     1       1.617   4.514  18.303  0.00  0.00    +0.000 OA
ATOM      8  C   UNL     1       1.174   3.234  18.734  0.00  0.00    +0.000 C 
ENDBRANCH   5   7
BRANCH   1   9
ATOM      9  C   UNL     1       5.895   7.116  16.717  0.00  0.00    +0.000 C 
BRANCH   9  11
ATOM     10  C   UNL     1       7.981   8.366  17.854  0.00  0.00    +0.000 C 
ATOM     11  C   UNL     1       7.210   7.333  17.483  0.00  0.00    +0.000 C 
ENDBRANCH   9  11
ENDBRANCH   1   9
BRANCH   6  12
ATOM     12  O   UNL     1       2.928   7.045  18.542  0.00  0.00    +0.000 OA
BRANCH  12  13
ATOM     13  C   UNL     1       2.159   8.081  17.788  0.00  0.00    +0.000 C 
BRANCH  13  14
ATOM     14  C   UNL     1       1.751   9.578  18.128  0.00  0.00    +0.000 C 
BRANCH  14  15
ATOM     15  O   UNL     1       1.296   9.554  19.544  0.00  0.00    +0.000 OA
BRANCH  15  16
ATOM     16  C   UNL     1      -0.078   9.902  19.819  0.00  0.00    +0.000 C 
BRANCH  16  17
ATOM     17  C   UNL     1      -0.534  11.135  18.986  0.00  0.00    +0.000 C 
BRANCH  17  18
ATOM     18  N   UNL     1      -1.708  10.879  18.161  0.00  0.00    +0.000 N 
ATOM     19  C   UNL     1      -2.884  11.583  18.167  0.00  0.00    +0.000 A 
ATOM     20  C   UNL     1      -3.700  10.938  17.266  0.00  0.00    +0.000 A 
ATOM     21  N   UNL     1      -3.030   9.896  16.672  0.00  0.00    +0.000 NA
ATOM     22  C   UNL     1      -1.833   9.895  17.212  0.00  0.00    +0.000 A 
ENDBRANCH  17  18
ENDBRANCH  16  17
ENDBRANCH  15  16
ENDBRANCH  14  15
ENDBRANCH  13  14
ENDBRANCH  12  13
ENDBRANCH   6  12
TORSDOF 10
ENDMDL
MODEL 5
REMARK VINA RESULT:      -5.5      3.204      5.476
REMARK  Name = 
REMARK  11 active torsions:
REMARK  status: ('A' for Active; 'I' for Inactive)
REMARK    1  A    between atoms: C_2  and  C_3
REMARK    2  A    between atoms: C_3  and  C_4
REMARK    3  A    between atoms: C_8  and  O_9
REMARK    4  A    between atoms: O_9  and  C_10
REMARK    5  A    between atoms: C_11  and  O_12
REMARK    6  A    between atoms: O_12  and  C_13
REMARK    7  A    between atoms: C_13  and  C_14
REMARK    8  A    between atoms: C_14  and  O_15
REMARK    9  A    between atoms: O_15  and  C_16
REMARK   10  A    between atoms: C_16  and  C_17
REMARK   11  A    between atoms: C_17  and  N_18
REMARK                            x       y       z     vdW  Elec       q    Type
REMARK                         _______ _______ _______ _____ _____    ______ ____
ROOT
ATOM      1  C   UNL     1       1.377   8.315  20.301  0.00  0.00    +0.000 A 
ATOM      2  C   UNL     1       1.037   9.482  19.546  0.00  0.00    +0.000 A 
ATOM      3  C   UNL     1       1.572   9.768  18.312  0.00  0.00    +0.000 A 
ATOM      4  C   UNL     1       2.393   8.859  17.687  0.00  0.00    +0.000 A 
ATOM      5  C   UNL     1       2.744   7.659  18.319  0.00  0.00    +0.000 A 
ATOM      6  C   UNL     1       2.336   7.361  19.665  0.00  0.00    +0.000 A 
ENDROOT
BRANCH   5   7
ATOM      7  O   UNL     1       3.374   6.723  17.535  0.00  0.00    +0.000 OA
ATOM      8  C   UNL     1       4.749   6.894  17.213  0.00  0.00    +0.000 C 
ENDBRANCH   5   7
BRANCH   1   9
ATOM      9  C   UNL     1       0.782   8.551  21.721  0.00  0.00    +0.000 C 
BRANCH   9  11
ATOM     10  C   UNL     1      -0.737  10.124  23.279  0.00  0.00    +0.000 C 
ATOM     11  C   UNL     1      -0.317   9.537  22.148  0.00  0.00    +0.000 C 
ENDBRANCH   9  11
ENDBRANCH   1   9
BRANCH   6  12
ATOM     12  O   UNL     1       2.955   6.216  20.319  0.00  0.00    +0.000 OA
BRANCH  12  13
ATOM     13  C   UNL     1       2.089   5.031  20.596  0.00  0.00    +0.000 C 
BRANCH  13  14
ATOM     14  C   UNL     1       2.214   3.823  21.620  0.00  0.00    +0.000 C 
BRANCH  14  15
ATOM     15  O   UNL     1       1.292   2.773  21.109  0.00  0.00    +0.000 OA
BRANCH  15  16
ATOM     16  C   UNL     1       0.467   3.094  19.968  0.00  0.00    +0.000 C 
BRANCH  16  17
ATOM     17  C   UNL     1       0.815   2.203  18.741  0.00  0.00    +0.000 C 
BRANCH  17  18
ATOM     18  N   UNL     1       2.145   2.455  18.197  0.00  0.00    +0.000 N 
ATOM     19  C   UNL     1       2.508   3.477  17.360  0.00  0.00    +0.000 A 
ATOM     20  C   UNL     1       3.839   3.266  17.082  0.00  0.00    +0.000 A 
ATOM     21  N   UNL     1       4.307   2.176  17.775  0.00  0.00    +0.000 NA
ATOM     22  C   UNL     1       3.277   1.720  18.451  0.00  0.00    +0.000 A 
ENDBRANCH  17  18
ENDBRANCH  16  17
ENDBRANCH  15  16
ENDBRANCH  14  15
ENDBRANCH  13  14
ENDBRANCH  12  13
ENDBRANCH   6  12
TORSDOF 10
ENDMDL
MODEL 6
REMARK VINA RESULT:      -5.4      4.653      8.136
REMARK  Name = 
REMARK  11 active torsions:
REMARK  status: ('A' for Active; 'I' for Inactive)
REMARK    1  A    between atoms: C_2  and  C_3
REMARK    2  A    between atoms: C_3  and  C_4
REMARK    3  A    between atoms: C_8  and  O_9
REMARK    4  A    between atoms: O_9  and  C_10
REMARK    5  A    between atoms: C_11  and  O_12
REMARK    6  A    between atoms: O_12  and  C_13
REMARK    7  A    between atoms: C_13  and  C_14
REMARK    8  A    between atoms: C_14  and  O_15
REMARK    9  A    between atoms: O_15  and  C_16
REMARK   10  A    between atoms: C_16  and  C_17
REMARK   11  A    between atoms: C_17  and  N_18
REMARK                            x       y       z     vdW  Elec       q    Type
REMARK                         _______ _______ _______ _____ _____    ______ ____
ROOT
ATOM      1  C   UNL     1       3.472   5.127  17.948  0.00  0.00    +0.000 A 
ATOM      2  C   UNL     1       3.827   3.922  17.262  0.00  0.00    +0.000 A 
ATOM      3  C   UNL     1       4.782   3.866  16.275  0.00  0.00    +0.000 A 
ATOM      4  C   UNL     1       5.538   4.976  15.979  0.00  0.00    +0.000 A 
ATOM      5  C   UNL     1       5.306   6.194  16.633  0.00  0.00    +0.000 A 
ATOM      6  C   UNL     1       4.230   6.360  17.573  0.00  0.00    +0.000 A 
ENDROOT
BRANCH   5   7
ATOM      7  O   UNL     1       6.248   7.175  16.440  0.00  0.00    +0.000 OA
ATOM      8  C   UNL     1       7.311   7.316  17.374  0.00  0.00    +0.000 C 
ENDBRANCH   5   7
BRANCH   1   9
ATOM      9  C   UNL     1       2.176   4.787  18.742  0.00  0.00    +0.000 C 
BRANCH   9  11
ATOM     10  C   UNL     1       0.747   2.514  18.772  0.00  0.00    +0.000 C 
ATOM     11  C   UNL     1       1.656   3.409  19.185  0.00  0.00    +0.000 C 
ENDBRANCH   9  11
ENDBRANCH   1   9
BRANCH   6  12
ATOM     12  O   UNL     1       3.916   7.715  18.005  0.00  0.00    +0.000 OA
BRANCH  12  13
ATOM     13  C   UNL     1       2.487   8.146  17.930  0.00  0.00    +0.000 C 
BRANCH  13  14
ATOM     14  C   UNL     1       1.489   8.753  19.006  0.00  0.00    +0.000 C 
BRANCH  14  15
ATOM     15  O   UNL     1       1.816   8.066  20.284  0.00  0.00    +0.000 OA
BRANCH  15  16
ATOM     16  C   UNL     1       1.198   8.557  21.493  0.00  0.00    +0.000 C 
BRANCH  16  17
ATOM     17  C   UNL     1      -0.191   9.197  21.207  0.00  0.00    +0.000 C 
BRANCH  17  18
ATOM     18  N   UNL     1      -0.332  10.546  21.742  0.00  0.00    +0.000 N 
ATOM     19  C   UNL     1      -1.104  10.929  22.807  0.00  0.00    +0.000 A 
ATOM     20  C   UNL     1      -0.953  12.294  22.894  0.00  0.00    +0.000 A 
ATOM     21  N   UNL     1      -0.066  12.741  21.946  0.00  0.00    +0.000 NA
ATOM     22  C   UNL     1       0.307  11.671  21.281  0.00  0.00    +0.000 A 
ENDBRANCH  17  18
ENDBRANCH  16  17
ENDBRANCH  15  16
ENDBRANCH  14  15
ENDBRANCH  13  14
ENDBRANCH  12  13
ENDBRANCH   6  12
TORSDOF 10
ENDMDL
MODEL 7
REMARK VINA RESULT:      -5.4      4.876      8.169
REMARK  Name = 
REMARK  11 active torsions:
REMARK  status: ('A' for Active; 'I' for Inactive)
REMARK    1  A    between atoms: C_2  and  C_3
REMARK    2  A    between atoms: C_3  and  C_4
REMARK    3  A    between atoms: C_8  and  O_9
REMARK    4  A    between atoms: O_9  and  C_10
REMARK    5  A    between atoms: C_11  and  O_12
REMARK    6  A    between atoms: O_12  and  C_13
REMARK    7  A    between atoms: C_13  and  C_14
REMARK    8  A    between atoms: C_14  and  O_15
REMARK    9  A    between atoms: O_15  and  C_16
REMARK   10  A    between atoms: C_16  and  C_17
REMARK   11  A    between atoms: C_17  and  N_18
REMARK                            x       y       z     vdW  Elec       q    Type
REMARK                         _______ _______ _______ _____ _____    ______ ____
ROOT
ATOM      1  C   UNL     1       2.735   4.574  18.471  0.00  0.00    +0.000 A 
ATOM      2  C   UNL     1       3.165   3.531  17.591  0.00  0.00    +0.000 A 
ATOM      3  C   UNL     1       4.107   3.711  16.606  0.00  0.00    +0.000 A 
ATOM      4  C   UNL     1       4.776   4.908  16.499  0.00  0.00    +0.000 A 
ATOM      5  C   UNL     1       4.468   5.978  17.349  0.00  0.00    +0.000 A 
ATOM      6  C   UNL     1       3.397   5.905  18.307  0.00  0.00    +0.000 A 
ENDROOT
BRANCH   5   7
ATOM      7  O   UNL     1       5.334   7.044  17.321  0.00  0.00    +0.000 OA
ATOM      8  C   UNL     1       6.710   6.833  17.612  0.00  0.00    +0.000 C 
ENDBRANCH   5   7
BRANCH   1   9
ATOM      9  C   UNL     1       1.478   4.012  19.200  0.00  0.00    +0.000 C 
BRANCH   9  11
ATOM     10  C   UNL     1       1.498   2.783  21.587  0.00  0.00    +0.000 C 
ATOM     11  C   UNL     1       1.401   2.896  20.254  0.00  0.00    +0.000 C 
ENDBRANCH   9  11
ENDBRANCH   1   9
BRANCH   6  12
ATOM     12  O   UNL     1       2.993   7.142  18.961  0.00  0.00    +0.000 OA
BRANCH  12  13
ATOM     13  C   UNL     1       2.043   8.030  18.226  0.00  0.00    +0.000 C 
BRANCH  13  14
ATOM     14  C   UNL     1       2.128   9.547  17.762  0.00  0.00    +0.000 C 
BRANCH  14  15
ATOM     15  O   UNL     1       1.346  10.314  18.767  0.00  0.00    +0.000 OA
BRANCH  15  16
ATOM     16  C   UNL     1       0.459   9.579  19.639  0.00  0.00    +0.000 C 
BRANCH  16  17
ATOM     17  C   UNL     1       0.856   9.749  21.133  0.00  0.00    +0.000 C 
BRANCH  17  18
ATOM     18  N   UNL     1       0.051  10.737  21.841  0.00  0.00    +0.000 N 
ATOM     19  C   UNL     1      -0.059  12.071  21.545  0.00  0.00    +0.000 A 
ATOM     20  C   UNL     1      -0.882  12.594  22.516  0.00  0.00    +0.000 A 
ATOM     21  N   UNL     1      -1.320  11.602  23.359  0.00  0.00    +0.000 NA
ATOM     22  C   UNL     1      -0.763  10.496  22.921  0.00  0.00    +0.000 A 
ENDBRANCH  17  18
ENDBRANCH  16  17
ENDBRANCH  15  16
ENDBRANCH  14  15
ENDBRANCH  13  14
ENDBRANCH  12  13
ENDBRANCH   6  12
TORSDOF 10
ENDMDL
MODEL 8
REMARK VINA RESULT:      -5.4      1.942      2.550
REMARK  Name = 
REMARK  11 active torsions:
REMARK  status: ('A' for Active; 'I' for Inactive)
REMARK    1  A    between atoms: C_2  and  C_3
REMARK    2  A    between atoms: C_3  and  C_4
REMARK    3  A    between atoms: C_8  and  O_9
REMARK    4  A    between atoms: O_9  and  C_10
REMARK    5  A    between atoms: C_11  and  O_12
REMARK    6  A    between atoms: O_12  and  C_13
REMARK    7  A    between atoms: C_13  and  C_14
REMARK    8  A    between atoms: C_14  and  O_15
REMARK    9  A    between atoms: O_15  and  C_16
REMARK   10  A    between atoms: C_16  and  C_17
REMARK   11  A    between atoms: C_17  and  N_18
REMARK                            x       y       z     vdW  Elec       q    Type
REMARK                         _______ _______ _______ _____ _____    ______ ____
ROOT
ATOM      1  C   UNL     1       2.202   5.318  19.833  0.00  0.00    +0.000 A 
ATOM      2  C   UNL     1       1.237   4.667  20.667  0.00  0.00    +0.000 A 
ATOM      3  C   UNL     1       0.669   3.454  20.361  0.00  0.00    +0.000 A 
ATOM      4  C   UNL     1       1.102   2.742  19.267  0.00  0.00    +0.000 A 
ATOM      5  C   UNL     1       2.083   3.267  18.415  0.00  0.00    +0.000 A 
ATOM      6  C   UNL     1       2.618   4.590  18.595  0.00  0.00    +0.000 A 
ENDROOT
BRANCH   5   7
ATOM      7  O   UNL     1       2.611   2.399  17.490  0.00  0.00    +0.000 OA
ATOM      8  C   UNL     1       3.693   1.556  17.863  0.00  0.00    +0.000 C 
ENDBRANCH   5   7
BRANCH   1   9
ATOM      9  C   UNL     1       2.337   6.761  20.403  0.00  0.00    +0.000 C 
BRANCH   9  11
ATOM     10  C   UNL     1       0.612   8.715  21.049  0.00  0.00    +0.000 C 
ATOM     11  C   UNL     1       1.370   7.946  20.252  0.00  0.00    +0.000 C 
ENDBRANCH   9  11
ENDBRANCH   1   9
BRANCH   6  12
ATOM     12  O   UNL     1       3.438   5.137  17.523  0.00  0.00    +0.000 OA
BRANCH  12  13
ATOM     13  C   UNL     1       4.329   6.288  17.858  0.00  0.00    +0.000 C 
BRANCH  13  14
ATOM     14  C   UNL     1       5.289   7.198  16.978  0.00  0.00    +0.000 C 
BRANCH  14  15
ATOM     15  O   UNL     1       6.667   6.885  17.441  0.00  0.00    +0.000 OA
BRANCH  15  16
ATOM     16  C   UNL     1       6.861   5.692  18.232  0.00  0.00    +0.000 C 
BRANCH  16  17
ATOM     17  C   UNL     1       7.535   4.561  17.403  0.00  0.00    +0.000 C 
BRANCH  17  18
ATOM     18  N   UNL     1       6.995   4.425  16.056  0.00  0.00    +0.000 N 
ATOM     19  C   UNL     1       5.904   3.686  15.680  0.00  0.00    +0.000 A 
ATOM     20  C   UNL     1       5.820   3.826  14.314  0.00  0.00    +0.000 A 
ATOM     21  N   UNL     1       6.798   4.676  13.858  0.00  0.00    +0.000 NA
ATOM     22  C   UNL     1       7.476   5.036  14.924  0.00  0.00    +0.000 A 
ENDBRANCH  17  18
ENDBRANCH  16  17
ENDBRANCH  15  16
ENDBRANCH  14  15
ENDBRANCH  13  14
ENDBRANCH  12  13
ENDBRANCH   6  12
TORSDOF 10
ENDMDL
MODEL 9
REMARK VINA RESULT:      -5.4      4.662      8.026
REMARK  Name = 
REMARK  11 active torsions:
REMARK  status: ('A' for Active; 'I' for Inactive)
REMARK    1  A    between atoms: C_2  and  C_3
REMARK    2  A    between atoms: C_3  and  C_4
REMARK    3  A    between atoms: C_8  and  O_9
REMARK    4  A    between atoms: O_9  and  C_10
REMARK    5  A    between atoms: C_11  and  O_12
REMARK    6  A    between atoms: O_12  and  C_13
REMARK    7  A    between atoms: C_13  and  C_14
REMARK    8  A    between atoms: C_14  and  O_15
REMARK    9  A    between atoms: O_15  and  C_16
REMARK   10  A    between atoms: C_16  and  C_17
REMARK   11  A    between atoms: C_17  and  N_18
REMARK                            x       y       z     vdW  Elec       q    Type
REMARK                         _______ _______ _______ _____ _____    ______ ____
ROOT
ATOM      1  C   UNL     1       3.473   5.072  17.619  0.00  0.00    +0.000 A 
ATOM      2  C   UNL     1       3.951   4.050  16.739  0.00  0.00    +0.000 A 
ATOM      3  C   UNL     1       4.989   4.235  15.857  0.00  0.00    +0.000 A 
ATOM      4  C   UNL     1       5.705   5.410  15.867  0.00  0.00    +0.000 A 
ATOM      5  C   UNL     1       5.352   6.455  16.730  0.00  0.00    +0.000 A 
ATOM      6  C   UNL     1       4.191   6.382  17.578  0.00  0.00    +0.000 A 
ENDROOT
BRANCH   5   7
ATOM      7  O   UNL     1       6.251   7.488  16.832  0.00  0.00    +0.000 OA
ATOM      8  C   UNL     1       7.478   7.281  17.520  0.00  0.00    +0.000 C 
ENDBRANCH   5   7
BRANCH   1   9
ATOM      9  C   UNL     1       2.134   4.527  18.199  0.00  0.00    +0.000 C 
BRANCH   9  11
ATOM     10  C   UNL     1       0.648   2.396  18.874  0.00  0.00    +0.000 C 
ATOM     11  C   UNL     1       1.654   3.070  18.298  0.00  0.00    +0.000 C 
ENDBRANCH   9  11
ENDBRANCH   1   9
BRANCH   6  12
ATOM     12  O   UNL     1       3.767   7.606  18.245  0.00  0.00    +0.000 OA
BRANCH  12  13
ATOM     13  C   UNL     1       2.490   8.231  17.786  0.00  0.00    +0.000 C 
BRANCH  13  14
ATOM     14  C   UNL     1       1.957   9.727  17.803  0.00  0.00    +0.000 C 
BRANCH  14  15
ATOM     15  O   UNL     1       0.650   9.676  18.511  0.00  0.00    +0.000 OA
BRANCH  15  16
ATOM     16  C   UNL     1      -0.544   9.952  17.747  0.00  0.00    +0.000 C 
BRANCH  16  17
ATOM     17  C   UNL     1      -1.726  10.373  18.667  0.00  0.00    +0.000 C 
BRANCH  17  18
ATOM     18  N   UNL     1      -2.905  10.819  17.934  0.00  0.00    +0.000 N 
ATOM     19  C   UNL     1      -3.909  11.623  18.406  0.00  0.00    +0.000 A 
ATOM     20  C   UNL     1      -4.815  11.719  17.375  0.00  0.00    +0.000 A 
ATOM     21  N   UNL     1      -4.359  11.042  16.270  0.00  0.00    +0.000 NA
ATOM     22  C   UNL     1      -3.203  10.528  16.625  0.00  0.00    +0.000 A 
ENDBRANCH  17  18
ENDBRANCH  16  17
ENDBRANCH  15  16
ENDBRANCH  14  15
ENDBRANCH  13  14
ENDBRANCH  12  13
ENDBRANCH   6  12
TORSDOF 10
ENDMDL
