MODEL 1
REMARK VINA RESULT:      -7.2      0.000      0.000
REMARK  Name = 
REMARK  7 active torsions:
REMARK  status: ('A' for Active; 'I' for Inactive)
REMARK    1  A    between atoms: C_1  and  C_2
REMARK    2  A    between atoms: C_6  and  O_7
REMARK    3  A    between atoms: C_8  and  C_9
REMARK    4  A    between atoms: N_11  and  C_12
REMARK    5  A    between atoms: C_12  and  C_13
REMARK    6  A    between atoms: C_13  and  C_14
REMARK    7  A    between atoms: C_13  and  O_15
REMARK                            x       y       z     vdW  Elec       q    Type
REMARK                         _______ _______ _______ _____ _____    ______ ____
ROOT
ATOM      1  C   UNL     1       1.452   3.993  20.825  0.00  0.00    +0.000 C 
ATOM      2  C   UNL     1       2.400   3.976  19.665  0.00  0.00    +0.000 A 
ATOM      3  C   UNL     1       2.933   2.697  19.237  0.00  0.00    +0.000 A 
ATOM      4  C   UNL     1       3.775   2.631  18.195  0.00  0.00    +0.000 A 
ATOM      5  N   UNL     1       4.198   3.747  17.465  0.00  0.00    +0.000 N 
ATOM      6  C   UNL     1       5.098   3.728  16.393  0.00  0.00    +0.000 A 
ATOM      7  C   UNL     1       5.534   4.863  15.799  0.00  0.00    +0.000 A 
ATOM      8  C   UNL     1       4.988   6.152  16.320  0.00  0.00    +0.000 A 
ATOM      9  O   UNL     1       5.340   7.219  15.821  0.00  0.00    +0.000 OA
ATOM     10  N   UNL     1       4.087   6.135  17.360  0.00  0.00    +0.000 NA
ATOM     11  C   UNL     1       3.737   5.003  17.889  0.00  0.00    +0.000 A 
ATOM     12  C   UNL     1       2.774   5.106  19.036  0.00  0.00    +0.000 A 
ENDROOT
BRANCH   7  13
ATOM     13  C   UNL     1       6.520   4.819  14.669  0.00  0.00    +0.000 C 
ATOM     14  O   UNL     1       7.593   5.431  14.673  0.00  0.00    +0.000 OA
ATOM     15  N   UNL     1       6.191   4.038  13.584  0.00  0.00    +0.000 N 
ATOM     16  H   UNL     1       5.283   3.565  13.572  0.00  0.00    +0.000 HD
BRANCH  15  17
ATOM     17  C   UNL     1       7.043   3.959  12.412  0.00  0.00    +0.000 C 
BRANCH  17  18
ATOM     18  C   UNL     1       6.564   2.919  11.379  0.00  0.00    +0.000 C 
ATOM     19  C   UNL     1       5.101   2.568  11.617  0.00  0.00    +0.000 C 
BRANCH  18  20
ATOM     20  O   UNL     1       7.311   1.703  11.439  0.00  0.00    +0.000 OA
ATOM     21  H   UNL     1       6.938   1.157  12.158  0.00  0.00    +0.000 HD
ENDBRANCH  18  20
ENDBRANCH  17  18
ENDBRANCH  15  17
ENDBRANCH   7  13
BRANCH   6  22
ATOM     22  O   UNL     1       5.563   2.505  15.939  0.00  0.00    +0.000 OA
ATOM     23  H   UNL     1       6.484   2.572  15.662  0.00  0.00    +0.000 HD
ENDBRANCH   6  22
TORSDOF 5
ENDMDL
MODEL 2
REMARK VINA RESULT:      -7.0      1.580      1.831
REMARK  Name = 
REMARK  7 active torsions:
REMARK  status: ('A' for Active; 'I' for Inactive)
REMARK    1  A    between atoms: C_1  and  C_2
REMARK    2  A    between atoms: C_6  and  O_7
REMARK    3  A    between atoms: C_8  and  C_9
REMARK    4  A    between atoms: N_11  and  C_12
REMARK    5  A    between atoms: C_12  and  C_13
REMARK    6  A    between atoms: C_13  and  C_14
REMARK    7  A    between atoms: C_13  and  O_15
REMARK                            x       y       z     vdW  Elec       q    Type
REMARK                         _______ _______ _______ _____ _____    ______ ____
ROOT
ATOM      1  C   UNL     1       1.485   2.568  21.449  0.00  0.00    +0.000 C 
ATOM      2  C   UNL     1       2.297   2.947  20.248  0.00  0.00    +0.000 A 
ATOM      3  C   UNL     1       1.672   2.851  18.942  0.00  0.00    +0.000 A 
ATOM      4  C   UNL     1       2.357   3.192  17.841  0.00  0.00    +0.000 A 
ATOM      5  N   UNL     1       3.680   3.646  17.855  0.00  0.00    +0.000 N 
ATOM      6  C   UNL     1       4.440   3.982  16.729  0.00  0.00    +0.000 A 
ATOM      7  C   UNL     1       5.747   4.321  16.819  0.00  0.00    +0.000 A 
ATOM      8  C   UNL     1       6.346   4.351  18.186  0.00  0.00    +0.000 A 
ATOM      9  O   UNL     1       7.528   4.655  18.337  0.00  0.00    +0.000 OA
ATOM     10  N   UNL     1       5.565   4.038  19.275  0.00  0.00    +0.000 NA
ATOM     11  C   UNL     1       4.324   3.702  19.101  0.00  0.00    +0.000 A 
ATOM     12  C   UNL     1       3.577   3.350  20.355  0.00  0.00    +0.000 A 
ENDROOT
BRANCH   7  13
ATOM     13  C   UNL     1       6.550   4.652  15.594  0.00  0.00    +0.000 C 
ATOM     14  O   UNL     1       7.337   5.601  15.528  0.00  0.00    +0.000 OA
ATOM     15  N   UNL     1       6.389   3.829  14.503  0.00  0.00    +0.000 N 
ATOM     16  H   UNL     1       5.706   3.069  14.552  0.00  0.00    +0.000 HD
BRANCH  15  17
ATOM     17  C   UNL     1       7.074   4.080  13.248  0.00  0.00    +0.000 C 
BRANCH  17  18
ATOM     18  C   UNL     1       6.382   3.430  12.034  0.00  0.00    +0.000 C 
ATOM     19  C   UNL     1       4.869   3.457  12.206  0.00  0.00    +0.000 C 
BRANCH  18  20
ATOM     20  O   UNL     1       6.766   2.067  11.849  0.00  0.00    +0.000 OA
ATOM     21  H   UNL     1       7.675   1.962  12.191  0.00  0.00    +0.000 HD
ENDBRANCH  18  20
ENDBRANCH  17  18
ENDBRANCH  15  17
ENDBRANCH   7  13
BRANCH   6  22
ATOM     22  O   UNL     1       3.832   3.953  15.485  0.00  0.00    +0.000 OA
ATOM     23  H   UNL     1       2.970   3.522  15.537  0.00  0.00    +0.000 HD
ENDBRANCH   6  22
TORSDOF 5
ENDMDL
MODEL 3
REMARK VINA RESULT:      -6.9      3.639      5.509
REMARK  Name = 
REMARK  7 active torsions:
REMARK  status: ('A' for Active; 'I' for Inactive)
REMARK    1  A    between atoms: C_1  and  C_2
REMARK    2  A    between atoms: C_6  and  O_7
REMARK    3  A    between atoms: C_8  and  C_9
REMARK    4  A    between atoms: N_11  and  C_12
REMARK    5  A    between atoms: C_12  and  C_13
REMARK    6  A    between atoms: C_13  and  C_14
REMARK    7  A    between atoms: C_13  and  O_15
REMARK                            x       y       z     vdW  Elec       q    Type
REMARK                         _______ _______ _______ _____ _____    ______ ____
ROOT
ATOM      1  C   UNL     1       1.284   2.305  19.875  0.00  0.00    +0.000 C 
ATOM      2  C   UNL     1       2.301   3.241  19.296  0.00  0.00    +0.000 A 
ATOM      3  C   UNL     1       1.990   3.895  18.039  0.00  0.00    +0.000 A 
ATOM      4  C   UNL     1       2.865   4.749  17.489  0.00  0.00    +0.000 A 
ATOM      5  N   UNL     1       4.104   5.067  18.055  0.00  0.00    +0.000 N 
ATOM      6  C   UNL     1       5.058   5.929  17.501  0.00  0.00    +0.000 A 
ATOM      7  C   UNL     1       6.276   6.109  18.062  0.00  0.00    +0.000 A 
ATOM      8  C   UNL     1       6.555   5.367  19.328  0.00  0.00    +0.000 A 
ATOM      9  O   UNL     1       7.641   5.491  19.890  0.00  0.00    +0.000 OA
ATOM     10  N   UNL     1       5.587   4.546  19.859  0.00  0.00    +0.000 NA
ATOM     11  C   UNL     1       4.451   4.411  19.246  0.00  0.00    +0.000 A 
ATOM     12  C   UNL     1       3.483   3.467  19.899  0.00  0.00    +0.000 A 
ENDROOT
BRANCH   7  13
ATOM     13  C   UNL     1       7.293   7.017  17.435  0.00  0.00    +0.000 C 
ATOM     14  O   UNL     1       7.839   6.788  16.351  0.00  0.00    +0.000 OA
ATOM     15  N   UNL     1       7.609   8.168  18.121  0.00  0.00    +0.000 N 
ATOM     16  H   UNL     1       7.181   8.331  19.036  0.00  0.00    +0.000 HD
BRANCH  15  17
ATOM     17  C   UNL     1       8.615   9.095  17.637  0.00  0.00    +0.000 C 
BRANCH  17  18
ATOM     18  C   UNL     1       8.855  10.284  18.587  0.00  0.00    +0.000 C 
ATOM     19  C   UNL     1       9.832  11.274  17.966  0.00  0.00    +0.000 C 
BRANCH  18  20
ATOM     20  O   UNL     1       9.399   9.880  19.845  0.00  0.00    +0.000 OA
ATOM     21  H   UNL     1       9.999   9.125  19.684  0.00  0.00    +0.000 HD
ENDBRANCH  18  20
ENDBRANCH  17  18
ENDBRANCH  15  17
ENDBRANCH   7  13
BRANCH   6  22
ATOM     22  O   UNL     1       4.743   6.604  16.334  0.00  0.00    +0.000 OA
ATOM     23  H   UNL     1       5.481   7.156  16.050  0.00  0.00    +0.000 HD
ENDBRANCH   6  22
TORSDOF 5
ENDMDL
MODEL 4
REMARK VINA RESULT:      -6.9      1.096      1.239
REMARK  Name = 
REMARK  7 active torsions:
REMARK  status: ('A' for Active; 'I' for Inactive)
REMARK    1  A    between atoms: C_1  and  C_2
REMARK    2  A    between atoms: C_6  and  O_7
REMARK    3  A    between atoms: C_8  and  C_9
REMARK    4  A    between atoms: N_11  and  C_12
REMARK    5  A    between atoms: C_12  and  C_13
REMARK    6  A    between atoms: C_13  and  C_14
REMARK    7  A    between atoms: C_13  and  O_15
REMARK                            x       y       z     vdW  Elec       q    Type
REMARK                         _______ _______ _______ _____ _____    ______ ____
ROOT
ATOM      1  C   UNL     1       1.130   6.293  21.062  0.00  0.00    +0.000 C 
ATOM      2  C   UNL     1       2.066   5.800  20.002  0.00  0.00    +0.000 A 
ATOM      3  C   UNL     1       2.460   4.404  20.033  0.00  0.00    +0.000 A 
ATOM      4  C   UNL     1       3.287   3.916  19.096  0.00  0.00    +0.000 A 
ATOM      5  N   UNL     1       3.822   4.682  18.054  0.00  0.00    +0.000 N 
ATOM      6  C   UNL     1       4.711   4.220  17.076  0.00  0.00    +0.000 A 
ATOM      7  C   UNL     1       5.261   5.048  16.158  0.00  0.00    +0.000 A 
ATOM      8  C   UNL     1       4.855   6.484  16.211  0.00  0.00    +0.000 A 
ATOM      9  O   UNL     1       5.316   7.287  15.401  0.00  0.00    +0.000 OA
ATOM     10  N   UNL     1       3.961   6.900  17.170  0.00  0.00    +0.000 NA
ATOM     11  C   UNL     1       3.496   6.046  18.029  0.00  0.00    +0.000 A 
ATOM     12  C   UNL     1       2.553   6.617  19.049  0.00  0.00    +0.000 A 
ENDROOT
BRANCH   7  13
ATOM     13  C   UNL     1       6.233   4.536  15.135  0.00  0.00    +0.000 C 
ATOM     14  O   UNL     1       7.444   4.411  15.344  0.00  0.00    +0.000 OA
ATOM     15  N   UNL     1       5.719   4.182  13.908  0.00  0.00    +0.000 N 
ATOM     16  H   UNL     1       4.721   4.325  13.730  0.00  0.00    +0.000 HD
BRANCH  15  17
ATOM     17  C   UNL     1       6.569   3.723  12.826  0.00  0.00    +0.000 C 
BRANCH  17  18
ATOM     18  C   UNL     1       5.802   2.958  11.729  0.00  0.00    +0.000 C 
ATOM     19  C   UNL     1       4.316   3.288  11.791  0.00  0.00    +0.000 C 
BRANCH  18  20
ATOM     20  O   UNL     1       5.930   1.541  11.857  0.00  0.00    +0.000 OA
ATOM     21  H   UNL     1       5.368   1.255  12.604  0.00  0.00    +0.000 HD
ENDBRANCH  18  20
ENDBRANCH  17  18
ENDBRANCH  15  17
ENDBRANCH   7  13
BRANCH   6  22
ATOM     22  O   UNL     1       5.043   2.876  17.062  0.00  0.00    +0.000 OA
ATOM     23  H   UNL     1       4.387   2.368  16.570  0.00  0.00    +0.000 HD
ENDBRANCH   6  22
TORSDOF 5
ENDMDL
MODEL 5
REMARK VINA RESULT:      -6.8      4.813      6.734
REMARK  Name = 
REMARK  7 active torsions:
REMARK  status: ('A' for Active; 'I' for Inactive)
REMARK    1  A    between atoms: C_1  and  C_2
REMARK    2  A    between atoms: C_6  and  O_7
REMARK    3  A    between atoms: C_8  and  C_9
REMARK    4  A    between atoms: N_11  and  C_12
REMARK    5  A    between atoms: C_12  and  C_13
REMARK    6  A    between atoms: C_13  and  C_14
REMARK    7  A    between atoms: C_13  and  O_15
REMARK                            x       y       z     vdW  Elec       q    Type
REMARK                         _______ _______ _______ _____ _____    ______ ____
ROOT
ATOM      1  C   UNL     1      -1.115  12.240  22.512  0.00  0.00    +0.000 C 
ATOM      2  C   UNL     1      -0.377  11.085  21.907  0.00  0.00    +0.000 A 
ATOM      3  C   UNL     1      -0.070   9.949  22.756  0.00  0.00    +0.000 A 
ATOM      4  C   UNL     1       0.578   8.888  22.254  0.00  0.00    +0.000 A 
ATOM      5  N   UNL     1       1.000   8.791  20.923  0.00  0.00    +0.000 N 
ATOM      6  C   UNL     1       1.705   7.717  20.367  0.00  0.00    +0.000 A 
ATOM      7  C   UNL     1       2.164   7.740  19.095  0.00  0.00    +0.000 A 
ATOM      8  C   UNL     1       1.861   8.960  18.288  0.00  0.00    +0.000 A 
ATOM      9  O   UNL     1       2.246   9.042  17.123  0.00  0.00    +0.000 OA
ATOM     10  N   UNL     1       1.145   9.988  18.857  0.00  0.00    +0.000 NA
ATOM     11  C   UNL     1       0.759   9.896  20.093  0.00  0.00    +0.000 A 
ATOM     12  C   UNL     1       0.015  11.089  20.618  0.00  0.00    +0.000 A 
ENDROOT
BRANCH   7  13
ATOM     13  C   UNL     1       2.941   6.588  18.528  0.00  0.00    +0.000 C 
ATOM     14  O   UNL     1       2.555   5.415  18.571  0.00  0.00    +0.000 OA
ATOM     15  N   UNL     1       4.142   6.883  17.923  0.00  0.00    +0.000 N 
ATOM     16  H   UNL     1       4.472   7.851  17.926  0.00  0.00    +0.000 HD
BRANCH  15  17
ATOM     17  C   UNL     1       5.002   5.846  17.384  0.00  0.00    +0.000 C 
BRANCH  17  18
ATOM     18  C   UNL     1       6.125   5.422  18.352  0.00  0.00    +0.000 C 
ATOM     19  C   UNL     1       7.418   6.155  18.021  0.00  0.00    +0.000 C 
BRANCH  18  20
ATOM     20  O   UNL     1       6.400   4.022  18.292  0.00  0.00    +0.000 OA
ATOM     21  H   UNL     1       7.368   3.903  18.364  0.00  0.00    +0.000 HD
ENDBRANCH  18  20
ENDBRANCH  17  18
ENDBRANCH  15  17
ENDBRANCH   7  13
BRANCH   6  22
ATOM     22  O   UNL     1       1.947   6.604  21.155  0.00  0.00    +0.000 OA
ATOM     23  H   UNL     1       2.216   5.854  20.611  0.00  0.00    +0.000 HD
ENDBRANCH   6  22
TORSDOF 5
ENDMDL
MODEL 6
REMARK VINA RESULT:      -6.7      1.122      2.546
REMARK  Name = 
REMARK  7 active torsions:
REMARK  status: ('A' for Active; 'I' for Inactive)
REMARK    1  A    between atoms: C_1  and  C_2
REMARK    2  A    between atoms: C_6  and  O_7
REMARK    3  A    between atoms: C_8  and  C_9
REMARK    4  A    between atoms: N_11  and  C_12
REMARK    5  A    between atoms: C_12  and  C_13
REMARK    6  A    between atoms: C_13  and  C_14
REMARK    7  A    between atoms: C_13  and  O_15
REMARK                            x       y       z     vdW  Elec       q    Type
REMARK                         _______ _______ _______ _____ _____    ______ ____
ROOT
ATOM      1  C   UNL     1       1.397   6.455  20.836  0.00  0.00    +0.000 C 
ATOM      2  C   UNL     1       2.304   6.308  19.653  0.00  0.00    +0.000 A 
ATOM      3  C   UNL     1       2.524   7.469  18.811  0.00  0.00    +0.000 A 
ATOM      4  C   UNL     1       3.337   7.388  17.748  0.00  0.00    +0.000 A 
ATOM      5  N   UNL     1       4.011   6.221  17.372  0.00  0.00    +0.000 N 
ATOM      6  C   UNL     1       4.843   6.084  16.254  0.00  0.00    +0.000 A 
ATOM      7  C   UNL     1       5.383   4.894  15.902  0.00  0.00    +0.000 A 
ATOM      8  C   UNL     1       5.076   3.725  16.779  0.00  0.00    +0.000 A 
ATOM      9  O   UNL     1       5.540   2.617  16.516  0.00  0.00    +0.000 OA
ATOM     10  N   UNL     1       4.274   3.899  17.883  0.00  0.00    +0.000 NA
ATOM     11  C   UNL     1       3.778   5.070  18.139  0.00  0.00    +0.000 A 
ATOM     12  C   UNL     1       2.892   5.136  19.350  0.00  0.00    +0.000 A 
ENDROOT
BRANCH   7  13
ATOM     13  C   UNL     1       6.251   4.765  14.684  0.00  0.00    +0.000 C 
ATOM     14  O   UNL     1       7.271   5.436  14.496  0.00  0.00    +0.000 OA
ATOM     15  N   UNL     1       5.872   3.833  13.745  0.00  0.00    +0.000 N 
ATOM     16  H   UNL     1       5.005   3.309  13.889  0.00  0.00    +0.000 HD
BRANCH  15  17
ATOM     17  C   UNL     1       6.605   3.655  12.505  0.00  0.00    +0.000 C 
BRANCH  17  18
ATOM     18  C   UNL     1       5.827   2.848  11.447  0.00  0.00    +0.000 C 
ATOM     19  C   UNL     1       4.354   3.235  11.459  0.00  0.00    +0.000 C 
BRANCH  18  20
ATOM     20  O   UNL     1       5.901   1.439  11.670  0.00  0.00    +0.000 OA
ATOM     21  H   UNL     1       6.525   1.283  12.405  0.00  0.00    +0.000 HD
ENDBRANCH  18  20
ENDBRANCH  17  18
ENDBRANCH  15  17
ENDBRANCH   7  13
BRANCH   6  22
ATOM     22  O   UNL     1       5.107   7.203  15.482  0.00  0.00    +0.000 OA
ATOM     23  H   UNL     1       5.931   7.621  15.759  0.00  0.00    +0.000 HD
ENDBRANCH   6  22
TORSDOF 5
ENDMDL
MODEL 7
REMARK VINA RESULT:      -6.7      4.409      6.549
REMARK  Name = 
REMARK  7 active torsions:
REMARK  status: ('A' for Active; 'I' for Inactive)
REMARK    1  A    between atoms: C_1  and  C_2
REMARK    2  A    between atoms: C_6  and  O_7
REMARK    3  A    between atoms: C_8  and  C_9
REMARK    4  A    between atoms: N_11  and  C_12
REMARK    5  A    between atoms: C_12  and  C_13
REMARK    6  A    between atoms: C_13  and  C_14
REMARK    7  A    between atoms: C_13  and  O_15
REMARK                            x       y       z     vdW  Elec       q    Type
REMARK                         _______ _______ _______ _____ _____    ______ ____
ROOT
ATOM      1  C   UNL     1      -1.091  11.760  22.399  0.00  0.00    +0.000 C 
ATOM      2  C   UNL     1      -0.302  10.643  21.787  0.00  0.00    +0.000 A 
ATOM      3  C   UNL     1       0.031   9.504  22.621  0.00  0.00    +0.000 A 
ATOM      4  C   UNL     1       0.725   8.476  22.113  0.00  0.00    +0.000 A 
ATOM      5  N   UNL     1       1.173   8.418  20.788  0.00  0.00    +0.000 N 
ATOM      6  C   UNL     1       1.925   7.380  20.226  0.00  0.00    +0.000 A 
ATOM      7  C   UNL     1       2.405   7.443  18.962  0.00  0.00    +0.000 A 
ATOM      8  C   UNL     1       2.072   8.665  18.172  0.00  0.00    +0.000 A 
ATOM      9  O   UNL     1       2.473   8.782  17.015  0.00  0.00    +0.000 OA
ATOM     10  N   UNL     1       1.310   9.657  18.746  0.00  0.00    +0.000 NA
ATOM     11  C   UNL     1       0.907   9.528  19.973  0.00  0.00    +0.000 A 
ATOM     12  C   UNL     1       0.111  10.685  20.506  0.00  0.00    +0.000 A 
ENDROOT
BRANCH   7  13
ATOM     13  C   UNL     1       3.232   6.329  18.389  0.00  0.00    +0.000 C 
ATOM     14  O   UNL     1       4.421   6.452  18.075  0.00  0.00    +0.000 OA
ATOM     15  N   UNL     1       2.612   5.112  18.225  0.00  0.00    +0.000 N 
ATOM     16  H   UNL     1       1.617   5.029  18.452  0.00  0.00    +0.000 HD
BRANCH  15  17
ATOM     17  C   UNL     1       3.297   3.977  17.634  0.00  0.00    +0.000 C 
BRANCH  17  18
ATOM     18  C   UNL     1       4.013   3.090  18.671  0.00  0.00    +0.000 C 
ATOM     19  C   UNL     1       3.222   3.046  19.972  0.00  0.00    +0.000 C 
BRANCH  18  20
ATOM     20  O   UNL     1       5.325   3.562  18.984  0.00  0.00    +0.000 OA
ATOM     21  H   UNL     1       5.678   3.009  19.709  0.00  0.00    +0.000 HD
ENDBRANCH  18  20
ENDBRANCH  17  18
ENDBRANCH  15  17
ENDBRANCH   7  13
BRANCH   6  22
ATOM     22  O   UNL     1       2.194   6.262  20.997  0.00  0.00    +0.000 OA
ATOM     23  H   UNL     1       3.122   6.009  20.919  0.00  0.00    +0.000 HD
ENDBRANCH   6  22
TORSDOF 5
ENDMDL
MODEL 8
REMARK VINA RESULT:      -6.7      3.295      4.957
REMARK  Name = 
REMARK  7 active torsions:
REMARK  status: ('A' for Active; 'I' for Inactive)
REMARK    1  A    between atoms: C_1  and  C_2
REMARK    2  A    between atoms: C_6  and  O_7
REMARK    3  A    between atoms: C_8  and  C_9
REMARK    4  A    between atoms: N_11  and  C_12
REMARK    5  A    between atoms: C_12  and  C_13
REMARK    6  A    between atoms: C_13  and  C_14
REMARK    7  A    between atoms: C_13  and  O_15
REMARK                            x       y       z     vdW  Elec       q    Type
REMARK                         _______ _______ _______ _____ _____    ______ ____
ROOT
ATOM      1  C   UNL     1       0.467   2.138  18.934  0.00  0.00    +0.000 C 
ATOM      2  C   UNL     1       1.728   2.857  18.567  0.00  0.00    +0.000 A 
ATOM      3  C   UNL     1       2.952   2.085  18.463  0.00  0.00    +0.000 A 
ATOM      4  C   UNL     1       4.102   2.685  18.124  0.00  0.00    +0.000 A 
ATOM      5  N   UNL     1       4.217   4.054  17.858  0.00  0.00    +0.000 N 
ATOM      6  C   UNL     1       5.402   4.725  17.532  0.00  0.00    +0.000 A 
ATOM      7  C   UNL     1       5.449   6.069  17.385  0.00  0.00    +0.000 A 
ATOM      8  C   UNL     1       4.166   6.814  17.556  0.00  0.00    +0.000 A 
ATOM      9  O   UNL     1       4.141   8.037  17.430  0.00  0.00    +0.000 OA
ATOM     10  N   UNL     1       3.015   6.122  17.853  0.00  0.00    +0.000 NA
ATOM     11  C   UNL     1       3.059   4.833  17.999  0.00  0.00    +0.000 A 
ATOM     12  C   UNL     1       1.751   4.187  18.353  0.00  0.00    +0.000 A 
ENDROOT
BRANCH   7  13
ATOM     13  C   UNL     1       6.736   6.770  17.062  0.00  0.00    +0.000 C 
ATOM     14  O   UNL     1       7.549   6.359  16.227  0.00  0.00    +0.000 OA
ATOM     15  N   UNL     1       6.996   7.939  17.739  0.00  0.00    +0.000 N 
ATOM     16  H   UNL     1       6.337   8.252  18.457  0.00  0.00    +0.000 HD
BRANCH  15  17
ATOM     17  C   UNL     1       8.231   8.677  17.546  0.00  0.00    +0.000 C 
BRANCH  17  18
ATOM     18  C   UNL     1       8.435   9.805  18.576  0.00  0.00    +0.000 C 
ATOM     19  C   UNL     1       8.934  11.070  17.890  0.00  0.00    +0.000 C 
BRANCH  18  20
ATOM     20  O   UNL     1       9.387   9.463  19.585  0.00  0.00    +0.000 OA
ATOM     21  H   UNL     1      10.161   9.063  19.143  0.00  0.00    +0.000 HD
ENDBRANCH  18  20
ENDBRANCH  17  18
ENDBRANCH  15  17
ENDBRANCH   7  13
BRANCH   6  22
ATOM     22  O   UNL     1       6.561   3.984  17.371  0.00  0.00    +0.000 OA
ATOM     23  H   UNL     1       6.931   3.740  18.227  0.00  0.00    +0.000 HD
ENDBRANCH   6  22
TORSDOF 5
ENDMDL
MODEL 9
REMARK VINA RESULT:      -6.5      2.823      6.678
REMARK  Name = 
REMARK  7 active torsions:
REMARK  status: ('A' for Active; 'I' for Inactive)
REMARK    1  A    between atoms: C_1  and  C_2
REMARK    2  A    between atoms: C_6  and  O_7
REMARK    3  A    between atoms: C_8  and  C_9
REMARK    4  A    between atoms: N_11  and  C_12
REMARK    5  A    between atoms: C_12  and  C_13
REMARK    6  A    between atoms: C_13  and  C_14
REMARK    7  A    between atoms: C_13  and  O_15
REMARK                            x       y       z     vdW  Elec       q    Type
REMARK                         _______ _______ _______ _____ _____    ______ ____
ROOT
ATOM      1  C   UNL     1       7.861   5.112  12.603  0.00  0.00    +0.000 C 
ATOM      2  C   UNL     1       7.048   4.818  13.826  0.00  0.00    +0.000 A 
ATOM      3  C   UNL     1       5.725   4.249  13.647  0.00  0.00    +0.000 A 
ATOM      4  C   UNL     1       4.966   3.958  14.714  0.00  0.00    +0.000 A 
ATOM      5  N   UNL     1       5.366   4.174  16.037  0.00  0.00    +0.000 N 
ATOM      6  C   UNL     1       4.595   3.914  17.175  0.00  0.00    +0.000 A 
ATOM      7  C   UNL     1       5.015   4.243  18.419  0.00  0.00    +0.000 A 
ATOM      8  C   UNL     1       6.364   4.875  18.533  0.00  0.00    +0.000 A 
ATOM      9  O   UNL     1       6.807   5.193  19.635  0.00  0.00    +0.000 OA
ATOM     10  N   UNL     1       7.107   5.095  17.395  0.00  0.00    +0.000 NA
ATOM     11  C   UNL     1       6.621   4.770  16.237  0.00  0.00    +0.000 A 
ATOM     12  C   UNL     1       7.504   5.085  15.064  0.00  0.00    +0.000 A 
ENDROOT
BRANCH   7  13
ATOM     13  C   UNL     1       4.160   3.979  19.623  0.00  0.00    +0.000 C 
ATOM     14  O   UNL     1       4.324   3.018  20.382  0.00  0.00    +0.000 OA
ATOM     15  N   UNL     1       3.151   4.880  19.881  0.00  0.00    +0.000 N 
ATOM     16  H   UNL     1       2.998   5.651  19.226  0.00  0.00    +0.000 HD
BRANCH  15  17
ATOM     17  C   UNL     1       2.230   4.700  20.987  0.00  0.00    +0.000 C 
BRANCH  17  18
ATOM     18  C   UNL     1       1.149   3.635  20.714  0.00  0.00    +0.000 C 
ATOM     19  C   UNL     1       1.307   2.458  21.668  0.00  0.00    +0.000 C 
BRANCH  18  20
ATOM     20  O   UNL     1       1.213   3.118  19.384  0.00  0.00    +0.000 OA
ATOM     21  H   UNL     1       2.149   3.124  19.104  0.00  0.00    +0.000 HD
ENDBRANCH  18  20
ENDBRANCH  17  18
ENDBRANCH  15  17
ENDBRANCH   7  13
BRANCH   6  22
ATOM     22  O   UNL     1       3.358   3.314  17.016  0.00  0.00    +0.000 OA
ATOM     23  H   UNL     1       2.702   3.725  17.591  0.00  0.00    +0.000 HD
ENDBRANCH   6  22
TORSDOF 5
ENDMDL
