MODEL 1
REMARK VINA RESULT:      -7.4      0.000      0.000
REMARK  Name = 
REMARK  10 active torsions:
REMARK  status: ('A' for Active; 'I' for Inactive)
REMARK    1  A    between atoms: C_1  and  C_2
REMARK    2  A    between atoms: C_2  and  N_3
REMARK    3  A    between atoms: N_3  and  C_4
REMARK    4  A    between atoms: N_3  and  C_6
REMARK    5  A    between atoms: C_4  and  C_5
REMARK    6  A    between atoms: C_6  and  C_7
REMARK    7  A    between atoms: C_7  and  O_8
REMARK    8  A    between atoms: O_8  and  C_9
REMARK    9  A    between atoms: C_12  and  C_13
REMARK   10  A    between atoms: C_23  and  C_24
REMARK                            x       y       z     vdW  Elec       q    Type
REMARK                         _______ _______ _______ _____ _____    ______ ____
ROOT
ATOM      1  C   UNL     1       6.769   7.422  16.935  0.00  0.00    +0.000 C 
ATOM      2  C   UNL     1       5.307   7.137  16.617  0.00  0.00    +0.000 C 
ATOM      3  C   UNL     1       5.238   5.852  15.807  0.00  0.00    +0.000 C 
ATOM      4  C   UNL     1       5.437   4.621  16.719  0.00  0.00    +0.000 C 
ATOM      5  C   UNL     1       6.059   3.521  15.829  0.00  0.00    +0.000 C 
ATOM      6  C   UNL     1       6.411   4.984  17.833  0.00  0.00    +0.000 C 
ATOM      7  C   UNL     1       6.337   4.367  19.028  0.00  0.00    +0.000 C 
ATOM      8  C   UNL     1       5.283   3.373  19.425  0.00  0.00    +0.000 C 
ATOM      9  C   UNL     1       4.123   3.098  18.430  0.00  0.00    +0.000 C 
ATOM     10  C   UNL     1       2.701   2.755  19.078  0.00  0.00    +0.000 C 
ATOM     11  C   UNL     1       2.725   2.322  20.562  0.00  0.00    +0.000 C 
ATOM     12  C   UNL     1       2.517   3.593  21.400  0.00  0.00    +0.000 C 
ATOM     13  C   UNL     1       1.894   4.548  20.420  0.00  0.00    +0.000 C 
ATOM     14  O   UNL     1       1.611   5.702  20.690  0.00  0.00    +0.000 OA
ATOM     15  C   UNL     1       1.617   3.873  19.082  0.00  0.00    +0.000 C 
ATOM     16  C   UNL     1       0.168   3.351  19.156  0.00  0.00    +0.000 C 
ATOM     17  C   UNL     1       1.695   4.829  17.913  0.00  0.00    +0.000 C 
ATOM     18  C   UNL     1       3.109   5.295  17.682  0.00  0.00    +0.000 C 
ATOM     19  C   UNL     1       4.033   4.136  17.275  0.00  0.00    +0.000 C 
ATOM     20  C   UNL     1       7.403   6.137  17.587  0.00  0.00    +0.000 C 
ENDROOT
BRANCH   1  21
ATOM     21  O   UNL     1       6.895   8.549  17.808  0.00  0.00    +0.000 OA
BRANCH  21  22
ATOM     22  C   UNL     1       8.240   8.965  18.121  0.00  0.00    +0.000 C 
BRANCH  22  23
ATOM     23  C   UNL     1       8.376  10.426  17.670  0.00  0.00    +0.000 C 
BRANCH  23  24
ATOM     24  N   UNL     1       9.160  11.346  18.520  0.00  0.00    +0.000 NA
BRANCH  24  26
ATOM     25  C   UNL     1       9.297  11.275  21.051  0.00  0.00    +0.000 C 
ATOM     26  C   UNL     1       9.593  10.603  19.717  0.00  0.00    +0.000 C 
ENDBRANCH  24  26
BRANCH  24  27
ATOM     27  C   UNL     1      10.227  12.081  17.834  0.00  0.00    +0.000 C 
ATOM     28  C   UNL     1      11.655  11.705  18.206  0.00  0.00    +0.000 C 
ENDBRANCH  24  27
ENDBRANCH  23  24
ENDBRANCH  22  23
ENDBRANCH  21  22
ENDBRANCH   1  21
TORSDOF 6
ENDMDL
MODEL 2
REMARK VINA RESULT:      -7.3      0.411      1.229
REMARK  Name = 
REMARK  10 active torsions:
REMARK  status: ('A' for Active; 'I' for Inactive)
REMARK    1  A    between atoms: C_1  and  C_2
REMARK    2  A    between atoms: C_2  and  N_3
REMARK    3  A    between atoms: N_3  and  C_4
REMARK    4  A    between atoms: N_3  and  C_6
REMARK    5  A    between atoms: C_4  and  C_5
REMARK    6  A    between atoms: C_6  and  C_7
REMARK    7  A    between atoms: C_7  and  O_8
REMARK    8  A    between atoms: O_8  and  C_9
REMARK    9  A    between atoms: C_12  and  C_13
REMARK   10  A    between atoms: C_23  and  C_24
REMARK                            x       y       z     vdW  Elec       q    Type
REMARK                         _______ _______ _______ _____ _____    ______ ____
ROOT
ATOM      1  C   UNL     1       6.824   7.414  16.909  0.00  0.00    +0.000 C 
ATOM      2  C   UNL     1       5.357   7.146  16.598  0.00  0.00    +0.000 C 
ATOM      3  C   UNL     1       5.270   5.861  15.789  0.00  0.00    +0.000 C 
ATOM      4  C   UNL     1       5.458   4.628  16.700  0.00  0.00    +0.000 C 
ATOM      5  C   UNL     1       6.063   3.522  15.807  0.00  0.00    +0.000 C 
ATOM      6  C   UNL     1       6.442   4.981  17.809  0.00  0.00    +0.000 C 
ATOM      7  C   UNL     1       6.365   4.365  19.005  0.00  0.00    +0.000 C 
ATOM      8  C   UNL     1       5.302   3.383  19.407  0.00  0.00    +0.000 C 
ATOM      9  C   UNL     1       4.135   3.121  18.417  0.00  0.00    +0.000 C 
ATOM     10  C   UNL     1       2.712   2.795  19.071  0.00  0.00    +0.000 C 
ATOM     11  C   UNL     1       2.737   2.361  20.555  0.00  0.00    +0.000 C 
ATOM     12  C   UNL     1       2.548   3.635  21.394  0.00  0.00    +0.000 C 
ATOM     13  C   UNL     1       1.931   4.597  20.416  0.00  0.00    +0.000 C 
ATOM     14  O   UNL     1       1.663   5.755  20.688  0.00  0.00    +0.000 OA
ATOM     15  C   UNL     1       1.641   3.925  19.080  0.00  0.00    +0.000 C 
ATOM     16  C   UNL     1       0.186   3.419  19.161  0.00  0.00    +0.000 C 
ATOM     17  C   UNL     1       1.725   4.880  17.910  0.00  0.00    +0.000 C 
ATOM     18  C   UNL     1       3.143   5.330  17.673  0.00  0.00    +0.000 C 
ATOM     19  C   UNL     1       4.051   4.160  17.262  0.00  0.00    +0.000 C 
ATOM     20  C   UNL     1       7.445   6.122  17.558  0.00  0.00    +0.000 C 
ENDROOT
BRANCH   1  21
ATOM     21  O   UNL     1       6.966   8.540  17.782  0.00  0.00    +0.000 OA
BRANCH  21  22
ATOM     22  C   UNL     1       8.298   8.806  18.264  0.00  0.00    +0.000 C 
BRANCH  22  23
ATOM     23  C   UNL     1       8.640  10.250  17.870  0.00  0.00    +0.000 C 
BRANCH  23  24
ATOM     24  N   UNL     1       9.637  10.976  18.684  0.00  0.00    +0.000 NA
BRANCH  24  26
ATOM     25  C   UNL     1      10.909  12.672  17.292  0.00  0.00    +0.000 C 
ATOM     26  C   UNL     1       9.713  12.361  18.182  0.00  0.00    +0.000 C 
ENDBRANCH  24  26
BRANCH  24  27
ATOM     27  C   UNL     1       9.470  10.858  20.136  0.00  0.00    +0.000 C 
ATOM     28  C   UNL     1      10.115  11.946  20.983  0.00  0.00    +0.000 C 
ENDBRANCH  24  27
ENDBRANCH  23  24
ENDBRANCH  22  23
ENDBRANCH  21  22
ENDBRANCH   1  21
TORSDOF 6
ENDMDL
MODEL 3
REMARK VINA RESULT:      -7.3      3.614      6.520
REMARK  Name = 
REMARK  10 active torsions:
REMARK  status: ('A' for Active; 'I' for Inactive)
REMARK    1  A    between atoms: C_1  and  C_2
REMARK    2  A    between atoms: C_2  and  N_3
REMARK    3  A    between atoms: N_3  and  C_4
REMARK    4  A    between atoms: N_3  and  C_6
REMARK    5  A    between atoms: C_4  and  C_5
REMARK    6  A    between atoms: C_6  and  C_7
REMARK    7  A    between atoms: C_7  and  O_8
REMARK    8  A    between atoms: O_8  and  C_9
REMARK    9  A    between atoms: C_12  and  C_13
REMARK   10  A    between atoms: C_23  and  C_24
REMARK                            x       y       z     vdW  Elec       q    Type
REMARK                         _______ _______ _______ _____ _____    ______ ____
ROOT
ATOM      1  C   UNL     1       7.137   4.887  15.146  0.00  0.00    +0.000 C 
ATOM      2  C   UNL     1       7.010   3.894  16.294  0.00  0.00    +0.000 C 
ATOM      3  C   UNL     1       7.507   4.568  17.563  0.00  0.00    +0.000 C 
ATOM      4  C   UNL     1       6.452   5.559  18.103  0.00  0.00    +0.000 C 
ATOM      5  C   UNL     1       7.238   6.652  18.863  0.00  0.00    +0.000 C 
ATOM      6  C   UNL     1       5.717   6.188  16.926  0.00  0.00    +0.000 C 
ATOM      7  C   UNL     1       4.445   6.609  17.066  0.00  0.00    +0.000 C 
ATOM      8  C   UNL     1       3.606   6.432  18.299  0.00  0.00    +0.000 C 
ATOM      9  C   UNL     1       4.198   5.614  19.478  0.00  0.00    +0.000 C 
ATOM     10  C   UNL     1       3.156   4.768  20.347  0.00  0.00    +0.000 C 
ATOM     11  C   UNL     1       1.672   5.176  20.202  0.00  0.00    +0.000 C 
ATOM     12  C   UNL     1       1.074   4.297  19.093  0.00  0.00    +0.000 C 
ATOM     13  C   UNL     1       2.031   3.139  19.025  0.00  0.00    +0.000 C 
ATOM     14  O   UNL     1       1.930   2.226  18.223  0.00  0.00    +0.000 OA
ATOM     15  C   UNL     1       3.095   3.230  20.112  0.00  0.00    +0.000 C 
ATOM     16  C   UNL     1       2.553   2.426  21.312  0.00  0.00    +0.000 C 
ATOM     17  C   UNL     1       4.410   2.604  19.704  0.00  0.00    +0.000 C 
ATOM     18  C   UNL     1       5.080   3.402  18.615  0.00  0.00    +0.000 C 
ATOM     19  C   UNL     1       5.473   4.807  19.099  0.00  0.00    +0.000 C 
ATOM     20  C   UNL     1       6.429   6.230  15.560  0.00  0.00    +0.000 C 
ENDROOT
BRANCH   1  21
ATOM     21  O   UNL     1       6.563   4.360  13.945  0.00  0.00    +0.000 OA
BRANCH  21  22
ATOM     22  C   UNL     1       7.243   4.690  12.717  0.00  0.00    +0.000 C 
BRANCH  22  23
ATOM     23  C   UNL     1       6.601   3.846  11.606  0.00  0.00    +0.000 C 
BRANCH  23  24
ATOM     24  N   UNL     1       5.528   2.901  11.983  0.00  0.00    +0.000 NA
BRANCH  24  26
ATOM     25  C   UNL     1       3.518   3.268  10.482  0.00  0.00    +0.000 C 
ATOM     26  C   UNL     1       4.234   3.581  11.788  0.00  0.00    +0.000 C 
ENDBRANCH  24  26
BRANCH  24  27
ATOM     27  C   UNL     1       5.620   1.570  11.374  0.00  0.00    +0.000 C 
ATOM     28  C   UNL     1       7.003   1.131  10.912  0.00  0.00    +0.000 C 
ENDBRANCH  24  27
ENDBRANCH  23  24
ENDBRANCH  22  23
ENDBRANCH  21  22
ENDBRANCH   1  21
TORSDOF 6
ENDMDL
MODEL 4
REMARK VINA RESULT:      -7.3      3.702      6.554
REMARK  Name = 
REMARK  10 active torsions:
REMARK  status: ('A' for Active; 'I' for Inactive)
REMARK    1  A    between atoms: C_1  and  C_2
REMARK    2  A    between atoms: C_2  and  N_3
REMARK    3  A    between atoms: N_3  and  C_4
REMARK    4  A    between atoms: N_3  and  C_6
REMARK    5  A    between atoms: C_4  and  C_5
REMARK    6  A    between atoms: C_6  and  C_7
REMARK    7  A    between atoms: C_7  and  O_8
REMARK    8  A    between atoms: O_8  and  C_9
REMARK    9  A    between atoms: C_12  and  C_13
REMARK   10  A    between atoms: C_23  and  C_24
REMARK                            x       y       z     vdW  Elec       q    Type
REMARK                         _______ _______ _______ _____ _____    ______ ____
ROOT
ATOM      1  C   UNL     1       7.227   5.284  15.204  0.00  0.00    +0.000 C 
ATOM      2  C   UNL     1       6.970   4.113  16.142  0.00  0.00    +0.000 C 
ATOM      3  C   UNL     1       7.512   4.475  17.516  0.00  0.00    +0.000 C 
ATOM      4  C   UNL     1       6.562   5.457  18.237  0.00  0.00    +0.000 C 
ATOM      5  C   UNL     1       7.447   6.292  19.189  0.00  0.00    +0.000 C 
ATOM      6  C   UNL     1       5.924   6.375  17.201  0.00  0.00    +0.000 C 
ATOM      7  C   UNL     1       4.703   6.901  17.421  0.00  0.00    +0.000 C 
ATOM      8  C   UNL     1       3.825   6.588  18.599  0.00  0.00    +0.000 C 
ATOM      9  C   UNL     1       4.301   5.501  19.600  0.00  0.00    +0.000 C 
ATOM     10  C   UNL     1       3.155   4.627  20.294  0.00  0.00    +0.000 C 
ATOM     11  C   UNL     1       1.728   5.218  20.231  0.00  0.00    +0.000 C 
ATOM     12  C   UNL     1       1.060   4.637  18.976  0.00  0.00    +0.000 C 
ATOM     13  C   UNL     1       1.885   3.413  18.687  0.00  0.00    +0.000 C 
ATOM     14  O   UNL     1       1.700   2.686  17.727  0.00  0.00    +0.000 OA
ATOM     15  C   UNL     1       2.931   3.178  19.771  0.00  0.00    +0.000 C 
ATOM     16  C   UNL     1       2.281   2.227  20.796  0.00  0.00    +0.000 C 
ATOM     17  C   UNL     1       4.177   2.498  19.249  0.00  0.00    +0.000 C 
ATOM     18  C   UNL     1       4.952   3.408  18.331  0.00  0.00    +0.000 C 
ATOM     19  C   UNL     1       5.487   4.644  19.073  0.00  0.00    +0.000 C 
ATOM     20  C   UNL     1       6.663   6.595  15.868  0.00  0.00    +0.000 C 
ENDROOT
BRANCH   1  21
ATOM     21  O   UNL     1       6.623   5.062  13.926  0.00  0.00    +0.000 OA
BRANCH  21  22
ATOM     22  C   UNL     1       6.353   3.688  13.579  0.00  0.00    +0.000 C 
BRANCH  22  23
ATOM     23  C   UNL     1       4.971   3.656  12.912  0.00  0.00    +0.000 C 
BRANCH  23  24
ATOM     24  N   UNL     1       4.876   3.124  11.536  0.00  0.00    +0.000 NA
BRANCH  24  26
ATOM     25  C   UNL     1       6.983   1.882  10.868  0.00  0.00    +0.000 C 
ATOM     26  C   UNL     1       5.596   1.838  11.494  0.00  0.00    +0.000 C 
ENDBRANCH  24  26
BRANCH  24  27
ATOM     27  C   UNL     1       3.525   3.089  10.967  0.00  0.00    +0.000 C 
ATOM     28  C   UNL     1       3.277   3.977   9.756  0.00  0.00    +0.000 C 
ENDBRANCH  24  27
ENDBRANCH  23  24
ENDBRANCH  22  23
ENDBRANCH  21  22
ENDBRANCH   1  21
TORSDOF 6
ENDMDL
MODEL 5
REMARK VINA RESULT:      -7.1      3.745      6.738
REMARK  Name = 
REMARK  10 active torsions:
REMARK  status: ('A' for Active; 'I' for Inactive)
REMARK    1  A    between atoms: C_1  and  C_2
REMARK    2  A    between atoms: C_2  and  N_3
REMARK    3  A    between atoms: N_3  and  C_4
REMARK    4  A    between atoms: N_3  and  C_6
REMARK    5  A    between atoms: C_4  and  C_5
REMARK    6  A    between atoms: C_6  and  C_7
REMARK    7  A    between atoms: C_7  and  O_8
REMARK    8  A    between atoms: O_8  and  C_9
REMARK    9  A    between atoms: C_12  and  C_13
REMARK   10  A    between atoms: C_23  and  C_24
REMARK                            x       y       z     vdW  Elec       q    Type
REMARK                         _______ _______ _______ _____ _____    ______ ____
ROOT
ATOM      1  C   UNL     1       6.560   4.836  14.955  0.00  0.00    +0.000 C 
ATOM      2  C   UNL     1       6.555   3.843  16.109  0.00  0.00    +0.000 C 
ATOM      3  C   UNL     1       7.173   4.521  17.323  0.00  0.00    +0.000 C 
ATOM      4  C   UNL     1       6.171   5.505  17.967  0.00  0.00    +0.000 C 
ATOM      5  C   UNL     1       7.023   6.603  18.644  0.00  0.00    +0.000 C 
ATOM      6  C   UNL     1       5.318   6.129  16.869  0.00  0.00    +0.000 C 
ATOM      7  C   UNL     1       4.064   6.542  17.137  0.00  0.00    +0.000 C 
ATOM      8  C   UNL     1       3.354   6.360  18.449  0.00  0.00    +0.000 C 
ATOM      9  C   UNL     1       4.067   5.546  19.561  0.00  0.00    +0.000 C 
ATOM     10  C   UNL     1       3.123   4.693  20.531  0.00  0.00    +0.000 C 
ATOM     11  C   UNL     1       1.629   5.092  20.536  0.00  0.00    +0.000 C 
ATOM     12  C   UNL     1       0.929   4.208  19.491  0.00  0.00    +0.000 C 
ATOM     13  C   UNL     1       1.881   3.056  19.327  0.00  0.00    +0.000 C 
ATOM     14  O   UNL     1       1.706   2.143  18.540  0.00  0.00    +0.000 OA
ATOM     15  C   UNL     1       3.048   3.155  20.302  0.00  0.00    +0.000 C 
ATOM     16  C   UNL     1       2.635   2.347  21.550  0.00  0.00    +0.000 C 
ATOM     17  C   UNL     1       4.319   2.537  19.763  0.00  0.00    +0.000 C 
ATOM     18  C   UNL     1       4.871   3.339  18.613  0.00  0.00    +0.000 C 
ATOM     19  C   UNL     1       5.303   4.747  19.055  0.00  0.00    +0.000 C 
ATOM     20  C   UNL     1       5.889   6.175  15.439  0.00  0.00    +0.000 C 
ENDROOT
BRANCH   1  21
ATOM     21  O   UNL     1       5.871   4.306  13.817  0.00  0.00    +0.000 OA
BRANCH  21  22
ATOM     22  C   UNL     1       6.489   4.536  12.535  0.00  0.00    +0.000 C 
BRANCH  22  23
ATOM     23  C   UNL     1       7.016   3.182  12.040  0.00  0.00    +0.000 C 
BRANCH  23  24
ATOM     24  N   UNL     1       6.155   2.387  11.140  0.00  0.00    +0.000 NA
BRANCH  24  26
ATOM     25  C   UNL     1       5.967  -0.139  11.258  0.00  0.00    +0.000 C 
ATOM     26  C   UNL     1       6.808   1.084  10.918  0.00  0.00    +0.000 C 
ENDBRANCH  24  26
BRANCH  24  27
ATOM     27  C   UNL     1       4.743   2.308  11.528  0.00  0.00    +0.000 C 
ATOM     28  C   UNL     1       3.780   3.207  10.765  0.00  0.00    +0.000 C 
ENDBRANCH  24  27
ENDBRANCH  23  24
ENDBRANCH  22  23
ENDBRANCH  21  22
ENDBRANCH   1  21
TORSDOF 6
ENDMDL
MODEL 6
REMARK VINA RESULT:      -7.1      3.472      9.511
REMARK  Name = 
REMARK  10 active torsions:
REMARK  status: ('A' for Active; 'I' for Inactive)
REMARK    1  A    between atoms: C_1  and  C_2
REMARK    2  A    between atoms: C_2  and  N_3
REMARK    3  A    between atoms: N_3  and  C_4
REMARK    4  A    between atoms: N_3  and  C_6
REMARK    5  A    between atoms: C_4  and  C_5
REMARK    6  A    between atoms: C_6  and  C_7
REMARK    7  A    between atoms: C_7  and  O_8
REMARK    8  A    between atoms: O_8  and  C_9
REMARK    9  A    between atoms: C_12  and  C_13
REMARK   10  A    between atoms: C_23  and  C_24
REMARK                            x       y       z     vdW  Elec       q    Type
REMARK                         _______ _______ _______ _____ _____    ______ ____
ROOT
ATOM      1  C   UNL     1       9.285  10.795  18.321  0.00  0.00    +0.000 C 
ATOM      2  C   UNL     1       9.531  10.596  19.811  0.00  0.00    +0.000 C 
ATOM      3  C   UNL     1      10.580  11.603  20.258  0.00  0.00    +0.000 C 
ATOM      4  C   UNL     1       9.961  13.012  20.393  0.00  0.00    +0.000 C 
ATOM      5  C   UNL     1      11.108  14.013  20.126  0.00  0.00    +0.000 C 
ATOM      6  C   UNL     1       8.883  13.181  19.330  0.00  0.00    +0.000 C 
ATOM      7  C   UNL     1       7.838  14.004  19.548  0.00  0.00    +0.000 C 
ATOM      8  C   UNL     1       7.568  14.739  20.830  0.00  0.00    +0.000 C 
ATOM      9  C   UNL     1       8.497  14.463  22.042  0.00  0.00    +0.000 C 
ATOM     10  C   UNL     1       7.817  14.545  23.488  0.00  0.00    +0.000 C 
ATOM     11  C   UNL     1       6.462  15.286  23.553  0.00  0.00    +0.000 C 
ATOM     12  C   UNL     1       5.365  14.224  23.375  0.00  0.00    +0.000 C 
ATOM     13  C   UNL     1       6.071  12.944  23.726  0.00  0.00    +0.000 C 
ATOM     14  O   UNL     1       5.546  11.846  23.666  0.00  0.00    +0.000 OA
ATOM     15  C   UNL     1       7.491  13.206  24.213  0.00  0.00    +0.000 C 
ATOM     16  C   UNL     1       7.405  13.320  25.749  0.00  0.00    +0.000 C 
ATOM     17  C   UNL     1       8.441  12.072  23.896  0.00  0.00    +0.000 C 
ATOM     18  C   UNL     1       8.688  11.965  22.413  0.00  0.00    +0.000 C 
ATOM     19  C   UNL     1       9.402  13.211  21.863  0.00  0.00    +0.000 C 
ATOM     20  C   UNL     1       8.968  12.314  18.060  0.00  0.00    +0.000 C 
ENDROOT
BRANCH   1  21
ATOM     21  O   UNL     1       8.212   9.966  17.862  0.00  0.00    +0.000 OA
BRANCH  21  22
ATOM     22  C   UNL     1       8.352   8.551  18.103  0.00  0.00    +0.000 C 
BRANCH  22  23
ATOM     23  C   UNL     1       7.279   7.843  17.264  0.00  0.00    +0.000 C 
BRANCH  23  24
ATOM     24  N   UNL     1       7.431   6.394  17.020  0.00  0.00    +0.000 NA
BRANCH  24  26
ATOM     25  C   UNL     1       6.333   5.360  19.059  0.00  0.00    +0.000 C 
ATOM     26  C   UNL     1       7.614   5.729  18.324  0.00  0.00    +0.000 C 
ENDBRANCH  24  26
BRANCH  24  27
ATOM     27  C   UNL     1       6.407   5.789  16.162  0.00  0.00    +0.000 C 
ATOM     28  C   UNL     1       6.905   4.859  15.065  0.00  0.00    +0.000 C 
ENDBRANCH  24  27
ENDBRANCH  23  24
ENDBRANCH  22  23
ENDBRANCH  21  22
ENDBRANCH   1  21
TORSDOF 6
ENDMDL
MODEL 7
REMARK VINA RESULT:      -6.9      3.295      9.584
REMARK  Name = 
REMARK  10 active torsions:
REMARK  status: ('A' for Active; 'I' for Inactive)
REMARK    1  A    between atoms: C_1  and  C_2
REMARK    2  A    between atoms: C_2  and  N_3
REMARK    3  A    between atoms: N_3  and  C_4
REMARK    4  A    between atoms: N_3  and  C_6
REMARK    5  A    between atoms: C_4  and  C_5
REMARK    6  A    between atoms: C_6  and  C_7
REMARK    7  A    between atoms: C_7  and  O_8
REMARK    8  A    between atoms: O_8  and  C_9
REMARK    9  A    between atoms: C_12  and  C_13
REMARK   10  A    between atoms: C_23  and  C_24
REMARK                            x       y       z     vdW  Elec       q    Type
REMARK                         _______ _______ _______ _____ _____    ______ ____
ROOT
ATOM      1  C   UNL     1       9.386  10.760  18.281  0.00  0.00    +0.000 C 
ATOM      2  C   UNL     1       9.605  10.585  19.778  0.00  0.00    +0.000 C 
ATOM      3  C   UNL     1      10.667  11.578  20.223  0.00  0.00    +0.000 C 
ATOM      4  C   UNL     1      10.076  13.001  20.323  0.00  0.00    +0.000 C 
ATOM      5  C   UNL     1      11.248  13.973  20.057  0.00  0.00    +0.000 C 
ATOM      6  C   UNL     1       9.018  13.173  19.241  0.00  0.00    +0.000 C 
ATOM      7  C   UNL     1       7.987  14.021  19.428  0.00  0.00    +0.000 C 
ATOM      8  C   UNL     1       7.712  14.784  20.692  0.00  0.00    +0.000 C 
ATOM      9  C   UNL     1       8.617  14.512  21.923  0.00  0.00    +0.000 C 
ATOM     10  C   UNL     1       7.917  14.634  23.357  0.00  0.00    +0.000 C 
ATOM     11  C   UNL     1       6.576  15.403  23.387  0.00  0.00    +0.000 C 
ATOM     12  C   UNL     1       5.460  14.362  23.211  0.00  0.00    +0.000 C 
ATOM     13  C   UNL     1       6.134  13.073  23.596  0.00  0.00    +0.000 C 
ATOM     14  O   UNL     1       5.587  11.985  23.548  0.00  0.00    +0.000 OA
ATOM     15  C   UNL     1       7.552  13.315  24.100  0.00  0.00    +0.000 C 
ATOM     16  C   UNL     1       7.444  13.460  25.632  0.00  0.00    +0.000 C 
ATOM     17  C   UNL     1       8.482  12.157  23.818  0.00  0.00    +0.000 C 
ATOM     18  C   UNL     1       8.750  12.018  22.342  0.00  0.00    +0.000 C 
ATOM     19  C   UNL     1       9.498  13.238  21.781  0.00  0.00    +0.000 C 
ATOM     20  C   UNL     1       9.105  12.281  17.988  0.00  0.00    +0.000 C 
ENDROOT
BRANCH   1  21
ATOM     21  O   UNL     1       8.303   9.946  17.821  0.00  0.00    +0.000 OA
BRANCH  21  22
ATOM     22  C   UNL     1       8.305   8.574  18.264  0.00  0.00    +0.000 C 
BRANCH  22  23
ATOM     23  C   UNL     1       7.419   7.784  17.290  0.00  0.00    +0.000 C 
BRANCH  23  24
ATOM     24  N   UNL     1       6.452   6.820  17.855  0.00  0.00    +0.000 NA
BRANCH  24  26
ATOM     25  C   UNL     1       4.228   5.741  17.290  0.00  0.00    +0.000 C 
ATOM     26  C   UNL     1       5.446   6.524  16.819  0.00  0.00    +0.000 C 
ENDBRANCH  24  26
BRANCH  24  27
ATOM     27  C   UNL     1       7.041   5.639  18.494  0.00  0.00    +0.000 C 
ATOM     28  C   UNL     1       7.629   4.588  17.563  0.00  0.00    +0.000 C 
ENDBRANCH  24  27
ENDBRANCH  23  24
ENDBRANCH  22  23
ENDBRANCH  21  22
ENDBRANCH   1  21
TORSDOF 6
ENDMDL
MODEL 8
REMARK VINA RESULT:      -6.8      3.330      9.580
REMARK  Name = 
REMARK  10 active torsions:
REMARK  status: ('A' for Active; 'I' for Inactive)
REMARK    1  A    between atoms: C_1  and  C_2
REMARK    2  A    between atoms: C_2  and  N_3
REMARK    3  A    between atoms: N_3  and  C_4
REMARK    4  A    between atoms: N_3  and  C_6
REMARK    5  A    between atoms: C_4  and  C_5
REMARK    6  A    between atoms: C_6  and  C_7
REMARK    7  A    between atoms: C_7  and  O_8
REMARK    8  A    between atoms: O_8  and  C_9
REMARK    9  A    between atoms: C_12  and  C_13
REMARK   10  A    between atoms: C_23  and  C_24
REMARK                            x       y       z     vdW  Elec       q    Type
REMARK                         _______ _______ _______ _____ _____    ______ ____
ROOT
ATOM      1  C   UNL     1       9.141  10.494  18.230  0.00  0.00    +0.000 C 
ATOM      2  C   UNL     1       9.335  10.315  19.730  0.00  0.00    +0.000 C 
ATOM      3  C   UNL     1      10.523  11.162  20.160  0.00  0.00    +0.000 C 
ATOM      4  C   UNL     1      10.132  12.654  20.235  0.00  0.00    +0.000 C 
ATOM      5  C   UNL     1      11.424  13.453  19.954  0.00  0.00    +0.000 C 
ATOM      6  C   UNL     1       9.106  12.950  19.148  0.00  0.00    +0.000 C 
ATOM      7  C   UNL     1       8.201  13.933  19.318  0.00  0.00    +0.000 C 
ATOM      8  C   UNL     1       8.033  14.749  20.568  0.00  0.00    +0.000 C 
ATOM      9  C   UNL     1       8.893  14.377  21.806  0.00  0.00    +0.000 C 
ATOM     10  C   UNL     1       8.217  14.618  23.236  0.00  0.00    +0.000 C 
ATOM     11  C   UNL     1       6.994  15.563  23.251  0.00  0.00    +0.000 C 
ATOM     12  C   UNL     1       5.747  14.680  23.091  0.00  0.00    +0.000 C 
ATOM     13  C   UNL     1       6.239  13.319  23.499  0.00  0.00    +0.000 C 
ATOM     14  O   UNL     1       5.549  12.315  23.468  0.00  0.00    +0.000 OA
ATOM     15  C   UNL     1       7.677  13.374  24.001  0.00  0.00    +0.000 C 
ATOM     16  C   UNL     1       7.591  13.558  25.530  0.00  0.00    +0.000 C 
ATOM     17  C   UNL     1       8.440  12.095  23.741  0.00  0.00    +0.000 C 
ATOM     18  C   UNL     1       8.686  11.895  22.268  0.00  0.00    +0.000 C 
ATOM     19  C   UNL     1       9.593  12.993  21.687  0.00  0.00    +0.000 C 
ATOM     20  C   UNL     1       9.069  12.033  17.910  0.00  0.00    +0.000 C 
ENDROOT
BRANCH   1  21
ATOM     21  O   UNL     1       7.957   9.826  17.782  0.00  0.00    +0.000 OA
BRANCH  21  22
ATOM     22  C   UNL     1       8.031   8.389  17.692  0.00  0.00    +0.000 C 
BRANCH  22  23
ATOM     23  C   UNL     1       6.594   7.874  17.527  0.00  0.00    +0.000 C 
BRANCH  23  24
ATOM     24  N   UNL     1       6.357   6.769  16.574  0.00  0.00    +0.000 NA
BRANCH  24  26
ATOM     25  C   UNL     1       6.994   4.629  17.776  0.00  0.00    +0.000 C 
ATOM     26  C   UNL     1       7.384   5.738  16.808  0.00  0.00    +0.000 C 
ENDBRANCH  24  26
BRANCH  24  27
ATOM     27  C   UNL     1       4.981   6.265  16.526  0.00  0.00    +0.000 C 
ATOM     28  C   UNL     1       3.992   6.903  17.491  0.00  0.00    +0.000 C 
ENDBRANCH  24  27
ENDBRANCH  23  24
ENDBRANCH  22  23
ENDBRANCH  21  22
ENDBRANCH   1  21
TORSDOF 6
ENDMDL
MODEL 9
REMARK VINA RESULT:      -6.6      3.664     10.356
REMARK  Name = 
REMARK  10 active torsions:
REMARK  status: ('A' for Active; 'I' for Inactive)
REMARK    1  A    between atoms: C_1  and  C_2
REMARK    2  A    between atoms: C_2  and  N_3
REMARK    3  A    between atoms: N_3  and  C_4
REMARK    4  A    between atoms: N_3  and  C_6
REMARK    5  A    between atoms: C_4  and  C_5
REMARK    6  A    between atoms: C_6  and  C_7
REMARK    7  A    between atoms: C_7  and  O_8
REMARK    8  A    between atoms: O_8  and  C_9
REMARK    9  A    between atoms: C_12  and  C_13
REMARK   10  A    between atoms: C_23  and  C_24
REMARK                            x       y       z     vdW  Elec       q    Type
REMARK                         _______ _______ _______ _____ _____    ______ ____
ROOT
ATOM      1  C   UNL     1       9.597  10.333  18.858  0.00  0.00    +0.000 C 
ATOM      2  C   UNL     1       9.349  10.982  20.213  0.00  0.00    +0.000 C 
ATOM      3  C   UNL     1      10.577  11.800  20.580  0.00  0.00    +0.000 C 
ATOM      4  C   UNL     1      10.610  13.123  19.783  0.00  0.00    +0.000 C 
ATOM      5  C   UNL     1      12.101  13.504  19.643  0.00  0.00    +0.000 C 
ATOM      6  C   UNL     1      10.015  12.881  18.402  0.00  0.00    +0.000 C 
ATOM      7  C   UNL     1       9.407  13.884  17.739  0.00  0.00    +0.000 C 
ATOM      8  C   UNL     1       9.163  15.261  18.288  0.00  0.00    +0.000 C 
ATOM      9  C   UNL     1       9.545  15.539  19.766  0.00  0.00    +0.000 C 
ATOM     10  C   UNL     1       8.625  16.587  20.550  0.00  0.00    +0.000 C 
ATOM     11  C   UNL     1       7.750  17.506  19.667  0.00  0.00    +0.000 C 
ATOM     12  C   UNL     1       6.389  16.811  19.512  0.00  0.00    +0.000 C 
ATOM     13  C   UNL     1       6.364  15.850  20.669  0.00  0.00    +0.000 C 
ATOM     14  O   UNL     1       5.453  15.068  20.876  0.00  0.00    +0.000 OA
ATOM     15  C   UNL     1       7.585  16.023  21.563  0.00  0.00    +0.000 C 
ATOM     16  C   UNL     1       7.171  17.019  22.667  0.00  0.00    +0.000 C 
ATOM     17  C   UNL     1       8.003  14.740  22.245  0.00  0.00    +0.000 C 
ATOM     18  C   UNL     1       8.546  13.746  21.250  0.00  0.00    +0.000 C 
ATOM     19  C   UNL     1       9.838  14.251  20.588  0.00  0.00    +0.000 C 
ATOM     20  C   UNL     1      10.038  11.447  17.839  0.00  0.00    +0.000 C 
ENDROOT
BRANCH   1  21
ATOM     21  O   UNL     1       8.426   9.653  18.392  0.00  0.00    +0.000 OA
BRANCH  21  22
ATOM     22  C   UNL     1       8.428   8.218  18.523  0.00  0.00    +0.000 C 
BRANCH  22  23
ATOM     23  C   UNL     1       7.464   7.667  17.463  0.00  0.00    +0.000 C 
BRANCH  23  24
ATOM     24  N   UNL     1       7.472   6.212  17.205  0.00  0.00    +0.000 NA
BRANCH  24  26
ATOM     25  C   UNL     1       6.310   5.223  19.230  0.00  0.00    +0.000 C 
ATOM     26  C   UNL     1       7.613   5.520  18.499  0.00  0.00    +0.000 C 
ENDBRANCH  24  26
BRANCH  24  27
ATOM     27  C   UNL     1       6.381   5.717  16.359  0.00  0.00    +0.000 C 
ATOM     28  C   UNL     1       5.219   6.672  16.126  0.00  0.00    +0.000 C 
ENDBRANCH  24  27
ENDBRANCH  23  24
ENDBRANCH  22  23
ENDBRANCH  21  22
ENDBRANCH   1  21
TORSDOF 6
ENDMDL
