MODEL 1
REMARK VINA RESULT:      -8.8      0.000      0.000
REMARK  Name = 
REMARK  5 active torsions:
REMARK  status: ('A' for Active; 'I' for Inactive)
REMARK    1  A    between atoms: C_1  and  S_2
REMARK    2  A    between atoms: S_2  and  C_5
REMARK    3  A    between atoms: C_8  and  C_9
REMARK    4  A    between atoms: C_11  and  C_12
REMARK    5  A    between atoms: C_19  and  C_20
REMARK                            x       y       z     vdW  Elec       q    Type
REMARK                         _______ _______ _______ _____ _____    ______ ____
ROOT
ATOM      1  C   UNL     1       3.306   6.110  17.966  0.00  0.00    +0.000 A 
ATOM      2  N   UNL     1       4.046   6.330  16.821  0.00  0.00    +0.000 NA
ATOM      3  C   UNL     1       4.615   5.178  16.520  0.00  0.00    +0.000 A 
ATOM      4  N   UNL     1       4.194   4.213  17.403  0.00  0.00    +0.000 N 
ATOM      5  C   UNL     1       3.333   4.765  18.327  0.00  0.00    +0.000 A 
ATOM      6  H   UNL     1       4.448   3.239  17.350  0.00  0.00    +0.000 HD
ENDROOT
BRANCH   1  10
ATOM      7  C   UNL     1       1.139   9.202  19.938  0.00  0.00    +0.000 A 
ATOM      8  C   UNL     1       1.484   9.348  18.592  0.00  0.00    +0.000 A 
ATOM      9  C   UNL     1       2.199   8.327  17.946  0.00  0.00    +0.000 A 
ATOM     10  C   UNL     1       2.596   7.186  18.651  0.00  0.00    +0.000 A 
ATOM     11  C   UNL     1       2.278   7.092  20.018  0.00  0.00    +0.000 A 
ATOM     12  C   UNL     1       1.527   8.073  20.657  0.00  0.00    +0.000 A 
BRANCH   7  14
ATOM     13  C   UNL     1      -0.295   9.726  22.271  0.00  0.00    +0.000 C 
ATOM     14  S   UNL     1       0.272  10.501  20.779  0.00  0.00    +0.000 S 
ATOM     15  O   UNL     1      -0.891  10.843  19.981  0.00  0.00    +0.000 OA
ATOM     16  O   UNL     1       1.243  11.512  21.148  0.00  0.00    +0.000 OA
ENDBRANCH   7  14
ENDBRANCH   1  10
BRANCH   3  17
ATOM     17  C   UNL     1       5.547   4.910  15.424  0.00  0.00    +0.000 A 
ATOM     18  C   UNL     1       6.831   5.480  15.395  0.00  0.00    +0.000 A 
ATOM     19  C   UNL     1       7.695   5.240  14.324  0.00  0.00    +0.000 A 
ATOM     20  C   UNL     1       7.291   4.425  13.272  0.00  0.00    +0.000 A 
ATOM     21  C   UNL     1       6.024   3.842  13.292  0.00  0.00    +0.000 A 
ATOM     22  C   UNL     1       5.157   4.086  14.361  0.00  0.00    +0.000 A 
ENDBRANCH   3  17
BRANCH   5  23
ATOM     23  C   UNL     1       2.665   3.982  19.362  0.00  0.00    +0.000 A 
ATOM     24  C   UNL     1       3.363   3.468  20.471  0.00  0.00    +0.000 A 
ATOM     25  C   UNL     1       2.684   2.779  21.471  0.00  0.00    +0.000 A 
ATOM     26  C   UNL     1       1.302   2.615  21.415  0.00  0.00    +0.000 A 
ATOM     27  C   UNL     1       0.595   3.121  20.328  0.00  0.00    +0.000 A 
ATOM     28  C   UNL     1       1.282   3.748  19.297  0.00  0.00    +0.000 A 
ENDBRANCH   5  23
TORSDOF 4
ENDMDL
MODEL 2
REMARK VINA RESULT:      -8.6      0.674      1.305
REMARK  Name = 
REMARK  5 active torsions:
REMARK  status: ('A' for Active; 'I' for Inactive)
REMARK    1  A    between atoms: C_1  and  S_2
REMARK    2  A    between atoms: S_2  and  C_5
REMARK    3  A    between atoms: C_8  and  C_9
REMARK    4  A    between atoms: C_11  and  C_12
REMARK    5  A    between atoms: C_19  and  C_20
REMARK                            x       y       z     vdW  Elec       q    Type
REMARK                         _______ _______ _______ _____ _____    ______ ____
ROOT
ATOM      1  C   UNL     1       3.305   6.124  17.910  0.00  0.00    +0.000 A 
ATOM      2  N   UNL     1       4.036   6.345  16.759  0.00  0.00    +0.000 NA
ATOM      3  C   UNL     1       4.598   5.193  16.450  0.00  0.00    +0.000 A 
ATOM      4  N   UNL     1       4.183   4.226  17.333  0.00  0.00    +0.000 N 
ATOM      5  C   UNL     1       3.332   4.778  18.267  0.00  0.00    +0.000 A 
ATOM      6  H   UNL     1       4.433   3.252  17.275  0.00  0.00    +0.000 HD
ENDROOT
BRANCH   1  10
ATOM      7  C   UNL     1       1.167   9.218  19.910  0.00  0.00    +0.000 A 
ATOM      8  C   UNL     1       1.529   9.380  18.571  0.00  0.00    +0.000 A 
ATOM      9  C   UNL     1       2.234   8.359  17.916  0.00  0.00    +0.000 A 
ATOM     10  C   UNL     1       2.605   7.200  18.605  0.00  0.00    +0.000 A 
ATOM     11  C   UNL     1       2.271   7.088  19.967  0.00  0.00    +0.000 A 
ATOM     12  C   UNL     1       1.528   8.071  20.615  0.00  0.00    +0.000 A 
BRANCH   7  14
ATOM     13  C   UNL     1      -0.745  11.208  19.518  0.00  0.00    +0.000 C 
ATOM     14  S   UNL     1       0.312  10.517  20.763  0.00  0.00    +0.000 S 
ATOM     15  O   UNL     1       1.292  11.524  21.128  0.00  0.00    +0.000 OA
ATOM     16  O   UNL     1      -0.532   9.903  21.769  0.00  0.00    +0.000 OA
ENDBRANCH   7  14
ENDBRANCH   1  10
BRANCH   3  17
ATOM     17  C   UNL     1       5.519   4.926  15.343  0.00  0.00    +0.000 A 
ATOM     18  C   UNL     1       5.155   4.098  14.269  0.00  0.00    +0.000 A 
ATOM     19  C   UNL     1       6.058   3.827  13.237  0.00  0.00    +0.000 A 
ATOM     20  C   UNL     1       7.333   4.383  13.265  0.00  0.00    +0.000 A 
ATOM     21  C   UNL     1       7.705   5.217  14.319  0.00  0.00    +0.000 A 
ATOM     22  C   UNL     1       6.803   5.484  15.353  0.00  0.00    +0.000 A 
ENDBRANCH   3  17
BRANCH   5  23
ATOM     23  C   UNL     1       2.671   3.993  19.305  0.00  0.00    +0.000 A 
ATOM     24  C   UNL     1       3.383   3.450  20.391  0.00  0.00    +0.000 A 
ATOM     25  C   UNL     1       2.712   2.760  21.397  0.00  0.00    +0.000 A 
ATOM     26  C   UNL     1       1.327   2.625  21.369  0.00  0.00    +0.000 A 
ATOM     27  C   UNL     1       0.605   3.160  20.305  0.00  0.00    +0.000 A 
ATOM     28  C   UNL     1       1.283   3.788  19.268  0.00  0.00    +0.000 A 
ENDBRANCH   5  23
TORSDOF 4
ENDMDL
MODEL 3
REMARK VINA RESULT:      -8.6      0.641      1.357
REMARK  Name = 
REMARK  5 active torsions:
REMARK  status: ('A' for Active; 'I' for Inactive)
REMARK    1  A    between atoms: C_1  and  S_2
REMARK    2  A    between atoms: S_2  and  C_5
REMARK    3  A    between atoms: C_8  and  C_9
REMARK    4  A    between atoms: C_11  and  C_12
REMARK    5  A    between atoms: C_19  and  C_20
REMARK                            x       y       z     vdW  Elec       q    Type
REMARK                         _______ _______ _______ _____ _____    ______ ____
ROOT
ATOM      1  C   UNL     1       3.297   6.108  17.884  0.00  0.00    +0.000 A 
ATOM      2  N   UNL     1       4.041   6.318  16.740  0.00  0.00    +0.000 NA
ATOM      3  C   UNL     1       4.627   5.169  16.463  0.00  0.00    +0.000 A 
ATOM      4  N   UNL     1       4.213   4.214  17.360  0.00  0.00    +0.000 N 
ATOM      5  C   UNL     1       3.339   4.770  18.269  0.00  0.00    +0.000 A 
ATOM      6  H   UNL     1       4.479   3.242  17.325  0.00  0.00    +0.000 HD
ENDROOT
BRANCH   1  10
ATOM      7  C   UNL     1       1.268   9.303  19.840  0.00  0.00    +0.000 A 
ATOM      8  C   UNL     1       1.620   8.160  20.562  0.00  0.00    +0.000 A 
ATOM      9  C   UNL     1       2.287   7.109  19.914  0.00  0.00    +0.000 A 
ATOM     10  C   UNL     1       2.569   7.186  18.546  0.00  0.00    +0.000 A 
ATOM     11  C   UNL     1       2.157   8.328  17.836  0.00  0.00    +0.000 A 
ATOM     12  C   UNL     1       1.540   9.398  18.476  0.00  0.00    +0.000 A 
BRANCH   7  14
ATOM     13  C   UNL     1       1.228  12.081  20.076  0.00  0.00    +0.000 C 
ATOM     14  S   UNL     1       0.388  10.621  20.636  0.00  0.00    +0.000 S 
ATOM     15  O   UNL     1       0.608  10.498  22.065  0.00  0.00    +0.000 OA
ATOM     16  O   UNL     1      -0.955  10.647  20.090  0.00  0.00    +0.000 OA
ENDBRANCH   7  14
ENDBRANCH   1  10
BRANCH   3  17
ATOM     17  C   UNL     1       5.569   4.895  15.376  0.00  0.00    +0.000 A 
ATOM     18  C   UNL     1       6.861   5.446  15.368  0.00  0.00    +0.000 A 
ATOM     19  C   UNL     1       7.736   5.200  14.307  0.00  0.00    +0.000 A 
ATOM     20  C   UNL     1       7.332   4.397  13.244  0.00  0.00    +0.000 A 
ATOM     21  C   UNL     1       6.057   3.833  13.244  0.00  0.00    +0.000 A 
ATOM     22  C   UNL     1       5.180   4.083  14.303  0.00  0.00    +0.000 A 
ENDBRANCH   3  17
BRANCH   5  23
ATOM     23  C   UNL     1       2.674   3.996  19.313  0.00  0.00    +0.000 A 
ATOM     24  C   UNL     1       3.387   3.441  20.392  0.00  0.00    +0.000 A 
ATOM     25  C   UNL     1       2.714   2.761  21.403  0.00  0.00    +0.000 A 
ATOM     26  C   UNL     1       1.327   2.648  21.388  0.00  0.00    +0.000 A 
ATOM     27  C   UNL     1       0.605   3.196  20.330  0.00  0.00    +0.000 A 
ATOM     28  C   UNL     1       1.283   3.813  19.288  0.00  0.00    +0.000 A 
ENDBRANCH   5  23
TORSDOF 4
ENDMDL
MODEL 4
REMARK VINA RESULT:      -8.6      0.130      1.321
REMARK  Name = 
REMARK  5 active torsions:
REMARK  status: ('A' for Active; 'I' for Inactive)
REMARK    1  A    between atoms: C_1  and  S_2
REMARK    2  A    between atoms: S_2  and  C_5
REMARK    3  A    between atoms: C_8  and  C_9
REMARK    4  A    between atoms: C_11  and  C_12
REMARK    5  A    between atoms: C_19  and  C_20
REMARK                            x       y       z     vdW  Elec       q    Type
REMARK                         _______ _______ _______ _____ _____    ______ ____
ROOT
ATOM      1  C   UNL     1       3.230   6.145  18.036  0.00  0.00    +0.000 A 
ATOM      2  N   UNL     1       3.977   6.384  16.900  0.00  0.00    +0.000 NA
ATOM      3  C   UNL     1       4.578   5.248  16.604  0.00  0.00    +0.000 A 
ATOM      4  N   UNL     1       4.173   4.272  17.482  0.00  0.00    +0.000 N 
ATOM      5  C   UNL     1       3.288   4.801  18.397  0.00  0.00    +0.000 A 
ATOM      6  H   UNL     1       4.452   3.305  17.431  0.00  0.00    +0.000 HD
ENDROOT
BRANCH   1  10
ATOM      7  C   UNL     1       1.151   9.277  20.039  0.00  0.00    +0.000 A 
ATOM      8  C   UNL     1       1.506   8.122  20.740  0.00  0.00    +0.000 A 
ATOM      9  C   UNL     1       2.190   7.092  20.077  0.00  0.00    +0.000 A 
ATOM     10  C   UNL     1       2.485   7.201  18.714  0.00  0.00    +0.000 A 
ATOM     11  C   UNL     1       2.070   8.355  18.024  0.00  0.00    +0.000 A 
ATOM     12  C   UNL     1       1.436   9.405  18.681  0.00  0.00    +0.000 A 
BRANCH   7  14
ATOM     13  C   UNL     1      -0.294   9.812  22.363  0.00  0.00    +0.000 C 
ATOM     14  S   UNL     1       0.251  10.570  20.854  0.00  0.00    +0.000 S 
ATOM     15  O   UNL     1      -0.922  10.863  20.051  0.00  0.00    +0.000 OA
ATOM     16  O   UNL     1       1.195  11.615  21.199  0.00  0.00    +0.000 OA
ENDBRANCH   7  14
ENDBRANCH   1  10
BRANCH   3  17
ATOM     17  C   UNL     1       5.528   5.005  15.518  0.00  0.00    +0.000 A 
ATOM     18  C   UNL     1       5.194   4.199  14.417  0.00  0.00    +0.000 A 
ATOM     19  C   UNL     1       6.125   3.951  13.404  0.00  0.00    +0.000 A 
ATOM     20  C   UNL     1       7.398   4.508  13.477  0.00  0.00    +0.000 A 
ATOM     21  C   UNL     1       7.741   5.320  14.558  0.00  0.00    +0.000 A 
ATOM     22  C   UNL     1       6.811   5.564  15.573  0.00  0.00    +0.000 A 
ENDBRANCH   3  17
BRANCH   5  23
ATOM     23  C   UNL     1       2.628   3.999  19.424  0.00  0.00    +0.000 A 
ATOM     24  C   UNL     1       3.328   3.502  20.540  0.00  0.00    +0.000 A 
ATOM     25  C   UNL     1       2.656   2.795  21.532  0.00  0.00    +0.000 A 
ATOM     26  C   UNL     1       1.280   2.596  21.462  0.00  0.00    +0.000 A 
ATOM     27  C   UNL     1       0.571   3.086  20.367  0.00  0.00    +0.000 A 
ATOM     28  C   UNL     1       1.253   3.731  19.345  0.00  0.00    +0.000 A 
ENDBRANCH   5  23
TORSDOF 4
ENDMDL
MODEL 5
REMARK VINA RESULT:      -8.5      0.236      1.330
REMARK  Name = 
REMARK  5 active torsions:
REMARK  status: ('A' for Active; 'I' for Inactive)
REMARK    1  A    between atoms: C_1  and  S_2
REMARK    2  A    between atoms: S_2  and  C_5
REMARK    3  A    between atoms: C_8  and  C_9
REMARK    4  A    between atoms: C_11  and  C_12
REMARK    5  A    between atoms: C_19  and  C_20
REMARK                            x       y       z     vdW  Elec       q    Type
REMARK                         _______ _______ _______ _____ _____    ______ ____
ROOT
ATOM      1  C   UNL     1       3.192   6.284  18.076  0.00  0.00    +0.000 A 
ATOM      2  N   UNL     1       3.945   6.486  16.937  0.00  0.00    +0.000 NA
ATOM      3  C   UNL     1       4.506   5.326  16.652  0.00  0.00    +0.000 A 
ATOM      4  N   UNL     1       4.068   4.374  17.540  0.00  0.00    +0.000 N 
ATOM      5  C   UNL     1       3.204   4.943  18.450  0.00  0.00    +0.000 A 
ATOM      6  H   UNL     1       4.312   3.397  17.499  0.00  0.00    +0.000 HD
ENDROOT
BRANCH   1  10
ATOM      7  C   UNL     1       1.037   9.414  20.001  0.00  0.00    +0.000 A 
ATOM      8  C   UNL     1       1.375   9.534  18.651  0.00  0.00    +0.000 A 
ATOM      9  C   UNL     1       2.086   8.501  18.020  0.00  0.00    +0.000 A 
ATOM     10  C   UNL     1       2.486   7.373  18.744  0.00  0.00    +0.000 A 
ATOM     11  C   UNL     1       2.175   7.305  20.115  0.00  0.00    +0.000 A 
ATOM     12  C   UNL     1       1.428   8.298  20.739  0.00  0.00    +0.000 A 
BRANCH   7  14
ATOM     13  C   UNL     1      -0.396   9.979  22.324  0.00  0.00    +0.000 C 
ATOM     14  S   UNL     1       0.175  10.729  20.821  0.00  0.00    +0.000 S 
ATOM     15  O   UNL     1      -0.986  11.063  20.018  0.00  0.00    +0.000 OA
ATOM     16  O   UNL     1       1.150  11.742  21.175  0.00  0.00    +0.000 OA
ENDBRANCH   7  14
ENDBRANCH   1  10
BRANCH   3  17
ATOM     17  C   UNL     1       5.445   5.039  15.567  0.00  0.00    +0.000 A 
ATOM     18  C   UNL     1       5.076   4.248  14.466  0.00  0.00    +0.000 A 
ATOM     19  C   UNL     1       5.996   3.957  13.455  0.00  0.00    +0.000 A 
ATOM     20  C   UNL     1       7.292   4.455  13.529  0.00  0.00    +0.000 A 
ATOM     21  C   UNL     1       7.671   5.252  14.610  0.00  0.00    +0.000 A 
ATOM     22  C   UNL     1       6.752   5.540  15.623  0.00  0.00    +0.000 A 
ENDBRANCH   3  17
BRANCH   5  23
ATOM     23  C   UNL     1       2.518   4.175  19.486  0.00  0.00    +0.000 A 
ATOM     24  C   UNL     1       1.165   3.806  19.363  0.00  0.00    +0.000 A 
ATOM     25  C   UNL     1       0.559   3.021  20.340  0.00  0.00    +0.000 A 
ATOM     26  C   UNL     1       1.283   2.557  21.435  0.00  0.00    +0.000 A 
ATOM     27  C   UNL     1       2.624   2.908  21.570  0.00  0.00    +0.000 A 
ATOM     28  C   UNL     1       3.208   3.748  20.631  0.00  0.00    +0.000 A 
ENDBRANCH   5  23
TORSDOF 4
ENDMDL
MODEL 6
REMARK VINA RESULT:      -8.5      3.846      7.558
REMARK  Name = 
REMARK  5 active torsions:
REMARK  status: ('A' for Active; 'I' for Inactive)
REMARK    1  A    between atoms: C_1  and  S_2
REMARK    2  A    between atoms: S_2  and  C_5
REMARK    3  A    between atoms: C_8  and  C_9
REMARK    4  A    between atoms: C_11  and  C_12
REMARK    5  A    between atoms: C_19  and  C_20
REMARK                            x       y       z     vdW  Elec       q    Type
REMARK                         _______ _______ _______ _____ _____    ______ ____
ROOT
ATOM      1  C   UNL     1       2.600   6.809  19.723  0.00  0.00    +0.000 A 
ATOM      2  N   UNL     1       2.341   8.131  20.028  0.00  0.00    +0.000 NA
ATOM      3  C   UNL     1       1.230   8.137  20.739  0.00  0.00    +0.000 A 
ATOM      4  N   UNL     1       0.816   6.845  20.956  0.00  0.00    +0.000 N 
ATOM      5  C   UNL     1       1.683   5.965  20.345  0.00  0.00    +0.000 A 
ATOM      6  H   UNL     1       0.020   6.586  21.518  0.00  0.00    +0.000 HD
ENDROOT
BRANCH   1  10
ATOM      7  C   UNL     1       5.793   5.567  17.192  0.00  0.00    +0.000 A 
ATOM      8  C   UNL     1       5.731   5.103  18.508  0.00  0.00    +0.000 A 
ATOM      9  C   UNL     1       4.678   5.515  19.338  0.00  0.00    +0.000 A 
ATOM     10  C   UNL     1       3.714   6.413  18.868  0.00  0.00    +0.000 A 
ATOM     11  C   UNL     1       3.832   6.902  17.554  0.00  0.00    +0.000 A 
ATOM     12  C   UNL     1       4.843   6.463  16.704  0.00  0.00    +0.000 A 
BRANCH   7  14
ATOM     13  C   UNL     1       6.354   4.156  14.854  0.00  0.00    +0.000 C 
ATOM     14  S   UNL     1       7.140   5.088  16.142  0.00  0.00    +0.000 S 
ATOM     15  O   UNL     1       7.986   4.183  16.897  0.00  0.00    +0.000 OA
ATOM     16  O   UNL     1       7.686   6.292  15.547  0.00  0.00    +0.000 OA
ENDBRANCH   7  14
ENDBRANCH   1  10
BRANCH   3  17
ATOM     17  C   UNL     1       0.512   9.306  21.250  0.00  0.00    +0.000 A 
ATOM     18  C   UNL     1      -0.053   9.315  22.536  0.00  0.00    +0.000 A 
ATOM     19  C   UNL     1      -0.763  10.428  22.997  0.00  0.00    +0.000 A 
ATOM     20  C   UNL     1      -0.912  11.544  22.180  0.00  0.00    +0.000 A 
ATOM     21  C   UNL     1      -0.347  11.555  20.906  0.00  0.00    +0.000 A 
ATOM     22  C   UNL     1       0.359  10.441  20.444  0.00  0.00    +0.000 A 
ENDBRANCH   3  17
BRANCH   5  23
ATOM     23  C   UNL     1       1.550   4.515  20.446  0.00  0.00    +0.000 A 
ATOM     24  C   UNL     1       0.965   3.750  19.420  0.00  0.00    +0.000 A 
ATOM     25  C   UNL     1       0.911   2.363  19.521  0.00  0.00    +0.000 A 
ATOM     26  C   UNL     1       1.463   1.703  20.616  0.00  0.00    +0.000 A 
ATOM     27  C   UNL     1       2.050   2.444  21.638  0.00  0.00    +0.000 A 
ATOM     28  C   UNL     1       2.042   3.831  21.569  0.00  0.00    +0.000 A 
ENDBRANCH   5  23
TORSDOF 4
ENDMDL
MODEL 7
REMARK VINA RESULT:      -8.5      0.729      1.376
REMARK  Name = 
REMARK  5 active torsions:
REMARK  status: ('A' for Active; 'I' for Inactive)
REMARK    1  A    between atoms: C_1  and  S_2
REMARK    2  A    between atoms: S_2  and  C_5
REMARK    3  A    between atoms: C_8  and  C_9
REMARK    4  A    between atoms: C_11  and  C_12
REMARK    5  A    between atoms: C_19  and  C_20
REMARK                            x       y       z     vdW  Elec       q    Type
REMARK                         _______ _______ _______ _____ _____    ______ ____
ROOT
ATOM      1  C   UNL     1       3.227   6.351  17.976  0.00  0.00    +0.000 A 
ATOM      2  N   UNL     1       4.012   6.521  16.853  0.00  0.00    +0.000 NA
ATOM      3  C   UNL     1       4.555   5.346  16.598  0.00  0.00    +0.000 A 
ATOM      4  N   UNL     1       4.074   4.415  17.487  0.00  0.00    +0.000 N 
ATOM      5  C   UNL     1       3.200   5.015  18.367  0.00  0.00    +0.000 A 
ATOM      6  H   UNL     1       4.299   3.433  17.464  0.00  0.00    +0.000 HD
ENDROOT
BRANCH   1  10
ATOM      7  C   UNL     1       1.092   9.553  19.802  0.00  0.00    +0.000 A 
ATOM      8  C   UNL     1       1.490   9.658  18.467  0.00  0.00    +0.000 A 
ATOM      9  C   UNL     1       2.194   8.601  17.869  0.00  0.00    +0.000 A 
ATOM     10  C   UNL     1       2.528   7.464  18.611  0.00  0.00    +0.000 A 
ATOM     11  C   UNL     1       2.157   7.410  19.967  0.00  0.00    +0.000 A 
ATOM     12  C   UNL     1       1.416   8.428  20.558  0.00  0.00    +0.000 A 
BRANCH   7  14
ATOM     13  C   UNL     1       1.120  12.332  20.025  0.00  0.00    +0.000 C 
ATOM     14  S   UNL     1       0.238  10.897  20.583  0.00  0.00    +0.000 S 
ATOM     15  O   UNL     1       0.441  10.775  22.014  0.00  0.00    +0.000 OA
ATOM     16  O   UNL     1      -1.099  10.954  20.024  0.00  0.00    +0.000 OA
ENDBRANCH   7  14
ENDBRANCH   1  10
BRANCH   3  17
ATOM     17  C   UNL     1       5.515   5.025  15.540  0.00  0.00    +0.000 A 
ATOM     18  C   UNL     1       6.827   5.525  15.564  0.00  0.00    +0.000 A 
ATOM     19  C   UNL     1       7.721   5.234  14.529  0.00  0.00    +0.000 A 
ATOM     20  C   UNL     1       7.316   4.438  13.463  0.00  0.00    +0.000 A 
ATOM     21  C   UNL     1       6.020   3.924  13.432  0.00  0.00    +0.000 A 
ATOM     22  C   UNL     1       5.125   4.218  14.464  0.00  0.00    +0.000 A 
ENDBRANCH   3  17
BRANCH   5  23
ATOM     23  C   UNL     1       2.472   4.276  19.396  0.00  0.00    +0.000 A 
ATOM     24  C   UNL     1       1.221   3.685  19.138  0.00  0.00    +0.000 A 
ATOM     25  C   UNL     1       0.584   2.934  20.122  0.00  0.00    +0.000 A 
ATOM     26  C   UNL     1       1.181   2.724  21.362  0.00  0.00    +0.000 A 
ATOM     27  C   UNL     1       2.421   3.298  21.632  0.00  0.00    +0.000 A 
ATOM     28  C   UNL     1       3.024   4.103  20.674  0.00  0.00    +0.000 A 
ENDBRANCH   5  23
TORSDOF 4
ENDMDL
MODEL 8
REMARK VINA RESULT:      -8.4      0.701      1.640
REMARK  Name = 
REMARK  5 active torsions:
REMARK  status: ('A' for Active; 'I' for Inactive)
REMARK    1  A    between atoms: C_1  and  S_2
REMARK    2  A    between atoms: S_2  and  C_5
REMARK    3  A    between atoms: C_8  and  C_9
REMARK    4  A    between atoms: C_11  and  C_12
REMARK    5  A    between atoms: C_19  and  C_20
REMARK                            x       y       z     vdW  Elec       q    Type
REMARK                         _______ _______ _______ _____ _____    ______ ____
ROOT
ATOM      1  C   UNL     1       3.190   6.262  18.008  0.00  0.00    +0.000 A 
ATOM      2  N   UNL     1       3.960   6.445  16.876  0.00  0.00    +0.000 NA
ATOM      3  C   UNL     1       4.534   5.283  16.626  0.00  0.00    +0.000 A 
ATOM      4  N   UNL     1       4.089   4.347  17.528  0.00  0.00    +0.000 N 
ATOM      5  C   UNL     1       3.206   4.929  18.412  0.00  0.00    +0.000 A 
ATOM      6  H   UNL     1       4.342   3.372  17.512  0.00  0.00    +0.000 HD
ENDROOT
BRANCH   1  10
ATOM      7  C   UNL     1       1.169   9.513  19.877  0.00  0.00    +0.000 A 
ATOM      8  C   UNL     1       1.494   8.378  20.623  0.00  0.00    +0.000 A 
ATOM      9  C   UNL     1       2.159   7.309  20.004  0.00  0.00    +0.000 A 
ATOM     10  C   UNL     1       2.465   7.360  18.640  0.00  0.00    +0.000 A 
ATOM     11  C   UNL     1       2.079   8.495  17.903  0.00  0.00    +0.000 A 
ATOM     12  C   UNL     1       1.465   9.582  18.516  0.00  0.00    +0.000 A 
BRANCH   7  14
ATOM     13  C   UNL     1      -0.545  11.628  19.276  0.00  0.00    +0.000 C 
ATOM     14  S   UNL     1       0.292  10.855  20.635  0.00  0.00    +0.000 S 
ATOM     15  O   UNL     1       1.277  11.791  21.145  0.00  0.00    +0.000 OA
ATOM     16  O   UNL     1      -0.714  10.286  21.509  0.00  0.00    +0.000 OA
ENDBRANCH   7  14
ENDBRANCH   1  10
BRANCH   3  17
ATOM     17  C   UNL     1       5.493   4.980  15.563  0.00  0.00    +0.000 A 
ATOM     18  C   UNL     1       6.810   5.468  15.601  0.00  0.00    +0.000 A 
ATOM     19  C   UNL     1       7.703   5.196  14.561  0.00  0.00    +0.000 A 
ATOM     20  C   UNL     1       7.293   4.430  13.474  0.00  0.00    +0.000 A 
ATOM     21  C   UNL     1       5.992   3.929  13.427  0.00  0.00    +0.000 A 
ATOM     22  C   UNL     1       5.098   4.205  14.465  0.00  0.00    +0.000 A 
ENDBRANCH   3  17
BRANCH   5  23
ATOM     23  C   UNL     1       2.510   4.179  19.453  0.00  0.00    +0.000 A 
ATOM     24  C   UNL     1       1.178   3.751  19.295  0.00  0.00    +0.000 A 
ATOM     25  C   UNL     1       0.565   2.984  20.281  0.00  0.00    +0.000 A 
ATOM     26  C   UNL     1       1.262   2.596  21.422  0.00  0.00    +0.000 A 
ATOM     27  C   UNL     1       2.581   3.007  21.593  0.00  0.00    +0.000 A 
ATOM     28  C   UNL     1       3.170   3.829  20.642  0.00  0.00    +0.000 A 
ENDBRANCH   5  23
TORSDOF 4
ENDMDL
MODEL 9
REMARK VINA RESULT:      -8.4      3.820      7.498
REMARK  Name = 
REMARK  5 active torsions:
REMARK  status: ('A' for Active; 'I' for Inactive)
REMARK    1  A    between atoms: C_1  and  S_2
REMARK    2  A    between atoms: S_2  and  C_5
REMARK    3  A    between atoms: C_8  and  C_9
REMARK    4  A    between atoms: C_11  and  C_12
REMARK    5  A    between atoms: C_19  and  C_20
REMARK                            x       y       z     vdW  Elec       q    Type
REMARK                         _______ _______ _______ _____ _____    ______ ____
ROOT
ATOM      1  C   UNL     1       2.532   6.832  19.744  0.00  0.00    +0.000 A 
ATOM      2  N   UNL     1       2.246   8.153  20.026  0.00  0.00    +0.000 NA
ATOM      3  C   UNL     1       1.152   8.147  20.764  0.00  0.00    +0.000 A 
ATOM      4  N   UNL     1       0.778   6.850  21.019  0.00  0.00    +0.000 N 
ATOM      5  C   UNL     1       1.652   5.979  20.407  0.00  0.00    +0.000 A 
ATOM      6  H   UNL     1       0.002   6.583  21.606  0.00  0.00    +0.000 HD
ENDROOT
BRANCH   1  10
ATOM      7  C   UNL     1       5.812   5.788  17.234  0.00  0.00    +0.000 A 
ATOM      8  C   UNL     1       4.808   6.630  16.749  0.00  0.00    +0.000 A 
ATOM      9  C   UNL     1       3.729   6.971  17.579  0.00  0.00    +0.000 A 
ATOM     10  C   UNL     1       3.636   6.445  18.871  0.00  0.00    +0.000 A 
ATOM     11  C   UNL     1       4.635   5.559  19.313  0.00  0.00    +0.000 A 
ATOM     12  C   UNL     1       5.736   5.253  18.519  0.00  0.00    +0.000 A 
BRANCH   7  14
ATOM     13  C   UNL     1       6.358   4.676  14.737  0.00  0.00    +0.000 C 
ATOM     14  S   UNL     1       7.161   5.315  16.184  0.00  0.00    +0.000 S 
ATOM     15  O   UNL     1       7.858   4.219  16.831  0.00  0.00    +0.000 OA
ATOM     16  O   UNL     1       7.866   6.523  15.802  0.00  0.00    +0.000 OA
ENDBRANCH   7  14
ENDBRANCH   1  10
BRANCH   3  17
ATOM     17  C   UNL     1       0.416   9.308  21.267  0.00  0.00    +0.000 A 
ATOM     18  C   UNL     1       0.216  10.450  20.474  0.00  0.00    +0.000 A 
ATOM     19  C   UNL     1      -0.460  11.563  20.983  0.00  0.00    +0.000 A 
ATOM     20  C   UNL     1      -0.948  11.545  22.285  0.00  0.00    +0.000 A 
ATOM     21  C   UNL     1      -0.767  10.414  23.081  0.00  0.00    +0.000 A 
ATOM     22  C   UNL     1      -0.087   9.304  22.574  0.00  0.00    +0.000 A 
ENDBRANCH   3  17
BRANCH   5  23
ATOM     23  C   UNL     1       1.560   4.528  20.543  0.00  0.00    +0.000 A 
ATOM     24  C   UNL     1       0.936   3.730  19.566  0.00  0.00    +0.000 A 
ATOM     25  C   UNL     1       0.921   2.344  19.696  0.00  0.00    +0.000 A 
ATOM     26  C   UNL     1       1.549   1.719  20.770  0.00  0.00    +0.000 A 
ATOM     27  C   UNL     1       2.176   2.494  21.743  0.00  0.00    +0.000 A 
ATOM     28  C   UNL     1       2.131   3.878  21.648  0.00  0.00    +0.000 A 
ENDBRANCH   5  23
TORSDOF 4
ENDMDL
