MODEL 1
REMARK VINA RESULT:      -7.8      0.000      0.000
REMARK  Name = 
REMARK  14 active torsions:
REMARK  status: ('A' for Active; 'I' for Inactive)
REMARK    1  A    between atoms: C_2  and  C_3
REMARK    2  A    between atoms: C_3  and  N_4
REMARK    3  A    between atoms: N_4  and  C_18
REMARK    4  A    between atoms: C_5  and  C_7
REMARK    5  A    between atoms: C_7  and  C_8
REMARK    6  A    between atoms: C_8  and  C_9
REMARK    7  A    between atoms: C_14  and  C_15
REMARK    8  A    between atoms: C_18  and  C_19
REMARK    9  A    between atoms: C_18  and  C_27
REMARK   10  A    between atoms: N_21  and  C_22
REMARK   11  A    between atoms: C_30  and  O_31
REMARK   12  A    between atoms: O_31  and  C_32
REMARK   13  A    between atoms: C_33  and  O_34
REMARK   14  A    between atoms: O_34  and  C_35
REMARK                            x       y       z     vdW  Elec       q    Type
REMARK                         _______ _______ _______ _____ _____    ______ ____
ROOT
ATOM      1  C   UNL     1      -0.310  10.718  20.174  0.00  0.00    +0.000 C 
ENDROOT
BRANCH   1   2
ATOM      2  C   UNL     1      -1.353  10.700  19.051  0.00  0.00    +0.000 A 
ATOM      3  C   UNL     1      -1.098  10.065  17.833  0.00  0.00    +0.000 A 
ATOM      4  C   UNL     1      -2.041  10.088  16.805  0.00  0.00    +0.000 A 
ATOM      5  C   UNL     1      -3.251  10.785  16.940  0.00  0.00    +0.000 A 
ATOM      6  C   UNL     1      -3.530  11.435  18.146  0.00  0.00    +0.000 A 
ATOM      7  C   UNL     1      -2.572  11.393  19.175  0.00  0.00    +0.000 A 
BRANCH   5   8
ATOM      8  O   UNL     1      -4.177  10.796  15.929  0.00  0.00    +0.000 OA
ATOM      9  C   UNL     1      -3.759  10.167  14.720  0.00  0.00    +0.000 C 
ENDBRANCH   5   8
BRANCH   6  10
ATOM     10  O   UNL     1      -4.643  12.148  18.507  0.00  0.00    +0.000 OA
ATOM     11  C   UNL     1      -4.705  12.690  19.816  0.00  0.00    +0.000 C 
ENDBRANCH   6  10
ENDBRANCH   1   2
BRANCH   1  12
ATOM     12  C   UNL     1       0.323  12.117  20.448  0.00  0.00    +0.000 C 
ATOM     13  O   UNL     1       0.539  12.506  21.595  0.00  0.00    +0.000 OA
ATOM     14  N   UNL     1       0.557  12.925  19.350  0.00  0.00    +0.000 N 
ATOM     15  H   UNL     1       0.288  12.552  18.436  0.00  0.00    +0.000 HD
BRANCH  14  16
ATOM     16  C   UNL     1       0.953  14.318  19.466  0.00  0.00    +0.000 C 
ATOM     17  C   UNL     1       2.088  14.694  18.524  0.00  0.00    +0.000 C 
ATOM     18  C   UNL     1       2.036  16.215  18.484  0.00  0.00    +0.000 C 
ATOM     19  C   UNL     1       0.560  16.576  18.618  0.00  0.00    +0.000 C 
ATOM     20  C   UNL     1      -0.158  15.301  19.069  0.00  0.00    +0.000 C 
ENDBRANCH  14  16
ENDBRANCH   1  12
BRANCH   1  21
ATOM     21  N   UNL     1       0.685   9.624  20.090  0.00  0.00    +0.000 N 
ATOM     22  C   UNL     1       0.527   8.487  20.879  0.00  0.00    +0.000 C 
ATOM     23  O   UNL     1      -0.509   8.245  21.501  0.00  0.00    +0.000 OA
BRANCH  21  24
ATOM     24  C   UNL     1       1.777   9.809  19.125  0.00  0.00    +0.000 C 
BRANCH  24  26
ATOM     25  C   UNL     1       2.790   8.265  17.411  0.00  0.00    +0.000 C 
ATOM     26  C   UNL     1       1.721   8.756  18.053  0.00  0.00    +0.000 C 
ENDBRANCH  24  26
ENDBRANCH  21  24
BRANCH  22  27
ATOM     27  C   UNL     1       1.725   7.568  20.966  0.00  0.00    +0.000 C 
BRANCH  27  28
ATOM     28  C   UNL     1       1.413   6.092  20.732  0.00  0.00    +0.000 C 
BRANCH  28  29
ATOM     29  C   UNL     1       2.369   5.567  19.678  0.00  0.00    +0.000 C 
ATOM     30  O   UNL     1       1.963   4.960  18.687  0.00  0.00    +0.000 OA
ATOM     31  N   UNL     1       3.696   5.817  19.947  0.00  0.00    +0.000 N 
ATOM     32  C   UNL     1       4.684   5.336  19.108  0.00  0.00    +0.000 A 
ATOM     33  C   UNL     1       4.632   5.192  17.704  0.00  0.00    +0.000 A 
ATOM     34  C   UNL     1       5.807   4.567  17.379  0.00  0.00    +0.000 A 
ATOM     35  C   UNL     1       6.386   4.073  16.118  0.00  0.00    +0.000 C 
ATOM     36  O   UNL     1       6.543   4.391  18.509  0.00  0.00    +0.000 OA
ATOM     37  N   UNL     1       5.860   4.929  19.591  0.00  0.00    +0.000 NA
ATOM     38  H   UNL     1       3.994   5.981  20.899  0.00  0.00    +0.000 HD
ENDBRANCH  28  29
ENDBRANCH  27  28
ENDBRANCH  22  27
ENDBRANCH   1  21
TORSDOF 11
ENDMDL
MODEL 2
REMARK VINA RESULT:      -7.5      2.419      4.279
REMARK  Name = 
REMARK  14 active torsions:
REMARK  status: ('A' for Active; 'I' for Inactive)
REMARK    1  A    between atoms: C_2  and  C_3
REMARK    2  A    between atoms: C_3  and  N_4
REMARK    3  A    between atoms: N_4  and  C_18
REMARK    4  A    between atoms: C_5  and  C_7
REMARK    5  A    between atoms: C_7  and  C_8
REMARK    6  A    between atoms: C_8  and  C_9
REMARK    7  A    between atoms: C_14  and  C_15
REMARK    8  A    between atoms: C_18  and  C_19
REMARK    9  A    between atoms: C_18  and  C_27
REMARK   10  A    between atoms: N_21  and  C_22
REMARK   11  A    between atoms: C_30  and  O_31
REMARK   12  A    between atoms: O_31  and  C_32
REMARK   13  A    between atoms: C_33  and  O_34
REMARK   14  A    between atoms: O_34  and  C_35
REMARK                            x       y       z     vdW  Elec       q    Type
REMARK                         _______ _______ _______ _____ _____    ______ ____
ROOT
ATOM      1  C   UNL     1      -0.172  12.274  19.867  0.00  0.00    +0.000 C 
ENDROOT
BRANCH   1   2
ATOM      2  C   UNL     1      -1.190  12.269  21.012  0.00  0.00    +0.000 A 
ATOM      3  C   UNL     1      -0.886  11.701  22.251  0.00  0.00    +0.000 A 
ATOM      4  C   UNL     1      -1.835  11.669  23.273  0.00  0.00    +0.000 A 
ATOM      5  C   UNL     1      -3.135  12.160  23.079  0.00  0.00    +0.000 A 
ATOM      6  C   UNL     1      -3.469  12.727  21.846  0.00  0.00    +0.000 A 
ATOM      7  C   UNL     1      -2.496  12.760  20.830  0.00  0.00    +0.000 A 
BRANCH   5   8
ATOM      8  O   UNL     1      -4.059  12.133  24.090  0.00  0.00    +0.000 OA
ATOM      9  C   UNL     1      -4.035  13.261  24.961  0.00  0.00    +0.000 C 
ENDBRANCH   5   8
BRANCH   6  10
ATOM     10  O   UNL     1      -4.654  13.284  21.442  0.00  0.00    +0.000 OA
ATOM     11  C   UNL     1      -5.654  12.435  20.904  0.00  0.00    +0.000 C 
ENDBRANCH   6  10
ENDBRANCH   1   2
BRANCH   1  12
ATOM     12  C   UNL     1      -0.330  13.459  18.864  0.00  0.00    +0.000 C 
ATOM     13  O   UNL     1      -0.697  13.269  17.705  0.00  0.00    +0.000 OA
ATOM     14  N   UNL     1       0.032  14.715  19.316  0.00  0.00    +0.000 N 
ATOM     15  H   UNL     1       0.390  14.776  20.273  0.00  0.00    +0.000 HD
BRANCH  14  16
ATOM     16  C   UNL     1       0.127  15.871  18.441  0.00  0.00    +0.000 C 
ATOM     17  C   UNL     1      -0.952  16.910  18.709  0.00  0.00    +0.000 C 
ATOM     18  C   UNL     1      -0.420  18.167  18.035  0.00  0.00    +0.000 C 
ATOM     19  C   UNL     1       1.097  18.100  18.186  0.00  0.00    +0.000 C 
ATOM     20  C   UNL     1       1.425  16.671  18.629  0.00  0.00    +0.000 C 
ENDBRANCH  14  16
ENDBRANCH   1  12
BRANCH   1  21
ATOM     21  N   UNL     1       0.001  10.959  19.206  0.00  0.00    +0.000 N 
ATOM     22  C   UNL     1       1.241  10.612  18.677  0.00  0.00    +0.000 C 
ATOM     23  O   UNL     1       2.267  11.255  18.904  0.00  0.00    +0.000 OA
BRANCH  21  24
ATOM     24  C   UNL     1      -1.175  10.078  19.192  0.00  0.00    +0.000 C 
BRANCH  24  26
ATOM     25  C   UNL     1      -3.126   9.653  17.657  0.00  0.00    +0.000 C 
ATOM     26  C   UNL     1      -1.989  10.300  17.949  0.00  0.00    +0.000 C 
ENDBRANCH  24  26
ENDBRANCH  21  24
BRANCH  22  27
ATOM     27  C   UNL     1       1.258   9.407  17.763  0.00  0.00    +0.000 C 
BRANCH  27  28
ATOM     28  C   UNL     1       2.553   8.601  17.796  0.00  0.00    +0.000 C 
BRANCH  28  29
ATOM     29  C   UNL     1       2.363   7.438  18.751  0.00  0.00    +0.000 C 
ATOM     30  O   UNL     1       2.054   7.617  19.929  0.00  0.00    +0.000 OA
ATOM     31  N   UNL     1       2.585   6.202  18.184  0.00  0.00    +0.000 N 
ATOM     32  C   UNL     1       2.516   5.056  18.953  0.00  0.00    +0.000 A 
ATOM     33  C   UNL     1       1.652   4.794  20.040  0.00  0.00    +0.000 A 
ATOM     34  C   UNL     1       2.067   3.581  20.523  0.00  0.00    +0.000 A 
ATOM     35  C   UNL     1       1.653   2.738  21.658  0.00  0.00    +0.000 C 
ATOM     36  O   UNL     1       3.083   3.118  19.747  0.00  0.00    +0.000 OA
ATOM     37  N   UNL     1       3.327   4.021  18.722  0.00  0.00    +0.000 NA
ATOM     38  H   UNL     1       3.166   6.124  17.360  0.00  0.00    +0.000 HD
ENDBRANCH  28  29
ENDBRANCH  27  28
ENDBRANCH  22  27
ENDBRANCH   1  21
TORSDOF 11
ENDMDL
MODEL 3
REMARK VINA RESULT:      -7.3      2.147      2.955
REMARK  Name = 
REMARK  14 active torsions:
REMARK  status: ('A' for Active; 'I' for Inactive)
REMARK    1  A    between atoms: C_2  and  C_3
REMARK    2  A    between atoms: C_3  and  N_4
REMARK    3  A    between atoms: N_4  and  C_18
REMARK    4  A    between atoms: C_5  and  C_7
REMARK    5  A    between atoms: C_7  and  C_8
REMARK    6  A    between atoms: C_8  and  C_9
REMARK    7  A    between atoms: C_14  and  C_15
REMARK    8  A    between atoms: C_18  and  C_19
REMARK    9  A    between atoms: C_18  and  C_27
REMARK   10  A    between atoms: N_21  and  C_22
REMARK   11  A    between atoms: C_30  and  O_31
REMARK   12  A    between atoms: O_31  and  C_32
REMARK   13  A    between atoms: C_33  and  O_34
REMARK   14  A    between atoms: O_34  and  C_35
REMARK                            x       y       z     vdW  Elec       q    Type
REMARK                         _______ _______ _______ _____ _____    ______ ____
ROOT
ATOM      1  C   UNL     1      -0.632  11.154  19.535  0.00  0.00    +0.000 C 
ENDROOT
BRANCH   1   2
ATOM      2  C   UNL     1      -1.670  10.919  18.432  0.00  0.00    +0.000 A 
ATOM      3  C   UNL     1      -1.395  10.092  17.340  0.00  0.00    +0.000 A 
ATOM      4  C   UNL     1      -2.334   9.916  16.324  0.00  0.00    +0.000 A 
ATOM      5  C   UNL     1      -3.561  10.596  16.338  0.00  0.00    +0.000 A 
ATOM      6  C   UNL     1      -3.861  11.435  17.416  0.00  0.00    +0.000 A 
ATOM      7  C   UNL     1      -2.906  11.592  18.437  0.00  0.00    +0.000 A 
BRANCH   5   8
ATOM      8  O   UNL     1      -4.483  10.411  15.341  0.00  0.00    +0.000 OA
ATOM      9  C   UNL     1      -3.942  10.011  14.084  0.00  0.00    +0.000 C 
ENDBRANCH   5   8
BRANCH   6  10
ATOM     10  O   UNL     1      -4.992  12.170  17.651  0.00  0.00    +0.000 OA
ATOM     11  C   UNL     1      -5.870  11.753  18.684  0.00  0.00    +0.000 C 
ENDBRANCH   6  10
ENDBRANCH   1   2
BRANCH   1  12
ATOM     12  C   UNL     1       0.118  12.518  19.439  0.00  0.00    +0.000 C 
ATOM     13  O   UNL     1      -0.179  13.350  18.582  0.00  0.00    +0.000 OA
ATOM     14  N   UNL     1       1.175  12.714  20.308  0.00  0.00    +0.000 N 
ATOM     15  H   UNL     1       1.398  11.946  20.946  0.00  0.00    +0.000 HD
BRANCH  14  16
ATOM     16  C   UNL     1       2.085  13.842  20.202  0.00  0.00    +0.000 C 
ATOM     17  C   UNL     1       3.163  13.840  21.276  0.00  0.00    +0.000 C 
ATOM     18  C   UNL     1       4.217  14.795  20.733  0.00  0.00    +0.000 C 
ATOM     19  C   UNL     1       4.181  14.623  19.217  0.00  0.00    +0.000 C 
ATOM     20  C   UNL     1       2.900  13.845  18.901  0.00  0.00    +0.000 C 
ENDBRANCH  14  16
ENDBRANCH   1  12
BRANCH   1  21
ATOM     21  N   UNL     1       0.266  10.000  19.774  0.00  0.00    +0.000 N 
ATOM     22  C   UNL     1       1.362   9.796  18.939  0.00  0.00    +0.000 C 
ATOM     23  O   UNL     1       1.749  10.638  18.128  0.00  0.00    +0.000 OA
BRANCH  21  24
ATOM     24  C   UNL     1      -0.055   9.153  20.931  0.00  0.00    +0.000 C 
BRANCH  24  26
ATOM     25  C   UNL     1      -0.792  10.208  23.097  0.00  0.00    +0.000 C 
ATOM     26  C   UNL     1       0.170   9.903  22.215  0.00  0.00    +0.000 C 
ENDBRANCH  24  26
ENDBRANCH  21  24
BRANCH  22  27
ATOM     27  C   UNL     1       2.040   8.449  19.054  0.00  0.00    +0.000 C 
BRANCH  27  28
ATOM     28  C   UNL     1       2.948   8.091  17.880  0.00  0.00    +0.000 C 
BRANCH  28  29
ATOM     29  C   UNL     1       3.298   6.619  17.983  0.00  0.00    +0.000 C 
ATOM     30  O   UNL     1       4.468   6.237  18.017  0.00  0.00    +0.000 OA
ATOM     31  N   UNL     1       2.206   5.781  18.014  0.00  0.00    +0.000 N 
ATOM     32  C   UNL     1       2.375   4.410  18.037  0.00  0.00    +0.000 A 
ATOM     33  C   UNL     1       3.399   3.674  18.675  0.00  0.00    +0.000 A 
ATOM     34  C   UNL     1       3.178   2.377  18.295  0.00  0.00    +0.000 A 
ATOM     35  C   UNL     1       3.879   1.106  18.545  0.00  0.00    +0.000 C 
ATOM     36  O   UNL     1       2.063   2.326  17.517  0.00  0.00    +0.000 OA
ATOM     37  N   UNL     1       1.523   3.599  17.403  0.00  0.00    +0.000 NA
ATOM     38  H   UNL     1       1.323   6.092  17.630  0.00  0.00    +0.000 HD
ENDBRANCH  28  29
ENDBRANCH  27  28
ENDBRANCH  22  27
ENDBRANCH   1  21
TORSDOF 11
ENDMDL
MODEL 4
REMARK VINA RESULT:      -7.2      1.805      2.932
REMARK  Name = 
REMARK  14 active torsions:
REMARK  status: ('A' for Active; 'I' for Inactive)
REMARK    1  A    between atoms: C_2  and  C_3
REMARK    2  A    between atoms: C_3  and  N_4
REMARK    3  A    between atoms: N_4  and  C_18
REMARK    4  A    between atoms: C_5  and  C_7
REMARK    5  A    between atoms: C_7  and  C_8
REMARK    6  A    between atoms: C_8  and  C_9
REMARK    7  A    between atoms: C_14  and  C_15
REMARK    8  A    between atoms: C_18  and  C_19
REMARK    9  A    between atoms: C_18  and  C_27
REMARK   10  A    between atoms: N_21  and  C_22
REMARK   11  A    between atoms: C_30  and  O_31
REMARK   12  A    between atoms: O_31  and  C_32
REMARK   13  A    between atoms: C_33  and  O_34
REMARK   14  A    between atoms: O_34  and  C_35
REMARK                            x       y       z     vdW  Elec       q    Type
REMARK                         _______ _______ _______ _____ _____    ______ ____
ROOT
ATOM      1  C   UNL     1       0.057  11.055  19.911  0.00  0.00    +0.000 C 
ENDROOT
BRANCH   1   2
ATOM      2  C   UNL     1      -1.307  11.251  19.240  0.00  0.00    +0.000 A 
ATOM      3  C   UNL     1      -2.264  12.115  19.777  0.00  0.00    +0.000 A 
ATOM      4  C   UNL     1      -3.515  12.255  19.177  0.00  0.00    +0.000 A 
ATOM      5  C   UNL     1      -3.873  11.503  18.048  0.00  0.00    +0.000 A 
ATOM      6  C   UNL     1      -2.937  10.626  17.493  0.00  0.00    +0.000 A 
ATOM      7  C   UNL     1      -1.676  10.504  18.105  0.00  0.00    +0.000 A 
BRANCH   5   8
ATOM      8  O   UNL     1      -5.101  11.653  17.458  0.00  0.00    +0.000 OA
ATOM      9  C   UNL     1      -6.185  11.847  18.362  0.00  0.00    +0.000 C 
ENDBRANCH   5   8
BRANCH   6  10
ATOM     10  O   UNL     1      -3.054   9.818  16.392  0.00  0.00    +0.000 OA
ATOM     11  C   UNL     1      -2.768  10.366  15.115  0.00  0.00    +0.000 C 
ENDBRANCH   6  10
ENDBRANCH   1   2
BRANCH   1  12
ATOM     12  C   UNL     1       1.110  12.155  19.570  0.00  0.00    +0.000 C 
ATOM     13  O   UNL     1       1.955  12.505  20.394  0.00  0.00    +0.000 OA
ATOM     14  N   UNL     1       1.001  12.765  18.334  0.00  0.00    +0.000 N 
ATOM     15  H   UNL     1       0.231  12.461  17.735  0.00  0.00    +0.000 HD
BRANCH  14  16
ATOM     16  C   UNL     1       1.780  13.934  17.961  0.00  0.00    +0.000 C 
ATOM     17  C   UNL     1       1.455  15.159  18.802  0.00  0.00    +0.000 C 
ATOM     18  C   UNL     1       2.640  16.085  18.565  0.00  0.00    +0.000 C 
ATOM     19  C   UNL     1       3.846  15.168  18.388  0.00  0.00    +0.000 C 
ATOM     20  C   UNL     1       3.289  13.756  18.187  0.00  0.00    +0.000 C 
ENDBRANCH  14  16
ENDBRANCH   1  12
BRANCH   1  21
ATOM     21  N   UNL     1       0.587   9.676  19.809  0.00  0.00    +0.000 N 
ATOM     22  C   UNL     1       1.296   9.292  18.673  0.00  0.00    +0.000 C 
ATOM     23  O   UNL     1       1.686  10.098  17.826  0.00  0.00    +0.000 OA
BRANCH  21  24
ATOM     24  C   UNL     1       0.351   8.800  20.965  0.00  0.00    +0.000 C 
BRANCH  24  26
ATOM     25  C   UNL     1       0.124   9.396  23.402  0.00  0.00    +0.000 C 
ATOM     26  C   UNL     1      -0.211   9.583  22.117  0.00  0.00    +0.000 C 
ENDBRANCH  24  26
ENDBRANCH  21  24
BRANCH  22  27
ATOM     27  C   UNL     1       1.533   7.808  18.509  0.00  0.00    +0.000 C 
BRANCH  27  28
ATOM     28  C   UNL     1       2.814   7.292  19.160  0.00  0.00    +0.000 C 
BRANCH  28  29
ATOM     29  C   UNL     1       3.568   6.468  18.135  0.00  0.00    +0.000 C 
ATOM     30  O   UNL     1       3.260   5.300  17.895  0.00  0.00    +0.000 OA
ATOM     31  N   UNL     1       4.612   7.135  17.534  0.00  0.00    +0.000 N 
ATOM     32  C   UNL     1       5.431   6.487  16.630  0.00  0.00    +0.000 A 
ATOM     33  C   UNL     1       5.070   5.488  15.697  0.00  0.00    +0.000 A 
ATOM     34  C   UNL     1       6.257   5.098  15.135  0.00  0.00    +0.000 A 
ATOM     35  C   UNL     1       6.629   4.079  14.140  0.00  0.00    +0.000 C 
ATOM     36  O   UNL     1       7.264   5.848  15.659  0.00  0.00    +0.000 OA
ATOM     37  N   UNL     1       6.735   6.764  16.558  0.00  0.00    +0.000 NA
ATOM     38  H   UNL     1       5.040   7.924  18.001  0.00  0.00    +0.000 HD
ENDBRANCH  28  29
ENDBRANCH  27  28
ENDBRANCH  22  27
ENDBRANCH   1  21
TORSDOF 11
ENDMDL
MODEL 5
REMARK VINA RESULT:      -7.1      4.073      8.315
REMARK  Name = 
REMARK  14 active torsions:
REMARK  status: ('A' for Active; 'I' for Inactive)
REMARK    1  A    between atoms: C_2  and  C_3
REMARK    2  A    between atoms: C_3  and  N_4
REMARK    3  A    between atoms: N_4  and  C_18
REMARK    4  A    between atoms: C_5  and  C_7
REMARK    5  A    between atoms: C_7  and  C_8
REMARK    6  A    between atoms: C_8  and  C_9
REMARK    7  A    between atoms: C_14  and  C_15
REMARK    8  A    between atoms: C_18  and  C_19
REMARK    9  A    between atoms: C_18  and  C_27
REMARK   10  A    between atoms: N_21  and  C_22
REMARK   11  A    between atoms: C_30  and  O_31
REMARK   12  A    between atoms: O_31  and  C_32
REMARK   13  A    between atoms: C_33  and  O_34
REMARK   14  A    between atoms: O_34  and  C_35
REMARK                            x       y       z     vdW  Elec       q    Type
REMARK                         _______ _______ _______ _____ _____    ______ ____
ROOT
ATOM      1  C   UNL     1       3.599   5.896  17.236  0.00  0.00    +0.000 C 
ENDROOT
BRANCH   1   2
ATOM      2  C   UNL     1       2.888   7.074  17.909  0.00  0.00    +0.000 A 
ATOM      3  C   UNL     1       2.714   8.293  17.248  0.00  0.00    +0.000 A 
ATOM      4  C   UNL     1       2.098   9.369  17.886  0.00  0.00    +0.000 A 
ATOM      5  C   UNL     1       1.677   9.284  19.221  0.00  0.00    +0.000 A 
ATOM      6  C   UNL     1       1.845   8.078  19.910  0.00  0.00    +0.000 A 
ATOM      7  C   UNL     1       2.459   7.000  19.248  0.00  0.00    +0.000 A 
BRANCH   5   8
ATOM      8  O   UNL     1       1.065  10.343  19.839  0.00  0.00    +0.000 OA
ATOM      9  C   UNL     1      -0.143  10.784  19.226  0.00  0.00    +0.000 C 
ENDBRANCH   5   8
BRANCH   6  10
ATOM     10  O   UNL     1       1.493   7.760  21.195  0.00  0.00    +0.000 OA
ATOM     11  C   UNL     1       1.136   8.810  22.080  0.00  0.00    +0.000 C 
ENDBRANCH   6  10
ENDBRANCH   1   2
BRANCH   1  12
ATOM     12  C   UNL     1       3.369   4.518  17.929  0.00  0.00    +0.000 C 
ATOM     13  O   UNL     1       3.586   3.462  17.336  0.00  0.00    +0.000 OA
ATOM     14  N   UNL     1       2.841   4.540  19.207  0.00  0.00    +0.000 N 
ATOM     15  H   UNL     1       2.627   5.459  19.603  0.00  0.00    +0.000 HD
BRANCH  14  16
ATOM     16  C   UNL     1       2.391   3.342  19.895  0.00  0.00    +0.000 C 
ATOM     17  C   UNL     1       3.423   2.791  20.868  0.00  0.00    +0.000 C 
ATOM     18  C   UNL     1       2.617   1.861  21.764  0.00  0.00    +0.000 C 
ATOM     19  C   UNL     1       1.236   2.501  21.878  0.00  0.00    +0.000 C 
ATOM     20  C   UNL     1       1.169   3.581  20.795  0.00  0.00    +0.000 C 
ENDBRANCH  14  16
ENDBRANCH   1  12
BRANCH   1  21
ATOM     21  N   UNL     1       5.018   6.160  16.899  0.00  0.00    +0.000 N 
ATOM     22  C   UNL     1       5.972   6.192  17.914  0.00  0.00    +0.000 C 
ATOM     23  O   UNL     1       5.738   5.811  19.061  0.00  0.00    +0.000 OA
BRANCH  21  24
ATOM     24  C   UNL     1       5.327   6.337  15.474  0.00  0.00    +0.000 C 
BRANCH  24  26
ATOM     25  C   UNL     1       6.593   4.272  14.782  0.00  0.00    +0.000 C 
ATOM     26  C   UNL     1       5.471   5.005  14.793  0.00  0.00    +0.000 C 
ENDBRANCH  24  26
ENDBRANCH  21  24
BRANCH  22  27
ATOM     27  C   UNL     1       7.321   6.763  17.537  0.00  0.00    +0.000 C 
BRANCH  27  28
ATOM     28  C   UNL     1       8.104   7.366  18.700  0.00  0.00    +0.000 C 
BRANCH  28  29
ATOM     29  C   UNL     1       8.385   8.821  18.378  0.00  0.00    +0.000 C 
ATOM     30  O   UNL     1       7.900   9.366  17.387  0.00  0.00    +0.000 OA
ATOM     31  N   UNL     1       9.229   9.442  19.272  0.00  0.00    +0.000 N 
ATOM     32  C   UNL     1       9.628  10.749  19.066  0.00  0.00    +0.000 A 
ATOM     33  C   UNL     1       8.879  11.805  18.500  0.00  0.00    +0.000 A 
ATOM     34  C   UNL     1       9.763  12.847  18.413  0.00  0.00    +0.000 A 
ATOM     35  C   UNL     1       9.677  14.218  17.884  0.00  0.00    +0.000 C 
ATOM     36  O   UNL     1      10.957  12.460  18.939  0.00  0.00    +0.000 OA
ATOM     37  N   UNL     1      10.854  11.157  19.404  0.00  0.00    +0.000 NA
ATOM     38  H   UNL     1       9.865   8.889  19.830  0.00  0.00    +0.000 HD
ENDBRANCH  28  29
ENDBRANCH  27  28
ENDBRANCH  22  27
ENDBRANCH   1  21
TORSDOF 11
ENDMDL
MODEL 6
REMARK VINA RESULT:      -7.1      2.077      3.106
REMARK  Name = 
REMARK  14 active torsions:
REMARK  status: ('A' for Active; 'I' for Inactive)
REMARK    1  A    between atoms: C_2  and  C_3
REMARK    2  A    between atoms: C_3  and  N_4
REMARK    3  A    between atoms: N_4  and  C_18
REMARK    4  A    between atoms: C_5  and  C_7
REMARK    5  A    between atoms: C_7  and  C_8
REMARK    6  A    between atoms: C_8  and  C_9
REMARK    7  A    between atoms: C_14  and  C_15
REMARK    8  A    between atoms: C_18  and  C_19
REMARK    9  A    between atoms: C_18  and  C_27
REMARK   10  A    between atoms: N_21  and  C_22
REMARK   11  A    between atoms: C_30  and  O_31
REMARK   12  A    between atoms: O_31  and  C_32
REMARK   13  A    between atoms: C_33  and  O_34
REMARK   14  A    between atoms: O_34  and  C_35
REMARK                            x       y       z     vdW  Elec       q    Type
REMARK                         _______ _______ _______ _____ _____    ______ ____
ROOT
ATOM      1  C   UNL     1       0.339  11.708  20.784  0.00  0.00    +0.000 C 
ENDROOT
BRANCH   1   2
ATOM      2  C   UNL     1      -1.136  12.085  20.612  0.00  0.00    +0.000 A 
ATOM      3  C   UNL     1      -1.841  11.754  19.453  0.00  0.00    +0.000 A 
ATOM      4  C   UNL     1      -3.173  12.137  19.293  0.00  0.00    +0.000 A 
ATOM      5  C   UNL     1      -3.833  12.903  20.265  0.00  0.00    +0.000 A 
ATOM      6  C   UNL     1      -3.150  13.254  21.433  0.00  0.00    +0.000 A 
ATOM      7  C   UNL     1      -1.811  12.851  21.581  0.00  0.00    +0.000 A 
BRANCH   5   8
ATOM      8  O   UNL     1      -5.145  13.268  20.106  0.00  0.00    +0.000 OA
ATOM      9  C   UNL     1      -5.754  12.820  18.898  0.00  0.00    +0.000 C 
ENDBRANCH   5   8
BRANCH   6  10
ATOM     10  O   UNL     1      -3.596  13.968  22.514  0.00  0.00    +0.000 OA
ATOM     11  C   UNL     1      -3.527  15.384  22.467  0.00  0.00    +0.000 C 
ENDBRANCH   6  10
ENDBRANCH   1   2
BRANCH   1  12
ATOM     12  C   UNL     1       1.343  12.866  20.494  0.00  0.00    +0.000 C 
ATOM     13  O   UNL     1       2.423  12.935  21.079  0.00  0.00    +0.000 OA
ATOM     14  N   UNL     1       0.930  13.847  19.611  0.00  0.00    +0.000 N 
ATOM     15  H   UNL     1      -0.009  13.749  19.218  0.00  0.00    +0.000 HD
BRANCH  14  16
ATOM     16  C   UNL     1       1.670  15.080  19.398  0.00  0.00    +0.000 C 
ATOM     17  C   UNL     1       2.678  14.980  18.263  0.00  0.00    +0.000 C 
ATOM     18  C   UNL     1       2.994  16.432  17.931  0.00  0.00    +0.000 C 
ATOM     19  C   UNL     1       1.698  17.199  18.181  0.00  0.00    +0.000 C 
ATOM     20  C   UNL     1       0.781  16.254  18.963  0.00  0.00    +0.000 C 
ENDBRANCH  14  16
ENDBRANCH   1  12
BRANCH   1  21
ATOM     21  N   UNL     1       0.713  10.426  20.140  0.00  0.00    +0.000 N 
ATOM     22  C   UNL     1       1.189  10.426  18.831  0.00  0.00    +0.000 C 
ATOM     23  O   UNL     1       1.512  11.457  18.238  0.00  0.00    +0.000 OA
BRANCH  21  24
ATOM     24  C   UNL     1       0.584   9.219  20.968  0.00  0.00    +0.000 C 
BRANCH  24  26
ATOM     25  C   UNL     1      -0.226   9.528  23.333  0.00  0.00    +0.000 C 
ATOM     26  C   UNL     1       0.758   9.554  22.423  0.00  0.00    +0.000 C 
ENDBRANCH  24  26
ENDBRANCH  21  24
BRANCH  22  27
ATOM     27  C   UNL     1       1.254   9.078  18.150  0.00  0.00    +0.000 C 
BRANCH  27  28
ATOM     28  C   UNL     1       2.657   8.643  17.732  0.00  0.00    +0.000 C 
BRANCH  28  29
ATOM     29  C   UNL     1       2.931   7.281  18.340  0.00  0.00    +0.000 C 
ATOM     30  O   UNL     1       2.208   6.810  19.218  0.00  0.00    +0.000 OA
ATOM     31  N   UNL     1       4.050   6.655  17.836  0.00  0.00    +0.000 N 
ATOM     32  C   UNL     1       4.461   5.438  18.345  0.00  0.00    +0.000 A 
ATOM     33  C   UNL     1       3.653   4.382  18.823  0.00  0.00    +0.000 A 
ATOM     34  C   UNL     1       4.543   3.467  19.321  0.00  0.00    +0.000 A 
ATOM     35  C   UNL     1       4.400   2.171  20.004  0.00  0.00    +0.000 C 
ATOM     36  O   UNL     1       5.809   3.920  19.113  0.00  0.00    +0.000 OA
ATOM     37  N   UNL     1       5.758   5.135  18.445  0.00  0.00    +0.000 NA
ATOM     38  H   UNL     1       4.784   7.204  17.409  0.00  0.00    +0.000 HD
ENDBRANCH  28  29
ENDBRANCH  27  28
ENDBRANCH  22  27
ENDBRANCH   1  21
TORSDOF 11
ENDMDL
MODEL 7
REMARK VINA RESULT:      -7.0      2.355      4.154
REMARK  Name = 
REMARK  14 active torsions:
REMARK  status: ('A' for Active; 'I' for Inactive)
REMARK    1  A    between atoms: C_2  and  C_3
REMARK    2  A    between atoms: C_3  and  N_4
REMARK    3  A    between atoms: N_4  and  C_18
REMARK    4  A    between atoms: C_5  and  C_7
REMARK    5  A    between atoms: C_7  and  C_8
REMARK    6  A    between atoms: C_8  and  C_9
REMARK    7  A    between atoms: C_14  and  C_15
REMARK    8  A    between atoms: C_18  and  C_19
REMARK    9  A    between atoms: C_18  and  C_27
REMARK   10  A    between atoms: N_21  and  C_22
REMARK   11  A    between atoms: C_30  and  O_31
REMARK   12  A    between atoms: O_31  and  C_32
REMARK   13  A    between atoms: C_33  and  O_34
REMARK   14  A    between atoms: O_34  and  C_35
REMARK                            x       y       z     vdW  Elec       q    Type
REMARK                         _______ _______ _______ _____ _____    ______ ____
ROOT
ATOM      1  C   UNL     1      -0.105  12.171  20.159  0.00  0.00    +0.000 C 
ENDROOT
BRANCH   1   2
ATOM      2  C   UNL     1      -1.354  12.306  21.036  0.00  0.00    +0.000 A 
ATOM      3  C   UNL     1      -1.358  11.877  22.366  0.00  0.00    +0.000 A 
ATOM      4  C   UNL     1      -2.513  11.971  23.143  0.00  0.00    +0.000 A 
ATOM      5  C   UNL     1      -3.717  12.452  22.606  0.00  0.00    +0.000 A 
ATOM      6  C   UNL     1      -3.744  12.882  21.276  0.00  0.00    +0.000 A 
ATOM      7  C   UNL     1      -2.567  12.789  20.511  0.00  0.00    +0.000 A 
BRANCH   5   8
ATOM      8  O   UNL     1      -4.845  12.550  23.378  0.00  0.00    +0.000 OA
ATOM      9  C   UNL     1      -4.641  12.353  24.774  0.00  0.00    +0.000 C 
ENDBRANCH   5   8
BRANCH   6  10
ATOM     10  O   UNL     1      -4.786  13.404  20.557  0.00  0.00    +0.000 OA
ATOM     11  C   UNL     1      -5.681  12.511  19.914  0.00  0.00    +0.000 C 
ENDBRANCH   6  10
ENDBRANCH   1   2
BRANCH   1  12
ATOM     12  C   UNL     1       0.198  13.415  19.267  0.00  0.00    +0.000 C 
ATOM     13  O   UNL     1      -0.466  13.652  18.258  0.00  0.00    +0.000 OA
ATOM     14  N   UNL     1       1.288  14.188  19.621  0.00  0.00    +0.000 N 
ATOM     15  H   UNL     1       1.826  13.884  20.436  0.00  0.00    +0.000 HD
BRANCH  14  16
ATOM     16  C   UNL     1       1.807  15.252  18.777  0.00  0.00    +0.000 C 
ATOM     17  C   UNL     1       2.513  16.345  19.566  0.00  0.00    +0.000 C 
ATOM     18  C   UNL     1       3.331  17.080  18.514  0.00  0.00    +0.000 C 
ATOM     19  C   UNL     1       3.748  16.015  17.504  0.00  0.00    +0.000 C 
ATOM     20  C   UNL     1       2.895  14.779  17.802  0.00  0.00    +0.000 C 
ENDBRANCH  14  16
ENDBRANCH   1  12
BRANCH   1  21
ATOM     21  N   UNL     1      -0.016  10.884  19.430  0.00  0.00    +0.000 N 
ATOM     22  C   UNL     1       1.202  10.485  18.885  0.00  0.00    +0.000 C 
ATOM     23  O   UNL     1       2.266  11.046  19.146  0.00  0.00    +0.000 OA
BRANCH  21  24
ATOM     24  C   UNL     1      -1.246  10.084  19.369  0.00  0.00    +0.000 C 
BRANCH  24  26
ATOM     25  C   UNL     1      -3.184  10.331  17.778  0.00  0.00    +0.000 C 
ATOM     26  C   UNL     1      -1.872  10.177  18.005  0.00  0.00    +0.000 C 
ENDBRANCH  24  26
ENDBRANCH  21  24
BRANCH  22  27
ATOM     27  C   UNL     1       1.144   9.331  17.908  0.00  0.00    +0.000 C 
BRANCH  27  28
ATOM     28  C   UNL     1       2.423   8.503  17.825  0.00  0.00    +0.000 C 
BRANCH  28  29
ATOM     29  C   UNL     1       2.294   7.334  18.782  0.00  0.00    +0.000 C 
ATOM     30  O   UNL     1       2.179   7.506  19.996  0.00  0.00    +0.000 OA
ATOM     31  N   UNL     1       2.337   6.100  18.173  0.00  0.00    +0.000 N 
ATOM     32  C   UNL     1       2.300   4.943  18.929  0.00  0.00    +0.000 A 
ATOM     33  C   UNL     1       1.592   4.716  20.130  0.00  0.00    +0.000 A 
ATOM     34  C   UNL     1       1.984   3.466  20.529  0.00  0.00    +0.000 A 
ATOM     35  C   UNL     1       1.685   2.628  21.702  0.00  0.00    +0.000 C 
ATOM     36  O   UNL     1       2.837   2.952  19.602  0.00  0.00    +0.000 OA
ATOM     37  N   UNL     1       2.989   3.859  18.564  0.00  0.00    +0.000 NA
ATOM     38  H   UNL     1       2.781   6.000  17.270  0.00  0.00    +0.000 HD
ENDBRANCH  28  29
ENDBRANCH  27  28
ENDBRANCH  22  27
ENDBRANCH   1  21
TORSDOF 11
ENDMDL
MODEL 8
REMARK VINA RESULT:      -7.0      1.784      3.071
REMARK  Name = 
REMARK  14 active torsions:
REMARK  status: ('A' for Active; 'I' for Inactive)
REMARK    1  A    between atoms: C_2  and  C_3
REMARK    2  A    between atoms: C_3  and  N_4
REMARK    3  A    between atoms: N_4  and  C_18
REMARK    4  A    between atoms: C_5  and  C_7
REMARK    5  A    between atoms: C_7  and  C_8
REMARK    6  A    between atoms: C_8  and  C_9
REMARK    7  A    between atoms: C_14  and  C_15
REMARK    8  A    between atoms: C_18  and  C_19
REMARK    9  A    between atoms: C_18  and  C_27
REMARK   10  A    between atoms: N_21  and  C_22
REMARK   11  A    between atoms: C_30  and  O_31
REMARK   12  A    between atoms: O_31  and  C_32
REMARK   13  A    between atoms: C_33  and  O_34
REMARK   14  A    between atoms: O_34  and  C_35
REMARK                            x       y       z     vdW  Elec       q    Type
REMARK                         _______ _______ _______ _____ _____    ______ ____
ROOT
ATOM      1  C   UNL     1       0.213  11.040  20.137  0.00  0.00    +0.000 C 
ENDROOT
BRANCH   1   2
ATOM      2  C   UNL     1      -1.159  11.262  19.492  0.00  0.00    +0.000 A 
ATOM      3  C   UNL     1      -2.086  12.152  20.040  0.00  0.00    +0.000 A 
ATOM      4  C   UNL     1      -3.345  12.316  19.464  0.00  0.00    +0.000 A 
ATOM      5  C   UNL     1      -3.742  11.563  18.349  0.00  0.00    +0.000 A 
ATOM      6  C   UNL     1      -2.838  10.660  17.783  0.00  0.00    +0.000 A 
ATOM      7  C   UNL     1      -1.568  10.515  18.371  0.00  0.00    +0.000 A 
BRANCH   5   8
ATOM      8  O   UNL     1      -4.978  11.736  17.782  0.00  0.00    +0.000 OA
ATOM      9  C   UNL     1      -6.023  10.960  18.363  0.00  0.00    +0.000 C 
ENDBRANCH   5   8
BRANCH   6  10
ATOM     10  O   UNL     1      -2.996   9.847  16.691  0.00  0.00    +0.000 OA
ATOM     11  C   UNL     1      -2.803  10.401  15.399  0.00  0.00    +0.000 C 
ENDBRANCH   6  10
ENDBRANCH   1   2
BRANCH   1  12
ATOM     12  C   UNL     1       1.200  12.240  19.989  0.00  0.00    +0.000 C 
ATOM     13  O   UNL     1       2.000  12.521  20.881  0.00  0.00    +0.000 OA
ATOM     14  N   UNL     1       1.080  13.012  18.848  0.00  0.00    +0.000 N 
ATOM     15  H   UNL     1       0.346  12.748  18.187  0.00  0.00    +0.000 HD
BRANCH  14  16
ATOM     16  C   UNL     1       1.790  14.267  18.667  0.00  0.00    +0.000 C 
ATOM     17  C   UNL     1       1.442  15.304  19.725  0.00  0.00    +0.000 C 
ATOM     18  C   UNL     1       2.573  16.318  19.623  0.00  0.00    +0.000 C 
ATOM     19  C   UNL     1       3.812  15.511  19.247  0.00  0.00    +0.000 C 
ATOM     20  C   UNL     1       3.313  14.130  18.813  0.00  0.00    +0.000 C 
ENDBRANCH  14  16
ENDBRANCH   1  12
BRANCH   1  21
ATOM     21  N   UNL     1       0.823   9.728  19.821  0.00  0.00    +0.000 N 
ATOM     22  C   UNL     1       1.462   9.543  18.596  0.00  0.00    +0.000 C 
ATOM     23  O   UNL     1       1.727  10.473  17.834  0.00  0.00    +0.000 OA
BRANCH  21  24
ATOM     24  C   UNL     1       0.741   8.702  20.869  0.00  0.00    +0.000 C 
BRANCH  24  26
ATOM     25  C   UNL     1       0.082   9.455  23.180  0.00  0.00    +0.000 C 
ATOM     26  C   UNL     1      -0.245   9.104  21.928  0.00  0.00    +0.000 C 
ENDBRANCH  24  26
ENDBRANCH  21  24
BRANCH  22  27
ATOM     27  C   UNL     1       1.783   8.112  18.227  0.00  0.00    +0.000 C 
BRANCH  27  28
ATOM     28  C   UNL     1       3.227   7.875  17.795  0.00  0.00    +0.000 C 
BRANCH  28  29
ATOM     29  C   UNL     1       3.583   6.433  18.100  0.00  0.00    +0.000 C 
ATOM     30  O   UNL     1       4.122   5.711  17.260  0.00  0.00    +0.000 OA
ATOM     31  N   UNL     1       3.234   6.023  19.367  0.00  0.00    +0.000 N 
ATOM     32  C   UNL     1       3.434   4.713  19.760  0.00  0.00    +0.000 A 
ATOM     33  C   UNL     1       4.491   3.851  19.392  0.00  0.00    +0.000 A 
ATOM     34  C   UNL     1       4.161   2.644  19.949  0.00  0.00    +0.000 A 
ATOM     35  C   UNL     1       4.776   1.307  19.929  0.00  0.00    +0.000 C 
ATOM     36  O   UNL     1       3.003   2.782  20.651  0.00  0.00    +0.000 OA
ATOM     37  N   UNL     1       2.576   4.100  20.580  0.00  0.00    +0.000 NA
ATOM     38  H   UNL     1       2.500   6.506  19.867  0.00  0.00    +0.000 HD
ENDBRANCH  28  29
ENDBRANCH  27  28
ENDBRANCH  22  27
ENDBRANCH   1  21
TORSDOF 11
ENDMDL
MODEL 9
REMARK VINA RESULT:      -7.0      1.893      3.214
REMARK  Name = 
REMARK  14 active torsions:
REMARK  status: ('A' for Active; 'I' for Inactive)
REMARK    1  A    between atoms: C_2  and  C_3
REMARK    2  A    between atoms: C_3  and  N_4
REMARK    3  A    between atoms: N_4  and  C_18
REMARK    4  A    between atoms: C_5  and  C_7
REMARK    5  A    between atoms: C_7  and  C_8
REMARK    6  A    between atoms: C_8  and  C_9
REMARK    7  A    between atoms: C_14  and  C_15
REMARK    8  A    between atoms: C_18  and  C_19
REMARK    9  A    between atoms: C_18  and  C_27
REMARK   10  A    between atoms: N_21  and  C_22
REMARK   11  A    between atoms: C_30  and  O_31
REMARK   12  A    between atoms: O_31  and  C_32
REMARK   13  A    between atoms: C_33  and  O_34
REMARK   14  A    between atoms: O_34  and  C_35
REMARK                            x       y       z     vdW  Elec       q    Type
REMARK                         _______ _______ _______ _____ _____    ______ ____
ROOT
ATOM      1  C   UNL     1      -0.267  11.551  20.680  0.00  0.00    +0.000 C 
ENDROOT
BRANCH   1   2
ATOM      2  C   UNL     1      -1.681  11.873  20.187  0.00  0.00    +0.000 A 
ATOM      3  C   UNL     1      -2.603  12.531  21.005  0.00  0.00    +0.000 A 
ATOM      4  C   UNL     1      -3.900  12.785  20.557  0.00  0.00    +0.000 A 
ATOM      5  C   UNL     1      -4.336  12.349  19.297  0.00  0.00    +0.000 A 
ATOM      6  C   UNL     1      -3.436  11.682  18.460  0.00  0.00    +0.000 A 
ATOM      7  C   UNL     1      -2.130  11.444  18.924  0.00  0.00    +0.000 A 
BRANCH   5   8
ATOM      8  O   UNL     1      -5.609  12.610  18.861  0.00  0.00    +0.000 OA
ATOM      9  C   UNL     1      -6.608  11.717  19.346  0.00  0.00    +0.000 C 
ENDBRANCH   5   8
BRANCH   6  10
ATOM     10  O   UNL     1      -3.631  11.194  17.195  0.00  0.00    +0.000 OA
ATOM     11  C   UNL     1      -2.793  10.145  16.737  0.00  0.00    +0.000 C 
ENDBRANCH   6  10
ENDBRANCH   1   2
BRANCH   1  12
ATOM     12  C   UNL     1       0.719  12.760  20.654  0.00  0.00    +0.000 C 
ATOM     13  O   UNL     1       1.757  12.750  21.316  0.00  0.00    +0.000 OA
ATOM     14  N   UNL     1       0.336  13.866  19.919  0.00  0.00    +0.000 N 
ATOM     15  H   UNL     1      -0.573  13.818  19.452  0.00  0.00    +0.000 HD
BRANCH  14  16
ATOM     16  C   UNL     1       1.051  15.131  19.964  0.00  0.00    +0.000 C 
ATOM     17  C   UNL     1       0.935  15.926  18.671  0.00  0.00    +0.000 C 
ATOM     18  C   UNL     1       1.347  17.335  19.075  0.00  0.00    +0.000 C 
ATOM     19  C   UNL     1       0.864  17.505  20.513  0.00  0.00    +0.000 C 
ATOM     20  C   UNL     1       0.497  16.105  21.014  0.00  0.00    +0.000 C 
ENDBRANCH  14  16
ENDBRANCH   1  12
BRANCH   1  21
ATOM     21  N   UNL     1       0.304  10.310  20.106  0.00  0.00    +0.000 N 
ATOM     22  C   UNL     1       0.969  10.359  18.883  0.00  0.00    +0.000 C 
ATOM     23  O   UNL     1       1.290  11.416  18.339  0.00  0.00    +0.000 OA
BRANCH  21  24
ATOM     24  C   UNL     1       0.155   9.091  20.913  0.00  0.00    +0.000 C 
BRANCH  24  26
ATOM     25  C   UNL     1       0.032   9.443  23.404  0.00  0.00    +0.000 C 
ATOM     26  C   UNL     1       0.746   9.285  22.281  0.00  0.00    +0.000 C 
ENDBRANCH  24  26
ENDBRANCH  21  24
BRANCH  22  27
ATOM     27  C   UNL     1       1.247   9.025  18.227  0.00  0.00    +0.000 C 
BRANCH  27  28
ATOM     28  C   UNL     1       2.680   8.846  17.731  0.00  0.00    +0.000 C 
BRANCH  28  29
ATOM     29  C   UNL     1       3.124   7.435  18.066  0.00  0.00    +0.000 C 
ATOM     30  O   UNL     1       3.958   6.843  17.380  0.00  0.00    +0.000 OA
ATOM     31  N   UNL     1       2.503   6.896  19.170  0.00  0.00    +0.000 N 
ATOM     32  C   UNL     1       2.758   5.593  19.552  0.00  0.00    +0.000 A 
ATOM     33  C   UNL     1       3.978   4.886  19.457  0.00  0.00    +0.000 A 
ATOM     34  C   UNL     1       3.669   3.612  19.853  0.00  0.00    +0.000 A 
ATOM     35  C   UNL     1       4.436   2.358  19.951  0.00  0.00    +0.000 C 
ATOM     36  O   UNL     1       2.358   3.565  20.212  0.00  0.00    +0.000 OA
ATOM     37  N   UNL     1       1.798   4.828  20.078  0.00  0.00    +0.000 NA
ATOM     38  H   UNL     1       1.605   7.255  19.467  0.00  0.00    +0.000 HD
ENDBRANCH  28  29
ENDBRANCH  27  28
ENDBRANCH  22  27
ENDBRANCH   1  21
TORSDOF 11
ENDMDL
