MODEL 1
REMARK VINA RESULT:      -8.8      0.000      0.000
REMARK  Name = 
REMARK  10 active torsions:
REMARK  status: ('A' for Active; 'I' for Inactive)
REMARK    1  A    between atoms: C_1  and  C_2
REMARK    2  A    between atoms: C_2  and  C_3
REMARK    3  A    between atoms: C_2  and  C_4
REMARK    4  A    between atoms: C_8  and  C_9
REMARK    5  A    between atoms: C_9  and  C_10
REMARK    6  A    between atoms: C_9  and  C_11
REMARK    7  A    between atoms: C_12  and  N_13
REMARK    8  A    between atoms: N_16  and  C_17
REMARK    9  A    between atoms: C_17  and  C_18
REMARK   10  A    between atoms: C_18  and  C_20
REMARK                            x       y       z     vdW  Elec       q    Type
REMARK                         _______ _______ _______ _____ _____    ______ ____
ROOT
ATOM      1  N   UNL     1       2.628   6.475  18.753  0.00  0.00    +0.000 N 
ATOM      2  C   UNL     1       2.249   6.839  20.043  0.00  0.00    +0.000 A 
ATOM      3  C   UNL     1       1.819   8.143  20.002  0.00  0.00    +0.000 A 
ATOM      4  N   UNL     1       1.873   8.541  18.681  0.00  0.00    +0.000 N 
ATOM      5  C   UNL     1       2.369   7.524  17.957  0.00  0.00    +0.000 A 
ENDROOT
BRANCH   1  11
ATOM      6  C   UNL     1       4.422   5.231  17.519  0.00  0.00    +0.000 A 
ATOM      7  C   UNL     1       5.017   3.998  17.173  0.00  0.00    +0.000 A 
ATOM      8  C   UNL     1       4.443   2.785  17.521  0.00  0.00    +0.000 A 
ATOM      9  C   UNL     1       3.232   2.767  18.197  0.00  0.00    +0.000 A 
ATOM     10  C   UNL     1       2.575   3.953  18.592  0.00  0.00    +0.000 A 
ATOM     11  C   UNL     1       3.214   5.195  18.272  0.00  0.00    +0.000 A 
BRANCH   6  13
ATOM     12  C   UNL     1       6.509   6.659  17.551  0.00  0.00    +0.000 C 
ATOM     13  C   UNL     1       5.104   6.480  16.956  0.00  0.00    +0.000 C 
ATOM     14  C   UNL     1       5.187   6.476  15.421  0.00  0.00    +0.000 C 
ENDBRANCH   6  13
BRANCH  10  15
ATOM     15  C   UNL     1       1.227   3.767  19.297  0.00  0.00    +0.000 C 
ATOM     16  C   UNL     1       0.516   2.510  18.757  0.00  0.00    +0.000 C 
ATOM     17  C   UNL     1       1.285   3.644  20.831  0.00  0.00    +0.000 C 
ENDBRANCH  10  15
ENDBRANCH   1  11
BRANCH   4  18
ATOM     18  C   UNL     1       1.448   9.854  18.122  0.00  0.00    +0.000 C 
BRANCH  18  19
ATOM     19  C   UNL     1       0.492  10.627  19.037  0.00  0.00    +0.000 C 
ATOM     20  O   UNL     1       0.867  11.178  20.072  0.00  0.00    +0.000 OA
BRANCH  19  21
ATOM     21  C   UNL     1      -0.935  10.766  18.659  0.00  0.00    +0.000 A 
ATOM     22  C   UNL     1      -1.387  10.034  17.547  0.00  0.00    +0.000 A 
ATOM     23  C   UNL     1      -2.723  10.095  17.155  0.00  0.00    +0.000 A 
ATOM     24  C   UNL     1      -3.631  10.885  17.859  0.00  0.00    +0.000 A 
ATOM     25  C   UNL     1      -4.986  10.915  17.500  0.00  0.00    +0.000 A 
ATOM     26  C   UNL     1      -5.882  11.727  18.189  0.00  0.00    +0.000 A 
ATOM     27  C   UNL     1      -5.431  12.548  19.219  0.00  0.00    +0.000 A 
ATOM     28  C   UNL     1      -4.087  12.521  19.597  0.00  0.00    +0.000 A 
ATOM     29  C   UNL     1      -3.174  11.673  18.947  0.00  0.00    +0.000 A 
ATOM     30  C   UNL     1      -1.827  11.588  19.351  0.00  0.00    +0.000 A 
ENDBRANCH  19  21
ENDBRANCH  18  19
ENDBRANCH   4  18
TORSDOF 6
ENDMDL
MODEL 2
REMARK VINA RESULT:      -8.7      0.294      3.129
REMARK  Name = 
REMARK  10 active torsions:
REMARK  status: ('A' for Active; 'I' for Inactive)
REMARK    1  A    between atoms: C_1  and  C_2
REMARK    2  A    between atoms: C_2  and  C_3
REMARK    3  A    between atoms: C_2  and  C_4
REMARK    4  A    between atoms: C_8  and  C_9
REMARK    5  A    between atoms: C_9  and  C_10
REMARK    6  A    between atoms: C_9  and  C_11
REMARK    7  A    between atoms: C_12  and  N_13
REMARK    8  A    between atoms: N_16  and  C_17
REMARK    9  A    between atoms: C_17  and  C_18
REMARK   10  A    between atoms: C_18  and  C_20
REMARK                            x       y       z     vdW  Elec       q    Type
REMARK                         _______ _______ _______ _____ _____    ______ ____
ROOT
ATOM      1  N   UNL     1       2.612   6.483  18.868  0.00  0.00    +0.000 N 
ATOM      2  C   UNL     1       2.243   6.911  20.142  0.00  0.00    +0.000 A 
ATOM      3  C   UNL     1       1.826   8.216  20.042  0.00  0.00    +0.000 A 
ATOM      4  N   UNL     1       1.876   8.551  18.703  0.00  0.00    +0.000 N 
ATOM      5  C   UNL     1       2.358   7.496  18.026  0.00  0.00    +0.000 A 
ENDROOT
BRANCH   1  11
ATOM      6  C   UNL     1       2.541   3.976  18.866  0.00  0.00    +0.000 A 
ATOM      7  C   UNL     1       3.036   2.755  18.358  0.00  0.00    +0.000 A 
ATOM      8  C   UNL     1       4.126   2.706  17.503  0.00  0.00    +0.000 A 
ATOM      9  C   UNL     1       4.782   3.878  17.156  0.00  0.00    +0.000 A 
ATOM     10  C   UNL     1       4.346   5.143  17.609  0.00  0.00    +0.000 A 
ATOM     11  C   UNL     1       3.183   5.176  18.446  0.00  0.00    +0.000 A 
BRANCH   6  13
ATOM     12  C   UNL     1       0.376   2.816  19.466  0.00  0.00    +0.000 C 
ATOM     13  C   UNL     1       1.417   3.861  19.896  0.00  0.00    +0.000 C 
ATOM     14  C   UNL     1       1.929   3.531  21.308  0.00  0.00    +0.000 C 
ENDBRANCH   6  13
BRANCH  10  15
ATOM     15  C   UNL     1       5.197   6.340  17.170  0.00  0.00    +0.000 C 
ATOM     16  C   UNL     1       6.653   6.155  17.641  0.00  0.00    +0.000 C 
ATOM     17  C   UNL     1       5.231   6.617  15.655  0.00  0.00    +0.000 C 
ENDBRANCH  10  15
ENDBRANCH   1  11
BRANCH   4  18
ATOM     18  C   UNL     1       1.460   9.840  18.085  0.00  0.00    +0.000 C 
BRANCH  18  19
ATOM     19  C   UNL     1       0.534  10.675  18.976  0.00  0.00    +0.000 C 
ATOM     20  O   UNL     1       0.941  11.283  19.966  0.00  0.00    +0.000 OA
BRANCH  19  21
ATOM     21  C   UNL     1      -0.902  10.802  18.629  0.00  0.00    +0.000 A 
ATOM     22  C   UNL     1      -1.373  10.060  17.532  0.00  0.00    +0.000 A 
ATOM     23  C   UNL     1      -2.718  10.111  17.169  0.00  0.00    +0.000 A 
ATOM     24  C   UNL     1      -3.615  10.900  17.888  0.00  0.00    +0.000 A 
ATOM     25  C   UNL     1      -4.977  10.920  17.558  0.00  0.00    +0.000 A 
ATOM     26  C   UNL     1      -5.863  11.732  18.261  0.00  0.00    +0.000 A 
ATOM     27  C   UNL     1      -5.394  12.561  19.275  0.00  0.00    +0.000 A 
ATOM     28  C   UNL     1      -4.042  12.545  19.624  0.00  0.00    +0.000 A 
ATOM     29  C   UNL     1      -3.139  11.699  18.960  0.00  0.00    +0.000 A 
ATOM     30  C   UNL     1      -1.783  11.624  19.335  0.00  0.00    +0.000 A 
ENDBRANCH  19  21
ENDBRANCH  18  19
ENDBRANCH   4  18
TORSDOF 6
ENDMDL
MODEL 3
REMARK VINA RESULT:      -8.6      1.903      9.381
REMARK  Name = 
REMARK  10 active torsions:
REMARK  status: ('A' for Active; 'I' for Inactive)
REMARK    1  A    between atoms: C_1  and  C_2
REMARK    2  A    between atoms: C_2  and  C_3
REMARK    3  A    between atoms: C_2  and  C_4
REMARK    4  A    between atoms: C_8  and  C_9
REMARK    5  A    between atoms: C_9  and  C_10
REMARK    6  A    between atoms: C_9  and  C_11
REMARK    7  A    between atoms: C_12  and  N_13
REMARK    8  A    between atoms: N_16  and  C_17
REMARK    9  A    between atoms: C_17  and  C_18
REMARK   10  A    between atoms: C_18  and  C_20
REMARK                            x       y       z     vdW  Elec       q    Type
REMARK                         _______ _______ _______ _____ _____    ______ ____
ROOT
ATOM      1  N   UNL     1      -0.793  11.613  19.323  0.00  0.00    +0.000 N 
ATOM      2  C   UNL     1       0.357  12.399  19.295  0.00  0.00    +0.000 A 
ATOM      3  C   UNL     1       1.369  11.644  18.754  0.00  0.00    +0.000 A 
ATOM      4  N   UNL     1       0.815  10.432  18.394  0.00  0.00    +0.000 N 
ATOM      5  C   UNL     1      -0.478  10.439  18.755  0.00  0.00    +0.000 A 
ENDROOT
BRANCH   1  11
ATOM      6  C   UNL     1      -2.255  12.355  21.221  0.00  0.00    +0.000 A 
ATOM      7  C   UNL     1      -3.527  12.766  21.675  0.00  0.00    +0.000 A 
ATOM      8  C   UNL     1      -4.641  12.744  20.851  0.00  0.00    +0.000 A 
ATOM      9  C   UNL     1      -4.526  12.272  19.551  0.00  0.00    +0.000 A 
ATOM     10  C   UNL     1      -3.290  11.853  19.013  0.00  0.00    +0.000 A 
ATOM     11  C   UNL     1      -2.140  11.938  19.864  0.00  0.00    +0.000 A 
BRANCH   6  13
ATOM     12  C   UNL     1      -1.317  13.455  23.296  0.00  0.00    +0.000 C 
ATOM     13  C   UNL     1      -1.151  12.315  22.279  0.00  0.00    +0.000 C 
ATOM     14  C   UNL     1      -1.079  10.968  23.018  0.00  0.00    +0.000 C 
ENDBRANCH   6  13
BRANCH  10  15
ATOM     15  C   UNL     1      -3.332  11.323  17.575  0.00  0.00    +0.000 C 
ATOM     16  C   UNL     1      -3.325   9.781  17.579  0.00  0.00    +0.000 C 
ATOM     17  C   UNL     1      -4.536  11.778  16.729  0.00  0.00    +0.000 C 
ENDBRANCH  10  15
ENDBRANCH   1  11
BRANCH   4  18
ATOM     18  C   UNL     1       1.501   9.301  17.710  0.00  0.00    +0.000 C 
BRANCH  18  19
ATOM     19  C   UNL     1       2.037   8.237  18.674  0.00  0.00    +0.000 C 
ATOM     20  O   UNL     1       1.836   8.283  19.888  0.00  0.00    +0.000 OA
BRANCH  19  21
ATOM     21  C   UNL     1       2.795   7.079  18.143  0.00  0.00    +0.000 A 
ATOM     22  C   UNL     1       2.284   5.795  18.401  0.00  0.00    +0.000 A 
ATOM     23  C   UNL     1       2.931   4.663  17.907  0.00  0.00    +0.000 A 
ATOM     24  C   UNL     1       4.096   4.789  17.151  0.00  0.00    +0.000 A 
ATOM     25  C   UNL     1       4.726   3.659  16.611  0.00  0.00    +0.000 A 
ATOM     26  C   UNL     1       5.905   3.788  15.881  0.00  0.00    +0.000 A 
ATOM     27  C   UNL     1       6.488   5.040  15.714  0.00  0.00    +0.000 A 
ATOM     28  C   UNL     1       5.867   6.177  16.235  0.00  0.00    +0.000 A 
ATOM     29  C   UNL     1       4.653   6.076  16.934  0.00  0.00    +0.000 A 
ATOM     30  C   UNL     1       3.980   7.216  17.418  0.00  0.00    +0.000 A 
ENDBRANCH  19  21
ENDBRANCH  18  19
ENDBRANCH   4  18
TORSDOF 6
ENDMDL
MODEL 4
REMARK VINA RESULT:      -8.5      1.871      9.147
REMARK  Name = 
REMARK  10 active torsions:
REMARK  status: ('A' for Active; 'I' for Inactive)
REMARK    1  A    between atoms: C_1  and  C_2
REMARK    2  A    between atoms: C_2  and  C_3
REMARK    3  A    between atoms: C_2  and  C_4
REMARK    4  A    between atoms: C_8  and  C_9
REMARK    5  A    between atoms: C_9  and  C_10
REMARK    6  A    between atoms: C_9  and  C_11
REMARK    7  A    between atoms: C_12  and  N_13
REMARK    8  A    between atoms: N_16  and  C_17
REMARK    9  A    between atoms: C_17  and  C_18
REMARK   10  A    between atoms: C_18  and  C_20
REMARK                            x       y       z     vdW  Elec       q    Type
REMARK                         _______ _______ _______ _____ _____    ______ ____
ROOT
ATOM      1  N   UNL     1      -0.779  11.716  19.260  0.00  0.00    +0.000 N 
ATOM      2  C   UNL     1       0.275  12.600  19.046  0.00  0.00    +0.000 A 
ATOM      3  C   UNL     1       1.345  11.873  18.582  0.00  0.00    +0.000 A 
ATOM      4  N   UNL     1       0.915  10.568  18.450  0.00  0.00    +0.000 N 
ATOM      5  C   UNL     1      -0.359  10.503  18.872  0.00  0.00    +0.000 A 
ENDROOT
BRANCH   1  11
ATOM      6  C   UNL     1      -2.257  12.396  21.169  0.00  0.00    +0.000 A 
ATOM      7  C   UNL     1      -3.541  12.756  21.633  0.00  0.00    +0.000 A 
ATOM      8  C   UNL     1      -4.659  12.692  20.816  0.00  0.00    +0.000 A 
ATOM      9  C   UNL     1      -4.534  12.227  19.515  0.00  0.00    +0.000 A 
ATOM     10  C   UNL     1      -3.286  11.858  18.967  0.00  0.00    +0.000 A 
ATOM     11  C   UNL     1      -2.135  11.987  19.810  0.00  0.00    +0.000 A 
BRANCH   6  13
ATOM     12  C   UNL     1      -1.359  13.517  23.251  0.00  0.00    +0.000 C 
ATOM     13  C   UNL     1      -1.146  12.398  22.220  0.00  0.00    +0.000 C 
ATOM     14  C   UNL     1      -1.003  11.048  22.943  0.00  0.00    +0.000 C 
ENDBRANCH   6  13
BRANCH  10  15
ATOM     15  C   UNL     1      -3.317  11.330  17.529  0.00  0.00    +0.000 C 
ATOM     16  C   UNL     1      -3.235   9.790  17.529  0.00  0.00    +0.000 C 
ATOM     17  C   UNL     1      -4.551  11.728  16.696  0.00  0.00    +0.000 C 
ENDBRANCH  10  15
ENDBRANCH   1  11
BRANCH   4  18
ATOM     18  C   UNL     1       1.695   9.416  17.922  0.00  0.00    +0.000 C 
BRANCH  18  19
ATOM     19  C   UNL     1       1.957   8.324  18.966  0.00  0.00    +0.000 C 
ATOM     20  O   UNL     1       1.729   8.486  20.164  0.00  0.00    +0.000 OA
BRANCH  19  21
ATOM     21  C   UNL     1       2.465   7.000  18.533  0.00  0.00    +0.000 A 
ATOM     22  C   UNL     1       3.635   6.976  17.754  0.00  0.00    +0.000 A 
ATOM     23  C   UNL     1       4.184   5.765  17.338  0.00  0.00    +0.000 A 
ATOM     24  C   UNL     1       3.578   4.558  17.685  0.00  0.00    +0.000 A 
ATOM     25  C   UNL     1       4.149   3.334  17.310  0.00  0.00    +0.000 A 
ATOM     26  C   UNL     1       3.525   2.133  17.636  0.00  0.00    +0.000 A 
ATOM     27  C   UNL     1       2.305   2.140  18.306  0.00  0.00    +0.000 A 
ATOM     28  C   UNL     1       1.728   3.350  18.697  0.00  0.00    +0.000 A 
ATOM     29  C   UNL     1       2.364   4.572  18.421  0.00  0.00    +0.000 A 
ATOM     30  C   UNL     1       1.829   5.800  18.857  0.00  0.00    +0.000 A 
ENDBRANCH  19  21
ENDBRANCH  18  19
ENDBRANCH   4  18
TORSDOF 6
ENDMDL
MODEL 5
REMARK VINA RESULT:      -8.4      0.533      1.354
REMARK  Name = 
REMARK  10 active torsions:
REMARK  status: ('A' for Active; 'I' for Inactive)
REMARK    1  A    between atoms: C_1  and  C_2
REMARK    2  A    between atoms: C_2  and  C_3
REMARK    3  A    between atoms: C_2  and  C_4
REMARK    4  A    between atoms: C_8  and  C_9
REMARK    5  A    between atoms: C_9  and  C_10
REMARK    6  A    between atoms: C_9  and  C_11
REMARK    7  A    between atoms: C_12  and  N_13
REMARK    8  A    between atoms: N_16  and  C_17
REMARK    9  A    between atoms: C_17  and  C_18
REMARK   10  A    between atoms: C_18  and  C_20
REMARK                            x       y       z     vdW  Elec       q    Type
REMARK                         _______ _______ _______ _____ _____    ______ ____
ROOT
ATOM      1  N   UNL     1       2.579   6.601  18.817  0.00  0.00    +0.000 N 
ATOM      2  C   UNL     1       2.181   6.969  20.100  0.00  0.00    +0.000 A 
ATOM      3  C   UNL     1       1.712   8.259  20.041  0.00  0.00    +0.000 A 
ATOM      4  N   UNL     1       1.763   8.643  18.716  0.00  0.00    +0.000 N 
ATOM      5  C   UNL     1       2.294   7.632  18.008  0.00  0.00    +0.000 A 
ENDROOT
BRANCH   1  11
ATOM      6  C   UNL     1       4.416   5.398  17.605  0.00  0.00    +0.000 A 
ATOM      7  C   UNL     1       5.051   4.180  17.278  0.00  0.00    +0.000 A 
ATOM      8  C   UNL     1       4.515   2.955  17.641  0.00  0.00    +0.000 A 
ATOM      9  C   UNL     1       3.302   2.907  18.314  0.00  0.00    +0.000 A 
ATOM     10  C   UNL     1       2.607   4.077  18.690  0.00  0.00    +0.000 A 
ATOM     11  C   UNL     1       3.207   5.334  18.356  0.00  0.00    +0.000 A 
BRANCH   6  13
ATOM     12  C   UNL     1       6.492   6.842  17.553  0.00  0.00    +0.000 C 
ATOM     13  C   UNL     1       5.060   6.660  17.027  0.00  0.00    +0.000 C 
ATOM     14  C   UNL     1       5.066   6.679  15.490  0.00  0.00    +0.000 C 
ENDBRANCH   6  13
BRANCH  10  15
ATOM     15  C   UNL     1       1.263   3.858  19.395  0.00  0.00    +0.000 C 
ATOM     16  C   UNL     1       0.541   2.639  18.789  0.00  0.00    +0.000 C 
ATOM     17  C   UNL     1       1.333   3.646  20.919  0.00  0.00    +0.000 C 
ENDBRANCH  10  15
ENDBRANCH   1  11
BRANCH   4  18
ATOM     18  C   UNL     1       1.302   9.935  18.138  0.00  0.00    +0.000 C 
BRANCH  18  19
ATOM     19  C   UNL     1       0.772  10.919  19.187  0.00  0.00    +0.000 C 
ATOM     20  O   UNL     1       1.504  11.467  20.011  0.00  0.00    +0.000 OA
BRANCH  19  21
ATOM     21  C   UNL     1      -0.669  11.270  19.204  0.00  0.00    +0.000 A 
ATOM     22  C   UNL     1      -1.146  12.005  20.303  0.00  0.00    +0.000 A 
ATOM     23  C   UNL     1      -2.483  12.393  20.368  0.00  0.00    +0.000 A 
ATOM     24  C   UNL     1      -3.367  12.056  19.344  0.00  0.00    +0.000 A 
ATOM     25  C   UNL     1      -4.702  12.483  19.379  0.00  0.00    +0.000 A 
ATOM     26  C   UNL     1      -5.587  12.121  18.368  0.00  0.00    +0.000 A 
ATOM     27  C   UNL     1      -5.162  11.297  17.331  0.00  0.00    +0.000 A 
ATOM     28  C   UNL     1      -3.832  10.873  17.274  0.00  0.00    +0.000 A 
ATOM     29  C   UNL     1      -2.910  11.265  18.258  0.00  0.00    +0.000 A 
ATOM     30  C   UNL     1      -1.552  10.897  18.189  0.00  0.00    +0.000 A 
ENDBRANCH  19  21
ENDBRANCH  18  19
ENDBRANCH   4  18
TORSDOF 6
ENDMDL
MODEL 6
REMARK VINA RESULT:      -8.4      2.089      9.243
REMARK  Name = 
REMARK  10 active torsions:
REMARK  status: ('A' for Active; 'I' for Inactive)
REMARK    1  A    between atoms: C_1  and  C_2
REMARK    2  A    between atoms: C_2  and  C_3
REMARK    3  A    between atoms: C_2  and  C_4
REMARK    4  A    between atoms: C_8  and  C_9
REMARK    5  A    between atoms: C_9  and  C_10
REMARK    6  A    between atoms: C_9  and  C_11
REMARK    7  A    between atoms: C_12  and  N_13
REMARK    8  A    between atoms: N_16  and  C_17
REMARK    9  A    between atoms: C_17  and  C_18
REMARK   10  A    between atoms: C_18  and  C_20
REMARK                            x       y       z     vdW  Elec       q    Type
REMARK                         _______ _______ _______ _____ _____    ______ ____
ROOT
ATOM      1  N   UNL     1      -1.112  11.570  19.605  0.00  0.00    +0.000 N 
ATOM      2  C   UNL     1      -0.072  12.263  18.990  0.00  0.00    +0.000 A 
ATOM      3  C   UNL     1       1.081  11.537  19.173  0.00  0.00    +0.000 A 
ATOM      4  N   UNL     1       0.724  10.379  19.834  0.00  0.00    +0.000 N 
ATOM      5  C   UNL     1      -0.594  10.430  20.087  0.00  0.00    +0.000 A 
ENDROOT
BRANCH   1  11
ATOM      6  C   UNL     1      -2.981  12.546  20.963  0.00  0.00    +0.000 A 
ATOM      7  C   UNL     1      -4.315  13.005  21.027  0.00  0.00    +0.000 A 
ATOM      8  C   UNL     1      -5.189  12.866  19.961  0.00  0.00    +0.000 A 
ATOM      9  C   UNL     1      -4.766  12.227  18.804  0.00  0.00    +0.000 A 
ATOM     10  C   UNL     1      -3.446  11.750  18.651  0.00  0.00    +0.000 A 
ATOM     11  C   UNL     1      -2.543  11.955  19.744  0.00  0.00    +0.000 A 
BRANCH   6  13
ATOM     12  C   UNL     1      -1.438  13.999  22.343  0.00  0.00    +0.000 C 
ATOM     13  C   UNL     1      -2.177  12.654  22.260  0.00  0.00    +0.000 C 
ATOM     14  C   UNL     1      -3.040  12.459  23.517  0.00  0.00    +0.000 C 
ENDBRANCH   6  13
BRANCH  10  15
ATOM     15  C   UNL     1      -3.143  11.034  17.330  0.00  0.00    +0.000 C 
ATOM     16  C   UNL     1      -3.130   9.508  17.546  0.00  0.00    +0.000 C 
ATOM     17  C   UNL     1      -4.114  11.329  16.171  0.00  0.00    +0.000 C 
ENDBRANCH  10  15
ENDBRANCH   1  11
BRANCH   4  18
ATOM     18  C   UNL     1       1.616   9.245  20.201  0.00  0.00    +0.000 C 
BRANCH  18  19
ATOM     19  C   UNL     1       1.965   8.333  19.019  0.00  0.00    +0.000 C 
ATOM     20  O   UNL     1       2.260   8.773  17.908  0.00  0.00    +0.000 OA
BRANCH  19  21
ATOM     21  C   UNL     1       1.995   6.863  19.209  0.00  0.00    +0.000 A 
ATOM     22  C   UNL     1       1.758   6.370  20.505  0.00  0.00    +0.000 A 
ATOM     23  C   UNL     1       1.743   4.998  20.748  0.00  0.00    +0.000 A 
ATOM     24  C   UNL     1       1.965   4.094  19.710  0.00  0.00    +0.000 A 
ATOM     25  C   UNL     1       1.904   2.712  19.938  0.00  0.00    +0.000 A 
ATOM     26  C   UNL     1       2.154   1.813  18.904  0.00  0.00    +0.000 A 
ATOM     27  C   UNL     1       2.504   2.283  17.641  0.00  0.00    +0.000 A 
ATOM     28  C   UNL     1       2.557   3.656  17.395  0.00  0.00    +0.000 A 
ATOM     29  C   UNL     1       2.262   4.581  18.411  0.00  0.00    +0.000 A 
ATOM     30  C   UNL     1       2.253   5.969  18.169  0.00  0.00    +0.000 A 
ENDBRANCH  19  21
ENDBRANCH  18  19
ENDBRANCH   4  18
TORSDOF 6
ENDMDL
MODEL 7
REMARK VINA RESULT:      -8.4      0.970      1.815
REMARK  Name = 
REMARK  10 active torsions:
REMARK  status: ('A' for Active; 'I' for Inactive)
REMARK    1  A    between atoms: C_1  and  C_2
REMARK    2  A    between atoms: C_2  and  C_3
REMARK    3  A    between atoms: C_2  and  C_4
REMARK    4  A    between atoms: C_8  and  C_9
REMARK    5  A    between atoms: C_9  and  C_10
REMARK    6  A    between atoms: C_9  and  C_11
REMARK    7  A    between atoms: C_12  and  N_13
REMARK    8  A    between atoms: N_16  and  C_17
REMARK    9  A    between atoms: C_17  and  C_18
REMARK   10  A    between atoms: C_18  and  C_20
REMARK                            x       y       z     vdW  Elec       q    Type
REMARK                         _______ _______ _______ _____ _____    ______ ____
ROOT
ATOM      1  N   UNL     1       2.833   6.924  18.775  0.00  0.00    +0.000 N 
ATOM      2  C   UNL     1       2.579   7.871  17.786  0.00  0.00    +0.000 A 
ATOM      3  C   UNL     1       1.778   8.845  18.331  0.00  0.00    +0.000 A 
ATOM      4  N   UNL     1       1.608   8.523  19.663  0.00  0.00    +0.000 N 
ATOM      5  C   UNL     1       2.244   7.363  19.898  0.00  0.00    +0.000 A 
ENDROOT
BRANCH   1  11
ATOM      6  C   UNL     1       4.832   5.638  17.975  0.00  0.00    +0.000 A 
ATOM      7  C   UNL     1       5.590   4.447  18.000  0.00  0.00    +0.000 A 
ATOM      8  C   UNL     1       5.148   3.311  18.659  0.00  0.00    +0.000 A 
ATOM      9  C   UNL     1       3.911   3.319  19.288  0.00  0.00    +0.000 A 
ATOM     10  C   UNL     1       3.094   4.471  19.322  0.00  0.00    +0.000 A 
ATOM     11  C   UNL     1       3.596   5.650  18.683  0.00  0.00    +0.000 A 
BRANCH   6  13
ATOM     12  C   UNL     1       6.863   7.043  17.431  0.00  0.00    +0.000 C 
ATOM     13  C   UNL     1       5.389   6.764  17.101  0.00  0.00    +0.000 C 
ATOM     14  C   UNL     1       5.238   6.484  15.597  0.00  0.00    +0.000 C 
ENDBRANCH   6  13
BRANCH  10  15
ATOM     15  C   UNL     1       1.740   4.309  20.023  0.00  0.00    +0.000 C 
ATOM     16  C   UNL     1       0.810   3.417  19.177  0.00  0.00    +0.000 C 
ATOM     17  C   UNL     1       1.788   3.714  21.443  0.00  0.00    +0.000 C 
ENDBRANCH  10  15
ENDBRANCH   1  11
BRANCH   4  18
ATOM     18  C   UNL     1       0.869   9.310  20.688  0.00  0.00    +0.000 C 
BRANCH  18  19
ATOM     19  C   UNL     1       0.540  10.739  20.242  0.00  0.00    +0.000 C 
ATOM     20  O   UNL     1       1.350  11.662  20.328  0.00  0.00    +0.000 OA
BRANCH  19  21
ATOM     21  C   UNL     1      -0.784  11.036  19.644  0.00  0.00    +0.000 A 
ATOM     22  C   UNL     1      -1.655  11.865  20.373  0.00  0.00    +0.000 A 
ATOM     23  C   UNL     1      -2.903  12.208  19.857  0.00  0.00    +0.000 A 
ATOM     24  C   UNL     1      -3.308  11.731  18.610  0.00  0.00    +0.000 A 
ATOM     25  C   UNL     1      -4.542  12.110  18.063  0.00  0.00    +0.000 A 
ATOM     26  C   UNL     1      -4.952  11.609  16.831  0.00  0.00    +0.000 A 
ATOM     27  C   UNL     1      -4.155  10.696  16.149  0.00  0.00    +0.000 A 
ATOM     28  C   UNL     1      -2.917  10.318  16.673  0.00  0.00    +0.000 A 
ATOM     29  C   UNL     1      -2.461  10.847  17.892  0.00  0.00    +0.000 A 
ATOM     30  C   UNL     1      -1.192  10.524  18.411  0.00  0.00    +0.000 A 
ENDBRANCH  19  21
ENDBRANCH  18  19
ENDBRANCH   4  18
TORSDOF 6
ENDMDL
MODEL 8
REMARK VINA RESULT:      -8.3      0.710      3.443
REMARK  Name = 
REMARK  10 active torsions:
REMARK  status: ('A' for Active; 'I' for Inactive)
REMARK    1  A    between atoms: C_1  and  C_2
REMARK    2  A    between atoms: C_2  and  C_3
REMARK    3  A    between atoms: C_2  and  C_4
REMARK    4  A    between atoms: C_8  and  C_9
REMARK    5  A    between atoms: C_9  and  C_10
REMARK    6  A    between atoms: C_9  and  C_11
REMARK    7  A    between atoms: C_12  and  N_13
REMARK    8  A    between atoms: N_16  and  C_17
REMARK    9  A    between atoms: C_17  and  C_18
REMARK   10  A    between atoms: C_18  and  C_20
REMARK                            x       y       z     vdW  Elec       q    Type
REMARK                         _______ _______ _______ _____ _____    ______ ____
ROOT
ATOM      1  N   UNL     1       2.593   6.278  19.006  0.00  0.00    +0.000 N 
ATOM      2  C   UNL     1       2.084   6.534  20.277  0.00  0.00    +0.000 A 
ATOM      3  C   UNL     1       1.717   7.858  20.324  0.00  0.00    +0.000 A 
ATOM      4  N   UNL     1       1.939   8.379  19.064  0.00  0.00    +0.000 N 
ATOM      5  C   UNL     1       2.471   7.412  18.299  0.00  0.00    +0.000 A 
ENDROOT
BRANCH   1  11
ATOM      6  C   UNL     1       2.565   3.779  18.798  0.00  0.00    +0.000 A 
ATOM      7  C   UNL     1       3.069   2.613  18.180  0.00  0.00    +0.000 A 
ATOM      8  C   UNL     1       4.137   2.655  17.299  0.00  0.00    +0.000 A 
ATOM      9  C   UNL     1       4.764   3.864  17.035  0.00  0.00    +0.000 A 
ATOM     10  C   UNL     1       4.318   5.079  17.600  0.00  0.00    +0.000 A 
ATOM     11  C   UNL     1       3.176   5.021  18.464  0.00  0.00    +0.000 A 
BRANCH   6  13
ATOM     12  C   UNL     1       0.390   2.599  19.317  0.00  0.00    +0.000 C 
ATOM     13  C   UNL     1       1.469   3.558  19.842  0.00  0.00    +0.000 C 
ATOM     14  C   UNL     1       2.014   3.040  21.183  0.00  0.00    +0.000 C 
ENDBRANCH   6  13
BRANCH  10  15
ATOM     15  C   UNL     1       5.137   6.324  17.241  0.00  0.00    +0.000 C 
ATOM     16  C   UNL     1       6.588   6.164  17.737  0.00  0.00    +0.000 C 
ATOM     17  C   UNL     1       5.195   6.678  15.743  0.00  0.00    +0.000 C 
ENDBRANCH  10  15
ENDBRANCH   1  11
BRANCH   4  18
ATOM     18  C   UNL     1       1.636   9.760  18.600  0.00  0.00    +0.000 C 
BRANCH  18  19
ATOM     19  C   UNL     1       0.763  10.556  19.577  0.00  0.00    +0.000 C 
ATOM     20  O   UNL     1       1.179  10.952  20.665  0.00  0.00    +0.000 OA
BRANCH  19  21
ATOM     21  C   UNL     1      -0.627  10.909  19.200  0.00  0.00    +0.000 A 
ATOM     22  C   UNL     1      -1.367  11.690  20.104  0.00  0.00    +0.000 A 
ATOM     23  C   UNL     1      -2.670  12.082  19.800  0.00  0.00    +0.000 A 
ATOM     24  C   UNL     1      -3.259  11.702  18.594  0.00  0.00    +0.000 A 
ATOM     25  C   UNL     1      -4.551  12.132  18.261  0.00  0.00    +0.000 A 
ATOM     26  C   UNL     1      -5.144  11.726  17.068  0.00  0.00    +0.000 A 
ATOM     27  C   UNL     1      -4.471  10.858  16.214  0.00  0.00    +0.000 A 
ATOM     28  C   UNL     1      -3.179  10.431  16.526  0.00  0.00    +0.000 A 
ATOM     29  C   UNL     1      -2.542  10.865  17.700  0.00  0.00    +0.000 A 
ATOM     30  C   UNL     1      -1.218  10.492  18.005  0.00  0.00    +0.000 A 
ENDBRANCH  19  21
ENDBRANCH  18  19
ENDBRANCH   4  18
TORSDOF 6
ENDMDL
MODEL 9
REMARK VINA RESULT:      -8.3      2.096      9.061
REMARK  Name = 
REMARK  10 active torsions:
REMARK  status: ('A' for Active; 'I' for Inactive)
REMARK    1  A    between atoms: C_1  and  C_2
REMARK    2  A    between atoms: C_2  and  C_3
REMARK    3  A    between atoms: C_2  and  C_4
REMARK    4  A    between atoms: C_8  and  C_9
REMARK    5  A    between atoms: C_9  and  C_10
REMARK    6  A    between atoms: C_9  and  C_11
REMARK    7  A    between atoms: C_12  and  N_13
REMARK    8  A    between atoms: N_16  and  C_17
REMARK    9  A    between atoms: C_17  and  C_18
REMARK   10  A    between atoms: C_18  and  C_20
REMARK                            x       y       z     vdW  Elec       q    Type
REMARK                         _______ _______ _______ _____ _____    ______ ____
ROOT
ATOM      1  N   UNL     1      -1.670  12.006  19.545  0.00  0.00    +0.000 N 
ATOM      2  C   UNL     1      -0.600  12.865  19.304  0.00  0.00    +0.000 A 
ATOM      3  C   UNL     1       0.491  12.378  19.982  0.00  0.00    +0.000 A 
ATOM      4  N   UNL     1       0.099  11.193  20.573  0.00  0.00    +0.000 N 
ATOM      5  C   UNL     1      -1.202  11.001  20.301  0.00  0.00    +0.000 A 
ENDROOT
BRANCH   1  11
ATOM      6  C   UNL     1      -3.444  11.567  17.828  0.00  0.00    +0.000 A 
ATOM      7  C   UNL     1      -4.811  11.583  17.474  0.00  0.00    +0.000 A 
ATOM      8  C   UNL     1      -5.776  12.135  18.301  0.00  0.00    +0.000 A 
ATOM      9  C   UNL     1      -5.399  12.725  19.499  0.00  0.00    +0.000 A 
ATOM     10  C   UNL     1      -4.056  12.742  19.936  0.00  0.00    +0.000 A 
ATOM     11  C   UNL     1      -3.082  12.116  19.092  0.00  0.00    +0.000 A 
BRANCH   6  13
ATOM     12  C   UNL     1      -1.923   9.664  17.149  0.00  0.00    +0.000 C 
ATOM     13  C   UNL     1      -2.485  11.040  16.760  0.00  0.00    +0.000 C 
ATOM     14  C   UNL     1      -3.128  10.961  15.365  0.00  0.00    +0.000 C 
ENDBRANCH   6  13
BRANCH  10  15
ATOM     15  C   UNL     1      -3.794  13.465  21.262  0.00  0.00    +0.000 C 
ATOM     16  C   UNL     1      -4.374  14.892  21.211  0.00  0.00    +0.000 C 
ATOM     17  C   UNL     1      -4.360  12.779  22.521  0.00  0.00    +0.000 C 
ENDBRANCH  10  15
ENDBRANCH   1  11
BRANCH   4  18
ATOM     18  C   UNL     1       0.948  10.262  21.365  0.00  0.00    +0.000 C 
BRANCH  18  19
ATOM     19  C   UNL     1       0.733   8.786  21.010  0.00  0.00    +0.000 C 
ATOM     20  O   UNL     1      -0.167   8.111  21.510  0.00  0.00    +0.000 OA
BRANCH  19  21
ATOM     21  C   UNL     1       1.604   8.138  20.000  0.00  0.00    +0.000 A 
ATOM     22  C   UNL     1       1.786   8.805  18.776  0.00  0.00    +0.000 A 
ATOM     23  C   UNL     1       2.614   8.266  17.793  0.00  0.00    +0.000 A 
ATOM     24  C   UNL     1       3.273   7.056  18.010  0.00  0.00    +0.000 A 
ATOM     25  C   UNL     1       4.145   6.531  17.045  0.00  0.00    +0.000 A 
ATOM     26  C   UNL     1       4.778   5.309  17.255  0.00  0.00    +0.000 A 
ATOM     27  C   UNL     1       4.519   4.579  18.411  0.00  0.00    +0.000 A 
ATOM     28  C   UNL     1       3.663   5.093  19.387  0.00  0.00    +0.000 A 
ATOM     29  C   UNL     1       3.050   6.346  19.218  0.00  0.00    +0.000 A 
ATOM     30  C   UNL     1       2.229   6.909  20.215  0.00  0.00    +0.000 A 
ENDBRANCH  19  21
ENDBRANCH  18  19
ENDBRANCH   4  18
TORSDOF 6
ENDMDL
