MODEL 1
REMARK VINA RESULT:      -6.8      0.000      0.000
REMARK  Name = 
REMARK  25 active torsions:
REMARK  status: ('A' for Active; 'I' for Inactive)
REMARK    1  A    between atoms: C_1  and  C_2
REMARK    2  A    between atoms: C_2  and  C_3
REMARK    3  A    between atoms: C_2  and  C_4
REMARK    4  A    between atoms: C_4  and  C_5
REMARK    5  A    between atoms: C_5  and  N_6
REMARK    6  A    between atoms: C_7  and  C_9
REMARK    7  A    between atoms: C_9  and  N_10
REMARK    8  A    between atoms: C_11  and  C_13
REMARK    9  A    between atoms: C_13  and  C_14
REMARK   10  A    between atoms: C_14  and  O_15
REMARK   11  A    between atoms: C_14  and  C_16
REMARK   12  A    between atoms: C_16  and  C_17
REMARK   13  A    between atoms: C_16  and  N_21
REMARK   14  A    between atoms: C_17  and  C_18
REMARK   15  A    between atoms: C_18  and  C_19
REMARK   16  A    between atoms: C_18  and  C_20
REMARK   17  A    between atoms: C_22  and  C_24
REMARK   18  A    between atoms: C_24  and  N_25
REMARK   19  A    between atoms: C_24  and  C_32
REMARK   20  A    between atoms: C_26  and  C_28
REMARK   21  A    between atoms: C_28  and  C_29
REMARK   22  A    between atoms: C_29  and  C_30
REMARK   23  A    between atoms: C_29  and  C_31
REMARK   24  A    between atoms: C_32  and  C_33
REMARK   25  A    between atoms: C_32  and  C_34
REMARK                            x       y       z     vdW  Elec       q    Type
REMARK                         _______ _______ _______ _____ _____    ______ ____
ROOT
ATOM      1  C   UNL     1       3.737   5.801  18.145  0.00  0.00    +0.000 C 
ENDROOT
BRANCH   1   2
ATOM      2  N   UNL     1       4.043   6.769  17.082  0.00  0.00    +0.000 N 
ATOM      3  C   UNL     1       4.970   6.713  16.079  0.00  0.00    +0.000 C 
ATOM      4  O   UNL     1       4.961   7.590  15.202  0.00  0.00    +0.000 OA
ATOM      5  H   UNL     1       3.499   7.625  17.086  0.00  0.00    +0.000 HD
BRANCH   3   6
ATOM      6  C   UNL     1       5.949   5.530  16.016  0.00  0.00    +0.000 C 
BRANCH   6   7
ATOM      7  N   UNL     1       6.160   5.207  14.598  0.00  0.00    +0.000 N 
ATOM      8  C   UNL     1       6.078   3.922  14.115  0.00  0.00    +0.000 C 
ATOM      9  O   UNL     1       5.865   2.948  14.841  0.00  0.00    +0.000 OA
ATOM     10  H   UNL     1       6.230   5.991  13.953  0.00  0.00    +0.000 HD
BRANCH   8  11
ATOM     11  C   UNL     1       6.295   3.760  12.630  0.00  0.00    +0.000 C 
BRANCH  11  12
ATOM     12  C   UNL     1       5.460   2.618  12.033  0.00  0.00    +0.000 C 
ATOM     13  C   UNL     1       4.313   3.138  11.162  0.00  0.00    +0.000 C 
ATOM     14  C   UNL     1       6.349   1.698  11.191  0.00  0.00    +0.000 C 
ENDBRANCH  11  12
ENDBRANCH   8  11
ENDBRANCH   6   7
BRANCH   6  15
ATOM     15  C   UNL     1       7.256   5.826  16.768  0.00  0.00    +0.000 C 
ATOM     16  C   UNL     1       7.108   7.110  17.597  0.00  0.00    +0.000 C 
ATOM     17  C   UNL     1       7.602   4.673  17.718  0.00  0.00    +0.000 C 
ENDBRANCH   6  15
ENDBRANCH   3   6
ENDBRANCH   1   2
BRANCH   1  18
ATOM     18  C   UNL     1       3.010   4.535  17.641  0.00  0.00    +0.000 C 
BRANCH  18  19
ATOM     19  C   UNL     1       3.638   3.147  17.859  0.00  0.00    +0.000 C 
ATOM     20  C   UNL     1       4.419   2.957  19.160  0.00  0.00    +0.000 C 
ATOM     21  C   UNL     1       2.499   2.114  17.834  0.00  0.00    +0.000 C 
ENDBRANCH  18  19
ENDBRANCH   1  18
BRANCH   1  22
ATOM     22  C   UNL     1       2.983   6.497  19.318  0.00  0.00    +0.000 C 
BRANCH  22  23
ATOM     23  O   UNL     1       2.002   5.580  19.835  0.00  0.00    +0.000 OA
ATOM     24  H   UNL     1       1.111   5.877  19.553  0.00  0.00    +0.000 HD
ENDBRANCH  22  23
BRANCH  22  25
ATOM     25  C   UNL     1       2.293   7.789  18.868  0.00  0.00    +0.000 C 
BRANCH  25  27
ATOM     26  N   UNL     1       1.091   9.723  19.863  0.00  0.00    +0.000 N 
ATOM     27  C   UNL     1       1.565   8.453  20.011  0.00  0.00    +0.000 C 
ATOM     28  O   UNL     1       1.407   7.887  21.095  0.00  0.00    +0.000 OA
ATOM     29  H   UNL     1       0.594  10.059  20.678  0.00  0.00    +0.000 HD
BRANCH  26  30
ATOM     30  C   UNL     1       1.170  10.569  18.687  0.00  0.00    +0.000 C 
BRANCH  30  32
ATOM     31  N   UNL     1       2.349  12.696  18.878  0.00  0.00    +0.000 N 
ATOM     32  C   UNL     1       1.158  12.041  19.102  0.00  0.00    +0.000 C 
ATOM     33  O   UNL     1       0.179  12.559  19.638  0.00  0.00    +0.000 OA
ATOM     34  H   UNL     1       3.174  12.140  18.691  0.00  0.00    +0.000 HD
BRANCH  31  35
ATOM     35  C   UNL     1       2.533  14.098  19.188  0.00  0.00    +0.000 C 
BRANCH  35  36
ATOM     36  C   UNL     1       2.899  14.953  17.973  0.00  0.00    +0.000 C 
BRANCH  36  38
ATOM     37  C   UNL     1       2.728  17.206  16.779  0.00  0.00    +0.000 C 
ATOM     38  C   UNL     1       2.561  16.453  18.100  0.00  0.00    +0.000 C 
ATOM     39  C   UNL     1       1.124  16.620  18.604  0.00  0.00    +0.000 C 
ENDBRANCH  36  38
ENDBRANCH  35  36
ENDBRANCH  31  35
ENDBRANCH  30  32
ENDBRANCH  26  30
ENDBRANCH  25  27
ENDBRANCH  22  25
ENDBRANCH   1  22
TORSDOF 17
ENDMDL
MODEL 2
REMARK VINA RESULT:      -6.5      2.643      3.359
REMARK  Name = 
REMARK  25 active torsions:
REMARK  status: ('A' for Active; 'I' for Inactive)
REMARK    1  A    between atoms: C_1  and  C_2
REMARK    2  A    between atoms: C_2  and  C_3
REMARK    3  A    between atoms: C_2  and  C_4
REMARK    4  A    between atoms: C_4  and  C_5
REMARK    5  A    between atoms: C_5  and  N_6
REMARK    6  A    between atoms: C_7  and  C_9
REMARK    7  A    between atoms: C_9  and  N_10
REMARK    8  A    between atoms: C_11  and  C_13
REMARK    9  A    between atoms: C_13  and  C_14
REMARK   10  A    between atoms: C_14  and  O_15
REMARK   11  A    between atoms: C_14  and  C_16
REMARK   12  A    between atoms: C_16  and  C_17
REMARK   13  A    between atoms: C_16  and  N_21
REMARK   14  A    between atoms: C_17  and  C_18
REMARK   15  A    between atoms: C_18  and  C_19
REMARK   16  A    between atoms: C_18  and  C_20
REMARK   17  A    between atoms: C_22  and  C_24
REMARK   18  A    between atoms: C_24  and  N_25
REMARK   19  A    between atoms: C_24  and  C_32
REMARK   20  A    between atoms: C_26  and  C_28
REMARK   21  A    between atoms: C_28  and  C_29
REMARK   22  A    between atoms: C_29  and  C_30
REMARK   23  A    between atoms: C_29  and  C_31
REMARK   24  A    between atoms: C_32  and  C_33
REMARK   25  A    between atoms: C_32  and  C_34
REMARK                            x       y       z     vdW  Elec       q    Type
REMARK                         _______ _______ _______ _____ _____    ______ ____
ROOT
ATOM      1  C   UNL     1       3.836   5.581  18.493  0.00  0.00    +0.000 C 
ENDROOT
BRANCH   1   2
ATOM      2  N   UNL     1       4.025   6.507  17.366  0.00  0.00    +0.000 N 
ATOM      3  C   UNL     1       5.023   6.569  16.435  0.00  0.00    +0.000 C 
ATOM      4  O   UNL     1       4.907   7.354  15.482  0.00  0.00    +0.000 OA
ATOM      5  H   UNL     1       3.318   7.225  17.255  0.00  0.00    +0.000 HD
BRANCH   3   6
ATOM      6  C   UNL     1       6.226   5.619  16.547  0.00  0.00    +0.000 C 
BRANCH   6   7
ATOM      7  N   UNL     1       6.646   5.277  15.181  0.00  0.00    +0.000 N 
ATOM      8  C   UNL     1       6.077   4.245  14.473  0.00  0.00    +0.000 C 
ATOM      9  O   UNL     1       5.209   3.507  14.947  0.00  0.00    +0.000 OA
ATOM     10  H   UNL     1       7.279   5.926  14.718  0.00  0.00    +0.000 HD
BRANCH   8  11
ATOM     11  C   UNL     1       6.601   4.038  13.072  0.00  0.00    +0.000 C 
BRANCH  11  12
ATOM     12  C   UNL     1       5.906   2.876  12.348  0.00  0.00    +0.000 C 
ATOM     13  C   UNL     1       4.657   3.336  11.590  0.00  0.00    +0.000 C 
ATOM     14  C   UNL     1       6.873   2.214  11.362  0.00  0.00    +0.000 C 
ENDBRANCH  11  12
ENDBRANCH   8  11
ENDBRANCH   6   7
BRANCH   6  15
ATOM     15  C   UNL     1       7.358   6.224  17.392  0.00  0.00    +0.000 C 
ATOM     16  C   UNL     1       7.222   7.753  17.440  0.00  0.00    +0.000 C 
ATOM     17  C   UNL     1       7.301   5.687  18.828  0.00  0.00    +0.000 C 
ENDBRANCH   6  15
ENDBRANCH   3   6
ENDBRANCH   1   2
BRANCH   1  18
ATOM     18  C   UNL     1       3.374   4.170  18.067  0.00  0.00    +0.000 C 
BRANCH  18  19
ATOM     19  C   UNL     1       4.116   2.926  18.587  0.00  0.00    +0.000 C 
ATOM     20  C   UNL     1       4.092   2.710  20.101  0.00  0.00    +0.000 C 
ATOM     21  C   UNL     1       3.480   1.695  17.921  0.00  0.00    +0.000 C 
ENDBRANCH  18  19
ENDBRANCH   1  18
BRANCH   1  22
ATOM     22  C   UNL     1       2.907   6.216  19.572  0.00  0.00    +0.000 C 
BRANCH  22  23
ATOM     23  O   UNL     1       1.844   5.289  19.856  0.00  0.00    +0.000 OA
ATOM     24  H   UNL     1       1.182   5.733  20.428  0.00  0.00    +0.000 HD
ENDBRANCH  22  23
BRANCH  22  25
ATOM     25  C   UNL     1       2.317   7.550  19.105  0.00  0.00    +0.000 C 
BRANCH  25  27
ATOM     26  N   UNL     1       0.968   9.436  19.997  0.00  0.00    +0.000 N 
ATOM     27  C   UNL     1       1.680   8.301  20.249  0.00  0.00    +0.000 C 
ATOM     28  O   UNL     1       1.807   7.932  21.418  0.00  0.00    +0.000 OA
ATOM     29  H   UNL     1       0.560   9.842  20.830  0.00  0.00    +0.000 HD
BRANCH  26  30
ATOM     30  C   UNL     1       0.698  10.049  18.709  0.00  0.00    +0.000 C 
BRANCH  30  32
ATOM     31  N   UNL     1      -1.151  11.131  17.543  0.00  0.00    +0.000 N 
ATOM     32  C   UNL     1      -0.810  10.218  18.517  0.00  0.00    +0.000 C 
ATOM     33  O   UNL     1      -1.627   9.625  19.219  0.00  0.00    +0.000 OA
ATOM     34  H   UNL     1      -0.436  11.764  17.209  0.00  0.00    +0.000 HD
BRANCH  31  35
ATOM     35  C   UNL     1      -2.528  11.420  17.199  0.00  0.00    +0.000 C 
BRANCH  35  36
ATOM     36  C   UNL     1      -3.417  11.701  18.412  0.00  0.00    +0.000 C 
BRANCH  36  38
ATOM     37  C   UNL     1      -5.184  12.077  16.605  0.00  0.00    +0.000 C 
ATOM     38  C   UNL     1      -4.917  11.879  18.098  0.00  0.00    +0.000 C 
ATOM     39  C   UNL     1      -5.699  10.661  18.599  0.00  0.00    +0.000 C 
ENDBRANCH  36  38
ENDBRANCH  35  36
ENDBRANCH  31  35
ENDBRANCH  30  32
ENDBRANCH  26  30
ENDBRANCH  25  27
ENDBRANCH  22  25
ENDBRANCH   1  22
TORSDOF 17
ENDMDL
MODEL 3
REMARK VINA RESULT:      -6.5      1.047      1.437
REMARK  Name = 
REMARK  25 active torsions:
REMARK  status: ('A' for Active; 'I' for Inactive)
REMARK    1  A    between atoms: C_1  and  C_2
REMARK    2  A    between atoms: C_2  and  C_3
REMARK    3  A    between atoms: C_2  and  C_4
REMARK    4  A    between atoms: C_4  and  C_5
REMARK    5  A    between atoms: C_5  and  N_6
REMARK    6  A    between atoms: C_7  and  C_9
REMARK    7  A    between atoms: C_9  and  N_10
REMARK    8  A    between atoms: C_11  and  C_13
REMARK    9  A    between atoms: C_13  and  C_14
REMARK   10  A    between atoms: C_14  and  O_15
REMARK   11  A    between atoms: C_14  and  C_16
REMARK   12  A    between atoms: C_16  and  C_17
REMARK   13  A    between atoms: C_16  and  N_21
REMARK   14  A    between atoms: C_17  and  C_18
REMARK   15  A    between atoms: C_18  and  C_19
REMARK   16  A    between atoms: C_18  and  C_20
REMARK   17  A    between atoms: C_22  and  C_24
REMARK   18  A    between atoms: C_24  and  N_25
REMARK   19  A    between atoms: C_24  and  C_32
REMARK   20  A    between atoms: C_26  and  C_28
REMARK   21  A    between atoms: C_28  and  C_29
REMARK   22  A    between atoms: C_29  and  C_30
REMARK   23  A    between atoms: C_29  and  C_31
REMARK   24  A    between atoms: C_32  and  C_33
REMARK   25  A    between atoms: C_32  and  C_34
REMARK                            x       y       z     vdW  Elec       q    Type
REMARK                         _______ _______ _______ _____ _____    ______ ____
ROOT
ATOM      1  C   UNL     1       3.221   5.890  18.728  0.00  0.00    +0.000 C 
ENDROOT
BRANCH   1   2
ATOM      2  N   UNL     1       3.530   6.806  17.620  0.00  0.00    +0.000 N 
ATOM      3  C   UNL     1       4.515   6.745  16.675  0.00  0.00    +0.000 C 
ATOM      4  O   UNL     1       4.505   7.563  15.743  0.00  0.00    +0.000 OA
ATOM      5  H   UNL     1       2.936   7.623  17.537  0.00  0.00    +0.000 HD
BRANCH   3   6
ATOM      6  C   UNL     1       5.566   5.626  16.746  0.00  0.00    +0.000 C 
BRANCH   6   7
ATOM      7  N   UNL     1       6.112   5.448  15.393  0.00  0.00    +0.000 N 
ATOM      8  C   UNL     1       6.127   4.227  14.761  0.00  0.00    +0.000 C 
ATOM      9  O   UNL     1       5.727   3.191  15.298  0.00  0.00    +0.000 OA
ATOM     10  H   UNL     1       6.351   6.292  14.878  0.00  0.00    +0.000 HD
BRANCH   8  11
ATOM     11  C   UNL     1       6.698   4.215  13.363  0.00  0.00    +0.000 C 
BRANCH  11  12
ATOM     12  C   UNL     1       6.129   3.077  12.504  0.00  0.00    +0.000 C 
ATOM     13  C   UNL     1       4.791   3.455  11.861  0.00  0.00    +0.000 C 
ATOM     14  C   UNL     1       7.122   2.700  11.401  0.00  0.00    +0.000 C 
ENDBRANCH  11  12
ENDBRANCH   8  11
ENDBRANCH   6   7
BRANCH   6  15
ATOM     15  C   UNL     1       6.647   5.919  17.798  0.00  0.00    +0.000 C 
ATOM     16  C   UNL     1       7.572   4.703  17.956  0.00  0.00    +0.000 C 
ATOM     17  C   UNL     1       7.498   7.122  17.373  0.00  0.00    +0.000 C 
ENDBRANCH   6  15
ENDBRANCH   3   6
ENDBRANCH   1   2
BRANCH   1  18
ATOM     18  C   UNL     1       2.424   4.639  18.296  0.00  0.00    +0.000 C 
BRANCH  18  19
ATOM     19  C   UNL     1       2.718   3.275  18.945  0.00  0.00    +0.000 C 
ATOM     20  C   UNL     1       1.543   2.300  19.028  0.00  0.00    +0.000 C 
ATOM     21  C   UNL     1       3.836   2.605  18.129  0.00  0.00    +0.000 C 
ENDBRANCH  18  19
ENDBRANCH   1  18
BRANCH   1  22
ATOM     22  C   UNL     1       2.539   6.659  19.900  0.00  0.00    +0.000 C 
BRANCH  22  23
ATOM     23  O   UNL     1       1.529   5.809  20.473  0.00  0.00    +0.000 OA
ATOM     24  H   UNL     1       1.968   5.111  21.004  0.00  0.00    +0.000 HD
ENDBRANCH  22  23
BRANCH  22  25
ATOM     25  C   UNL     1       1.902   7.970  19.429  0.00  0.00    +0.000 C 
BRANCH  25  27
ATOM     26  N   UNL     1       0.316   9.684  20.277  0.00  0.00    +0.000 N 
ATOM     27  C   UNL     1       1.185   8.671  20.557  0.00  0.00    +0.000 C 
ATOM     28  O   UNL     1       1.382   8.372  21.736  0.00  0.00    +0.000 OA
ATOM     29  H   UNL     1      -0.131  10.063  21.103  0.00  0.00    +0.000 HD
BRANCH  26  30
ATOM     30  C   UNL     1      -0.058  10.200  18.974  0.00  0.00    +0.000 C 
BRANCH  30  32
ATOM     31  N   UNL     1       0.645  12.502  18.576  0.00  0.00    +0.000 N 
ATOM     32  C   UNL     1      -0.358  11.697  19.071  0.00  0.00    +0.000 C 
ATOM     33  O   UNL     1      -1.383  12.124  19.599  0.00  0.00    +0.000 OA
ATOM     34  H   UNL     1       1.554  12.088  18.414  0.00  0.00    +0.000 HD
BRANCH  31  35
ATOM     35  C   UNL     1       0.545  13.946  18.563  0.00  0.00    +0.000 C 
BRANCH  35  36
ATOM     36  C   UNL     1       1.883  14.657  18.774  0.00  0.00    +0.000 C 
BRANCH  36  38
ATOM     37  C   UNL     1       1.878  17.075  19.599  0.00  0.00    +0.000 C 
ATOM     38  C   UNL     1       1.902  16.149  18.382  0.00  0.00    +0.000 C 
ATOM     39  C   UNL     1       3.144  16.448  17.538  0.00  0.00    +0.000 C 
ENDBRANCH  36  38
ENDBRANCH  35  36
ENDBRANCH  31  35
ENDBRANCH  30  32
ENDBRANCH  26  30
ENDBRANCH  25  27
ENDBRANCH  22  25
ENDBRANCH   1  22
TORSDOF 17
ENDMDL
MODEL 4
REMARK VINA RESULT:      -6.3      3.866      7.427
REMARK  Name = 
REMARK  25 active torsions:
REMARK  status: ('A' for Active; 'I' for Inactive)
REMARK    1  A    between atoms: C_1  and  C_2
REMARK    2  A    between atoms: C_2  and  C_3
REMARK    3  A    between atoms: C_2  and  C_4
REMARK    4  A    between atoms: C_4  and  C_5
REMARK    5  A    between atoms: C_5  and  N_6
REMARK    6  A    between atoms: C_7  and  C_9
REMARK    7  A    between atoms: C_9  and  N_10
REMARK    8  A    between atoms: C_11  and  C_13
REMARK    9  A    between atoms: C_13  and  C_14
REMARK   10  A    between atoms: C_14  and  O_15
REMARK   11  A    between atoms: C_14  and  C_16
REMARK   12  A    between atoms: C_16  and  C_17
REMARK   13  A    between atoms: C_16  and  N_21
REMARK   14  A    between atoms: C_17  and  C_18
REMARK   15  A    between atoms: C_18  and  C_19
REMARK   16  A    between atoms: C_18  and  C_20
REMARK   17  A    between atoms: C_22  and  C_24
REMARK   18  A    between atoms: C_24  and  N_25
REMARK   19  A    between atoms: C_24  and  C_32
REMARK   20  A    between atoms: C_26  and  C_28
REMARK   21  A    between atoms: C_28  and  C_29
REMARK   22  A    between atoms: C_29  and  C_30
REMARK   23  A    between atoms: C_29  and  C_31
REMARK   24  A    between atoms: C_32  and  C_33
REMARK   25  A    between atoms: C_32  and  C_34
REMARK                            x       y       z     vdW  Elec       q    Type
REMARK                         _______ _______ _______ _____ _____    ______ ____
ROOT
ATOM      1  C   UNL     1       4.613   5.521  17.172  0.00  0.00    +0.000 C 
ENDROOT
BRANCH   1   2
ATOM      2  N   UNL     1       5.077   4.451  18.069  0.00  0.00    +0.000 N 
ATOM      3  C   UNL     1       4.392   3.727  19.003  0.00  0.00    +0.000 C 
ATOM      4  O   UNL     1       4.957   2.770  19.555  0.00  0.00    +0.000 OA
ATOM      5  H   UNL     1       6.059   4.210  18.005  0.00  0.00    +0.000 HD
BRANCH   3   6
ATOM      6  C   UNL     1       2.921   4.063  19.296  0.00  0.00    +0.000 C 
BRANCH   6   7
ATOM      7  N   UNL     1       2.802   5.527  19.331  0.00  0.00    +0.000 N 
ATOM      8  C   UNL     1       1.991   6.178  20.231  0.00  0.00    +0.000 C 
ATOM      9  O   UNL     1       1.274   5.581  21.039  0.00  0.00    +0.000 OA
ATOM     10  H   UNL     1       3.455   6.057  18.758  0.00  0.00    +0.000 HD
BRANCH   8  11
ATOM     11  C   UNL     1       2.000   7.687  20.156  0.00  0.00    +0.000 C 
BRANCH  11  12
ATOM     12  C   UNL     1       0.914   8.326  21.032  0.00  0.00    +0.000 C 
ATOM     13  C   UNL     1       1.497   8.968  22.295  0.00  0.00    +0.000 C 
ATOM     14  C   UNL     1       0.153   9.392  20.237  0.00  0.00    +0.000 C 
ENDBRANCH  11  12
ENDBRANCH   8  11
ENDBRANCH   6   7
BRANCH   6  15
ATOM     15  C   UNL     1       1.969   3.406  18.284  0.00  0.00    +0.000 C 
ATOM     16  C   UNL     1       2.707   2.309  17.502  0.00  0.00    +0.000 C 
ATOM     17  C   UNL     1       0.776   2.768  19.005  0.00  0.00    +0.000 C 
ENDBRANCH   6  15
ENDBRANCH   3   6
ENDBRANCH   1   2
BRANCH   1  18
ATOM     18  C   UNL     1       5.013   5.309  15.695  0.00  0.00    +0.000 C 
BRANCH  18  19
ATOM     19  C   UNL     1       5.844   4.079  15.290  0.00  0.00    +0.000 C 
ATOM     20  C   UNL     1       5.736   3.645  13.827  0.00  0.00    +0.000 C 
ATOM     21  C   UNL     1       7.319   4.398  15.584  0.00  0.00    +0.000 C 
ENDBRANCH  18  19
ENDBRANCH   1  18
BRANCH   1  22
ATOM     22  C   UNL     1       5.045   6.916  17.716  0.00  0.00    +0.000 C 
BRANCH  22  23
ATOM     23  O   UNL     1       3.994   7.857  17.436  0.00  0.00    +0.000 OA
ATOM     24  H   UNL     1       3.843   8.409  18.232  0.00  0.00    +0.000 HD
ENDBRANCH  22  23
BRANCH  22  25
ATOM     25  C   UNL     1       6.352   7.398  17.080  0.00  0.00    +0.000 C 
BRANCH  25  27
ATOM     26  N   UNL     1       8.320   8.309  18.294  0.00  0.00    +0.000 N 
ATOM     27  C   UNL     1       7.518   7.239  18.025  0.00  0.00    +0.000 C 
ATOM     28  O   UNL     1       7.786   6.155  18.547  0.00  0.00    +0.000 OA
ATOM     29  H   UNL     1       9.051   8.099  18.963  0.00  0.00    +0.000 HD
BRANCH  26  30
ATOM     30  C   UNL     1       8.192   9.664  17.791  0.00  0.00    +0.000 C 
BRANCH  30  32
ATOM     31  N   UNL     1       9.223  10.584  19.801  0.00  0.00    +0.000 N 
ATOM     32  C   UNL     1       9.260  10.558  18.423  0.00  0.00    +0.000 C 
ATOM     33  O   UNL     1      10.036  11.228  17.744  0.00  0.00    +0.000 OA
ATOM     34  H   UNL     1       8.398  10.227  20.265  0.00  0.00    +0.000 HD
BRANCH  31  35
ATOM     35  C   UNL     1      10.162  11.357  20.587  0.00  0.00    +0.000 C 
BRANCH  35  36
ATOM     36  C   UNL     1       9.537  12.578  21.263  0.00  0.00    +0.000 C 
BRANCH  36  38
ATOM     37  C   UNL     1      11.324  13.853  19.955  0.00  0.00    +0.000 C 
ATOM     38  C   UNL     1      10.343  13.887  21.128  0.00  0.00    +0.000 C 
ATOM     39  C   UNL     1       9.386  15.070  20.957  0.00  0.00    +0.000 C 
ENDBRANCH  36  38
ENDBRANCH  35  36
ENDBRANCH  31  35
ENDBRANCH  30  32
ENDBRANCH  26  30
ENDBRANCH  25  27
ENDBRANCH  22  25
ENDBRANCH   1  22
TORSDOF 17
ENDMDL
MODEL 5
REMARK VINA RESULT:      -6.3      2.511      9.422
REMARK  Name = 
REMARK  25 active torsions:
REMARK  status: ('A' for Active; 'I' for Inactive)
REMARK    1  A    between atoms: C_1  and  C_2
REMARK    2  A    between atoms: C_2  and  C_3
REMARK    3  A    between atoms: C_2  and  C_4
REMARK    4  A    between atoms: C_4  and  C_5
REMARK    5  A    between atoms: C_5  and  N_6
REMARK    6  A    between atoms: C_7  and  C_9
REMARK    7  A    between atoms: C_9  and  N_10
REMARK    8  A    between atoms: C_11  and  C_13
REMARK    9  A    between atoms: C_13  and  C_14
REMARK   10  A    between atoms: C_14  and  O_15
REMARK   11  A    between atoms: C_14  and  C_16
REMARK   12  A    between atoms: C_16  and  C_17
REMARK   13  A    between atoms: C_16  and  N_21
REMARK   14  A    between atoms: C_17  and  C_18
REMARK   15  A    between atoms: C_18  and  C_19
REMARK   16  A    between atoms: C_18  and  C_20
REMARK   17  A    between atoms: C_22  and  C_24
REMARK   18  A    between atoms: C_24  and  N_25
REMARK   19  A    between atoms: C_24  and  C_32
REMARK   20  A    between atoms: C_26  and  C_28
REMARK   21  A    between atoms: C_28  and  C_29
REMARK   22  A    between atoms: C_29  and  C_30
REMARK   23  A    between atoms: C_29  and  C_31
REMARK   24  A    between atoms: C_32  and  C_33
REMARK   25  A    between atoms: C_32  and  C_34
REMARK                            x       y       z     vdW  Elec       q    Type
REMARK                         _______ _______ _______ _____ _____    ______ ____
ROOT
ATOM      1  C   UNL     1       1.516   7.694  20.241  0.00  0.00    +0.000 C 
ENDROOT
BRANCH   1   2
ATOM      2  N   UNL     1       1.891   8.292  18.952  0.00  0.00    +0.000 N 
ATOM      3  C   UNL     1       1.633   9.536  18.449  0.00  0.00    +0.000 C 
ATOM      4  O   UNL     1       2.169   9.877  17.384  0.00  0.00    +0.000 OA
ATOM      5  H   UNL     1       2.415   7.697  18.319  0.00  0.00    +0.000 HD
BRANCH   3   6
ATOM      6  C   UNL     1       0.747  10.508  19.245  0.00  0.00    +0.000 C 
BRANCH   6   7
ATOM      7  N   UNL     1       1.169  11.872  18.901  0.00  0.00    +0.000 N 
ATOM      8  C   UNL     1       1.731  12.723  19.824  0.00  0.00    +0.000 C 
ATOM      9  O   UNL     1       1.879  12.419  21.010  0.00  0.00    +0.000 OA
ATOM     10  H   UNL     1       1.164  12.121  17.914  0.00  0.00    +0.000 HD
BRANCH   8  11
ATOM     11  C   UNL     1       2.136  14.083  19.306  0.00  0.00    +0.000 C 
BRANCH  11  12
ATOM     12  C   UNL     1       0.937  15.023  19.120  0.00  0.00    +0.000 C 
ATOM     13  C   UNL     1       0.257  15.358  20.451  0.00  0.00    +0.000 C 
ATOM     14  C   UNL     1       1.384  16.324  18.448  0.00  0.00    +0.000 C 
ENDBRANCH  11  12
ENDBRANCH   8  11
ENDBRANCH   6   7
BRANCH   6  15
ATOM     15  C   UNL     1      -0.749  10.258  18.994  0.00  0.00    +0.000 C 
ATOM     16  C   UNL     1      -1.571  11.467  19.466  0.00  0.00    +0.000 C 
ATOM     17  C   UNL     1      -1.014  10.047  17.498  0.00  0.00    +0.000 C 
ENDBRANCH   6  15
ENDBRANCH   3   6
ENDBRANCH   1   2
BRANCH   1  18
ATOM     18  C   UNL     1       1.588   8.680  21.428  0.00  0.00    +0.000 C 
BRANCH  18  19
ATOM     19  C   UNL     1       0.396   8.816  22.391  0.00  0.00    +0.000 C 
ATOM     20  C   UNL     1      -0.016  10.243  22.759  0.00  0.00    +0.000 C 
ATOM     21  C   UNL     1      -0.812   8.128  21.734  0.00  0.00    +0.000 C 
ENDBRANCH  18  19
ENDBRANCH   1  18
BRANCH   1  22
ATOM     22  C   UNL     1       2.329   6.389  20.496  0.00  0.00    +0.000 C 
BRANCH  22  23
ATOM     23  O   UNL     1       3.593   6.503  19.818  0.00  0.00    +0.000 OA
ATOM     24  H   UNL     1       3.900   7.433  19.874  0.00  0.00    +0.000 HD
ENDBRANCH  22  23
BRANCH  22  25
ATOM     25  C   UNL     1       1.587   5.146  19.998  0.00  0.00    +0.000 C 
BRANCH  25  27
ATOM     26  N   UNL     1       2.931   3.329  18.966  0.00  0.00    +0.000 N 
ATOM     27  C   UNL     1       2.448   3.911  20.101  0.00  0.00    +0.000 C 
ATOM     28  O   UNL     1       2.710   3.392  21.188  0.00  0.00    +0.000 OA
ATOM     29  H   UNL     1       3.521   2.526  19.152  0.00  0.00    +0.000 HD
BRANCH  26  30
ATOM     30  C   UNL     1       2.745   3.764  17.595  0.00  0.00    +0.000 C 
BRANCH  30  32
ATOM     31  N   UNL     1       5.063   3.785  16.837  0.00  0.00    +0.000 N 
ATOM     32  C   UNL     1       3.964   4.563  17.131  0.00  0.00    +0.000 C 
ATOM     33  O   UNL     1       3.960   5.792  17.085  0.00  0.00    +0.000 OA
ATOM     34  H   UNL     1       5.069   2.825  17.157  0.00  0.00    +0.000 HD
BRANCH  31  35
ATOM     35  C   UNL     1       6.310   4.351  16.366  0.00  0.00    +0.000 C 
BRANCH  35  36
ATOM     36  C   UNL     1       7.355   4.537  17.467  0.00  0.00    +0.000 C 
BRANCH  36  38
ATOM     37  C   UNL     1       8.018   5.742  19.620  0.00  0.00    +0.000 C 
ATOM     38  C   UNL     1       7.157   5.781  18.356  0.00  0.00    +0.000 C 
ATOM     39  C   UNL     1       7.482   7.047  17.558  0.00  0.00    +0.000 C 
ENDBRANCH  36  38
ENDBRANCH  35  36
ENDBRANCH  31  35
ENDBRANCH  30  32
ENDBRANCH  26  30
ENDBRANCH  25  27
ENDBRANCH  22  25
ENDBRANCH   1  22
TORSDOF 17
ENDMDL
MODEL 6
REMARK VINA RESULT:      -6.3      3.788      6.974
REMARK  Name = 
REMARK  25 active torsions:
REMARK  status: ('A' for Active; 'I' for Inactive)
REMARK    1  A    between atoms: C_1  and  C_2
REMARK    2  A    between atoms: C_2  and  C_3
REMARK    3  A    between atoms: C_2  and  C_4
REMARK    4  A    between atoms: C_4  and  C_5
REMARK    5  A    between atoms: C_5  and  N_6
REMARK    6  A    between atoms: C_7  and  C_9
REMARK    7  A    between atoms: C_9  and  N_10
REMARK    8  A    between atoms: C_11  and  C_13
REMARK    9  A    between atoms: C_13  and  C_14
REMARK   10  A    between atoms: C_14  and  O_15
REMARK   11  A    between atoms: C_14  and  C_16
REMARK   12  A    between atoms: C_16  and  C_17
REMARK   13  A    between atoms: C_16  and  N_21
REMARK   14  A    between atoms: C_17  and  C_18
REMARK   15  A    between atoms: C_18  and  C_19
REMARK   16  A    between atoms: C_18  and  C_20
REMARK   17  A    between atoms: C_22  and  C_24
REMARK   18  A    between atoms: C_24  and  N_25
REMARK   19  A    between atoms: C_24  and  C_32
REMARK   20  A    between atoms: C_26  and  C_28
REMARK   21  A    between atoms: C_28  and  C_29
REMARK   22  A    between atoms: C_29  and  C_30
REMARK   23  A    between atoms: C_29  and  C_31
REMARK   24  A    between atoms: C_32  and  C_33
REMARK   25  A    between atoms: C_32  and  C_34
REMARK                            x       y       z     vdW  Elec       q    Type
REMARK                         _______ _______ _______ _____ _____    ______ ____
ROOT
ATOM      1  C   UNL     1       6.071   4.739  17.866  0.00  0.00    +0.000 C 
ENDROOT
BRANCH   1   2
ATOM      2  N   UNL     1       5.915   3.886  19.054  0.00  0.00    +0.000 N 
ATOM      3  C   UNL     1       4.786   3.379  19.633  0.00  0.00    +0.000 C 
ATOM      4  O   UNL     1       4.900   2.562  20.559  0.00  0.00    +0.000 OA
ATOM      5  H   UNL     1       6.769   3.635  19.538  0.00  0.00    +0.000 HD
BRANCH   3   6
ATOM      6  C   UNL     1       3.407   3.773  19.080  0.00  0.00    +0.000 C 
BRANCH   6   7
ATOM      7  N   UNL     1       3.353   5.240  19.033  0.00  0.00    +0.000 N 
ATOM      8  C   UNL     1       2.429   5.966  19.748  0.00  0.00    +0.000 C 
ATOM      9  O   UNL     1       1.555   5.437  20.440  0.00  0.00    +0.000 OA
ATOM     10  H   UNL     1       4.121   5.715  18.563  0.00  0.00    +0.000 HD
BRANCH   8  11
ATOM     11  C   UNL     1       2.522   7.467  19.614  0.00  0.00    +0.000 C 
BRANCH  11  12
ATOM     12  C   UNL     1       2.253   7.948  18.181  0.00  0.00    +0.000 C 
ATOM     13  C   UNL     1       1.640   9.352  18.151  0.00  0.00    +0.000 C 
ATOM     14  C   UNL     1       3.554   7.954  17.373  0.00  0.00    +0.000 C 
ENDBRANCH  11  12
ENDBRANCH   8  11
ENDBRANCH   6   7
BRANCH   6  15
ATOM     15  C   UNL     1       3.126   3.116  17.718  0.00  0.00    +0.000 C 
ATOM     16  C   UNL     1       2.915   1.606  17.895  0.00  0.00    +0.000 C 
ATOM     17  C   UNL     1       1.862   3.711  17.086  0.00  0.00    +0.000 C 
ENDBRANCH   6  15
ENDBRANCH   3   6
ENDBRANCH   1   2
BRANCH   1  18
ATOM     18  C   UNL     1       5.615   4.065  16.554  0.00  0.00    +0.000 C 
BRANCH  18  19
ATOM     19  C   UNL     1       6.036   4.657  15.196  0.00  0.00    +0.000 C 
ATOM     20  C   UNL     1       5.917   3.726  13.989  0.00  0.00    +0.000 C 
ATOM     21  C   UNL     1       5.154   5.889  14.936  0.00  0.00    +0.000 C 
ENDBRANCH  18  19
ENDBRANCH   1  18
BRANCH   1  22
ATOM     22  C   UNL     1       7.523   5.297  17.781  0.00  0.00    +0.000 C 
BRANCH  22  23
ATOM     23  O   UNL     1       8.421   4.311  18.323  0.00  0.00    +0.000 OA
ATOM     24  H   UNL     1       7.940   3.460  18.410  0.00  0.00    +0.000 HD
ENDBRANCH  22  23
BRANCH  22  25
ATOM     25  C   UNL     1       7.677   6.612  18.551  0.00  0.00    +0.000 C 
BRANCH  25  27
ATOM     26  N   UNL     1       8.186   8.970  17.956  0.00  0.00    +0.000 N 
ATOM     27  C   UNL     1       7.555   7.805  17.634  0.00  0.00    +0.000 C 
ATOM     28  O   UNL     1       6.875   7.767  16.607  0.00  0.00    +0.000 OA
ATOM     29  H   UNL     1       8.063   9.694  17.259  0.00  0.00    +0.000 HD
BRANCH  26  30
ATOM     30  C   UNL     1       9.026   9.237  19.109  0.00  0.00    +0.000 C 
BRANCH  30  32
ATOM     31  N   UNL     1       9.863  11.115  20.422  0.00  0.00    +0.000 N 
ATOM     32  C   UNL     1       9.286  10.740  19.228  0.00  0.00    +0.000 C 
ATOM     33  O   UNL     1       8.951  11.532  18.349  0.00  0.00    +0.000 OA
ATOM     34  H   UNL     1       9.855  10.452  21.187  0.00  0.00    +0.000 HD
BRANCH  31  35
ATOM     35  C   UNL     1      10.203  12.490  20.721  0.00  0.00    +0.000 C 
BRANCH  35  36
ATOM     36  C   UNL     1       9.616  12.996  22.041  0.00  0.00    +0.000 C 
BRANCH  36  38
ATOM     37  C   UNL     1       8.098  11.962  23.816  0.00  0.00    +0.000 C 
ATOM     38  C   UNL     1       8.207  12.468  22.377  0.00  0.00    +0.000 C 
ATOM     39  C   UNL     1       7.170  13.571  22.144  0.00  0.00    +0.000 C 
ENDBRANCH  36  38
ENDBRANCH  35  36
ENDBRANCH  31  35
ENDBRANCH  30  32
ENDBRANCH  26  30
ENDBRANCH  25  27
ENDBRANCH  22  25
ENDBRANCH   1  22
TORSDOF 17
ENDMDL
MODEL 7
REMARK VINA RESULT:      -6.3      2.972     10.783
REMARK  Name = 
REMARK  25 active torsions:
REMARK  status: ('A' for Active; 'I' for Inactive)
REMARK    1  A    between atoms: C_1  and  C_2
REMARK    2  A    between atoms: C_2  and  C_3
REMARK    3  A    between atoms: C_2  and  C_4
REMARK    4  A    between atoms: C_4  and  C_5
REMARK    5  A    between atoms: C_5  and  N_6
REMARK    6  A    between atoms: C_7  and  C_9
REMARK    7  A    between atoms: C_9  and  N_10
REMARK    8  A    between atoms: C_11  and  C_13
REMARK    9  A    between atoms: C_13  and  C_14
REMARK   10  A    between atoms: C_14  and  O_15
REMARK   11  A    between atoms: C_14  and  C_16
REMARK   12  A    between atoms: C_16  and  C_17
REMARK   13  A    between atoms: C_16  and  N_21
REMARK   14  A    between atoms: C_17  and  C_18
REMARK   15  A    between atoms: C_18  and  C_19
REMARK   16  A    between atoms: C_18  and  C_20
REMARK   17  A    between atoms: C_22  and  C_24
REMARK   18  A    between atoms: C_24  and  N_25
REMARK   19  A    between atoms: C_24  and  C_32
REMARK   20  A    between atoms: C_26  and  C_28
REMARK   21  A    between atoms: C_28  and  C_29
REMARK   22  A    between atoms: C_29  and  C_30
REMARK   23  A    between atoms: C_29  and  C_31
REMARK   24  A    between atoms: C_32  and  C_33
REMARK   25  A    between atoms: C_32  and  C_34
REMARK                            x       y       z     vdW  Elec       q    Type
REMARK                         _______ _______ _______ _____ _____    ______ ____
ROOT
ATOM      1  C   UNL     1       0.188  10.552  19.649  0.00  0.00    +0.000 C 
ENDROOT
BRANCH   1   2
ATOM      2  N   UNL     1       0.279  10.244  21.084  0.00  0.00    +0.000 N 
ATOM      3  C   UNL     1      -0.140  10.964  22.167  0.00  0.00    +0.000 C 
ATOM      4  O   UNL     1      -0.084  10.445  23.292  0.00  0.00    +0.000 OA
ATOM      5  H   UNL     1       0.732   9.370  21.326  0.00  0.00    +0.000 HD
BRANCH   3   6
ATOM      6  C   UNL     1      -0.738  12.365  21.963  0.00  0.00    +0.000 C 
BRANCH   6   7
ATOM      7  N   UNL     1       0.011  13.009  20.874  0.00  0.00    +0.000 N 
ATOM      8  C   UNL     1       0.998  13.937  21.110  0.00  0.00    +0.000 C 
ATOM      9  O   UNL     1       1.295  14.325  22.242  0.00  0.00    +0.000 OA
ATOM     10  H   UNL     1      -0.128  12.638  19.937  0.00  0.00    +0.000 HD
BRANCH   8  11
ATOM     11  C   UNL     1       1.692  14.486  19.886  0.00  0.00    +0.000 C 
BRANCH  11  12
ATOM     12  C   UNL     1       1.191  15.886  19.504  0.00  0.00    +0.000 C 
ATOM     13  C   UNL     1       2.211  16.649  18.653  0.00  0.00    +0.000 C 
ATOM     14  C   UNL     1      -0.126  15.784  18.731  0.00  0.00    +0.000 C 
ENDBRANCH  11  12
ENDBRANCH   8  11
ENDBRANCH   6   7
BRANCH   6  15
ATOM     15  C   UNL     1      -2.252  12.311  21.702  0.00  0.00    +0.000 C 
ATOM     16  C   UNL     1      -3.015  12.283  23.035  0.00  0.00    +0.000 C 
ATOM     17  C   UNL     1      -2.705  13.544  20.911  0.00  0.00    +0.000 C 
ENDBRANCH   6  15
ENDBRANCH   3   6
ENDBRANCH   1   2
BRANCH   1  18
ATOM     18  C   UNL     1      -1.005   9.873  18.942  0.00  0.00    +0.000 C 
BRANCH  18  19
ATOM     19  C   UNL     1      -1.986  10.713  18.106  0.00  0.00    +0.000 C 
ATOM     20  C   UNL     1      -1.559  12.152  17.810  0.00  0.00    +0.000 C 
ATOM     21  C   UNL     1      -2.187   9.991  16.763  0.00  0.00    +0.000 C 
ENDBRANCH  18  19
ENDBRANCH   1  18
BRANCH   1  22
ATOM     22  C   UNL     1       1.547  10.264  18.941  0.00  0.00    +0.000 C 
BRANCH  22  23
ATOM     23  O   UNL     1       1.758  11.273  17.937  0.00  0.00    +0.000 OA
ATOM     24  H   UNL     1       1.779  10.842  17.056  0.00  0.00    +0.000 HD
ENDBRANCH  22  23
BRANCH  22  25
ATOM     25  C   UNL     1       1.570   8.877  18.291  0.00  0.00    +0.000 C 
BRANCH  25  27
ATOM     26  N   UNL     1       3.118   7.001  18.799  0.00  0.00    +0.000 N 
ATOM     27  C   UNL     1       2.130   7.837  19.230  0.00  0.00    +0.000 C 
ATOM     28  O   UNL     1       1.701   7.700  20.377  0.00  0.00    +0.000 OA
ATOM     29  H   UNL     1       3.441   6.364  19.517  0.00  0.00    +0.000 HD
BRANCH  26  30
ATOM     30  C   UNL     1       3.761   6.982  17.498  0.00  0.00    +0.000 C 
BRANCH  30  32
ATOM     31  N   UNL     1       3.836   4.617  18.091  0.00  0.00    +0.000 N 
ATOM     32  C   UNL     1       4.225   5.562  17.167  0.00  0.00    +0.000 C 
ATOM     33  O   UNL     1       4.929   5.318  16.189  0.00  0.00    +0.000 OA
ATOM     34  H   UNL     1       3.499   4.936  18.990  0.00  0.00    +0.000 HD
BRANCH  31  35
ATOM     35  C   UNL     1       4.161   3.213  17.947  0.00  0.00    +0.000 C 
BRANCH  35  36
ATOM     36  C   UNL     1       2.936   2.312  17.776  0.00  0.00    +0.000 C 
BRANCH  36  38
ATOM     37  C   UNL     1       2.909   2.452  20.327  0.00  0.00    +0.000 C 
ATOM     38  C   UNL     1       2.150   2.022  19.071  0.00  0.00    +0.000 C 
ATOM     39  C   UNL     1       0.795   2.733  19.026  0.00  0.00    +0.000 C 
ENDBRANCH  36  38
ENDBRANCH  35  36
ENDBRANCH  31  35
ENDBRANCH  30  32
ENDBRANCH  26  30
ENDBRANCH  25  27
ENDBRANCH  22  25
ENDBRANCH   1  22
TORSDOF 17
ENDMDL
MODEL 8
REMARK VINA RESULT:      -6.3      2.487      3.113
REMARK  Name = 
REMARK  25 active torsions:
REMARK  status: ('A' for Active; 'I' for Inactive)
REMARK    1  A    between atoms: C_1  and  C_2
REMARK    2  A    between atoms: C_2  and  C_3
REMARK    3  A    between atoms: C_2  and  C_4
REMARK    4  A    between atoms: C_4  and  C_5
REMARK    5  A    between atoms: C_5  and  N_6
REMARK    6  A    between atoms: C_7  and  C_9
REMARK    7  A    between atoms: C_9  and  N_10
REMARK    8  A    between atoms: C_11  and  C_13
REMARK    9  A    between atoms: C_13  and  C_14
REMARK   10  A    between atoms: C_14  and  O_15
REMARK   11  A    between atoms: C_14  and  C_16
REMARK   12  A    between atoms: C_16  and  C_17
REMARK   13  A    between atoms: C_16  and  N_21
REMARK   14  A    between atoms: C_17  and  C_18
REMARK   15  A    between atoms: C_18  and  C_19
REMARK   16  A    between atoms: C_18  and  C_20
REMARK   17  A    between atoms: C_22  and  C_24
REMARK   18  A    between atoms: C_24  and  N_25
REMARK   19  A    between atoms: C_24  and  C_32
REMARK   20  A    between atoms: C_26  and  C_28
REMARK   21  A    between atoms: C_28  and  C_29
REMARK   22  A    between atoms: C_29  and  C_30
REMARK   23  A    between atoms: C_29  and  C_31
REMARK   24  A    between atoms: C_32  and  C_33
REMARK   25  A    between atoms: C_32  and  C_34
REMARK                            x       y       z     vdW  Elec       q    Type
REMARK                         _______ _______ _______ _____ _____    ______ ____
ROOT
ATOM      1  C   UNL     1       3.140   5.755  18.631  0.00  0.00    +0.000 C 
ENDROOT
BRANCH   1   2
ATOM      2  N   UNL     1       3.694   6.593  17.557  0.00  0.00    +0.000 N 
ATOM      3  C   UNL     1       4.795   6.404  16.770  0.00  0.00    +0.000 C 
ATOM      4  O   UNL     1       4.999   7.181  15.825  0.00  0.00    +0.000 OA
ATOM      5  H   UNL     1       3.200   7.458  17.365  0.00  0.00    +0.000 HD
BRANCH   3   6
ATOM      6  C   UNL     1       5.711   5.196  17.025  0.00  0.00    +0.000 C 
BRANCH   6   7
ATOM      7  N   UNL     1       5.468   4.224  15.951  0.00  0.00    +0.000 N 
ATOM      8  C   UNL     1       6.131   4.278  14.747  0.00  0.00    +0.000 C 
ATOM      9  O   UNL     1       6.940   5.166  14.468  0.00  0.00    +0.000 OA
ATOM     10  H   UNL     1       4.892   3.417  16.180  0.00  0.00    +0.000 HD
BRANCH   8  11
ATOM     11  C   UNL     1       5.788   3.190  13.756  0.00  0.00    +0.000 C 
BRANCH  11  12
ATOM     12  C   UNL     1       5.881   3.669  12.301  0.00  0.00    +0.000 C 
ATOM     13  C   UNL     1       6.992   2.950  11.528  0.00  0.00    +0.000 C 
ATOM     14  C   UNL     1       4.547   3.442  11.583  0.00  0.00    +0.000 C 
ENDBRANCH  11  12
ENDBRANCH   8  11
ENDBRANCH   6   7
BRANCH   6  15
ATOM     15  C   UNL     1       7.187   5.610  17.141  0.00  0.00    +0.000 C 
ATOM     16  C   UNL     1       7.303   6.942  17.896  0.00  0.00    +0.000 C 
ATOM     17  C   UNL     1       7.983   4.547  17.908  0.00  0.00    +0.000 C 
ENDBRANCH   6  15
ENDBRANCH   3   6
ENDBRANCH   1   2
BRANCH   1  18
ATOM     18  C   UNL     1       2.095   4.729  18.141  0.00  0.00    +0.000 C 
BRANCH  18  19
ATOM     19  C   UNL     1       2.404   3.222  18.205  0.00  0.00    +0.000 C 
ATOM     20  C   UNL     1       3.693   2.829  18.927  0.00  0.00    +0.000 C 
ATOM     21  C   UNL     1       1.229   2.538  18.923  0.00  0.00    +0.000 C 
ENDBRANCH  18  19
ENDBRANCH   1  18
BRANCH   1  22
ATOM     22  C   UNL     1       2.608   6.641  19.797  0.00  0.00    +0.000 C 
BRANCH  22  23
ATOM     23  O   UNL     1       1.643   5.878  20.543  0.00  0.00    +0.000 OA
ATOM     24  H   UNL     1       1.080   5.379  19.914  0.00  0.00    +0.000 HD
ENDBRANCH  22  23
BRANCH  22  25
ATOM     25  C   UNL     1       1.961   7.931  19.286  0.00  0.00    +0.000 C 
BRANCH  25  27
ATOM     26  N   UNL     1       0.575   9.814  20.129  0.00  0.00    +0.000 N 
ATOM     27  C   UNL     1       1.339   8.720  20.412  0.00  0.00    +0.000 C 
ATOM     28  O   UNL     1       1.524   8.420  21.593  0.00  0.00    +0.000 OA
ATOM     29  H   UNL     1       0.183  10.250  20.955  0.00  0.00    +0.000 HD
BRANCH  26  30
ATOM     30  C   UNL     1       0.235  10.346  18.822  0.00  0.00    +0.000 C 
BRANCH  30  32
ATOM     31  N   UNL     1      -1.613  11.776  19.522  0.00  0.00    +0.000 N 
ATOM     32  C   UNL     1      -1.257  10.679  18.767  0.00  0.00    +0.000 C 
ATOM     33  O   UNL     1      -2.058   9.984  18.145  0.00  0.00    +0.000 OA
ATOM     34  H   UNL     1      -0.953  12.120  20.208  0.00  0.00    +0.000 HD
BRANCH  31  35
ATOM     35  C   UNL     1      -2.976  12.262  19.587  0.00  0.00    +0.000 C 
BRANCH  35  36
ATOM     36  C   UNL     1      -3.353  12.852  20.948  0.00  0.00    +0.000 C 
BRANCH  36  38
ATOM     37  C   UNL     1      -4.657  14.689  22.152  0.00  0.00    +0.000 C 
ATOM     38  C   UNL     1      -3.835  14.316  20.918  0.00  0.00    +0.000 C 
ATOM     39  C   UNL     1      -2.631  15.257  20.803  0.00  0.00    +0.000 C 
ENDBRANCH  36  38
ENDBRANCH  35  36
ENDBRANCH  31  35
ENDBRANCH  30  32
ENDBRANCH  26  30
ENDBRANCH  25  27
ENDBRANCH  22  25
ENDBRANCH   1  22
TORSDOF 17
ENDMDL
MODEL 9
REMARK VINA RESULT:      -6.3      2.990      3.438
REMARK  Name = 
REMARK  25 active torsions:
REMARK  status: ('A' for Active; 'I' for Inactive)
REMARK    1  A    between atoms: C_1  and  C_2
REMARK    2  A    between atoms: C_2  and  C_3
REMARK    3  A    between atoms: C_2  and  C_4
REMARK    4  A    between atoms: C_4  and  C_5
REMARK    5  A    between atoms: C_5  and  N_6
REMARK    6  A    between atoms: C_7  and  C_9
REMARK    7  A    between atoms: C_9  and  N_10
REMARK    8  A    between atoms: C_11  and  C_13
REMARK    9  A    between atoms: C_13  and  C_14
REMARK   10  A    between atoms: C_14  and  O_15
REMARK   11  A    between atoms: C_14  and  C_16
REMARK   12  A    between atoms: C_16  and  C_17
REMARK   13  A    between atoms: C_16  and  N_21
REMARK   14  A    between atoms: C_17  and  C_18
REMARK   15  A    between atoms: C_18  and  C_19
REMARK   16  A    between atoms: C_18  and  C_20
REMARK   17  A    between atoms: C_22  and  C_24
REMARK   18  A    between atoms: C_24  and  N_25
REMARK   19  A    between atoms: C_24  and  C_32
REMARK   20  A    between atoms: C_26  and  C_28
REMARK   21  A    between atoms: C_28  and  C_29
REMARK   22  A    between atoms: C_29  and  C_30
REMARK   23  A    between atoms: C_29  and  C_31
REMARK   24  A    between atoms: C_32  and  C_33
REMARK   25  A    between atoms: C_32  and  C_34
REMARK                            x       y       z     vdW  Elec       q    Type
REMARK                         _______ _______ _______ _____ _____    ______ ____
ROOT
ATOM      1  C   UNL     1       3.707   4.842  18.216  0.00  0.00    +0.000 C 
ENDROOT
BRANCH   1   2
ATOM      2  N   UNL     1       3.860   5.902  17.208  0.00  0.00    +0.000 N 
ATOM      3  C   UNL     1       4.982   6.367  16.582  0.00  0.00    +0.000 C 
ATOM      4  O   UNL     1       4.859   7.182  15.656  0.00  0.00    +0.000 OA
ATOM      5  H   UNL     1       3.011   6.382  16.933  0.00  0.00    +0.000 HD
BRANCH   3   6
ATOM      6  C   UNL     1       6.359   5.816  16.984  0.00  0.00    +0.000 C 
BRANCH   6   7
ATOM      7  N   UNL     1       7.186   5.766  15.771  0.00  0.00    +0.000 N 
ATOM      8  C   UNL     1       7.067   4.761  14.840  0.00  0.00    +0.000 C 
ATOM      9  O   UNL     1       6.293   3.810  14.978  0.00  0.00    +0.000 OA
ATOM     10  H   UNL     1       7.756   6.585  15.568  0.00  0.00    +0.000 HD
BRANCH   8  11
ATOM     11  C   UNL     1       7.971   4.868  13.635  0.00  0.00    +0.000 C 
BRANCH  11  12
ATOM     12  C   UNL     1       7.187   4.982  12.320  0.00  0.00    +0.000 C 
ATOM     13  C   UNL     1       7.847   5.957  11.340  0.00  0.00    +0.000 C 
ATOM     14  C   UNL     1       7.069   3.609  11.653  0.00  0.00    +0.000 C 
ENDBRANCH  11  12
ENDBRANCH   8  11
ENDBRANCH   6   7
BRANCH   6  15
ATOM     15  C   UNL     1       6.998   6.638  18.115  0.00  0.00    +0.000 C 
ATOM     16  C   UNL     1       7.908   5.743  18.969  0.00  0.00    +0.000 C 
ATOM     17  C   UNL     1       7.845   7.778  17.537  0.00  0.00    +0.000 C 
ENDBRANCH   6  15
ENDBRANCH   3   6
ENDBRANCH   1   2
BRANCH   1  18
ATOM     18  C   UNL     1       3.355   3.462  17.617  0.00  0.00    +0.000 C 
BRANCH  18  19
ATOM     19  C   UNL     1       3.461   2.195  18.485  0.00  0.00    +0.000 C 
ATOM     20  C   UNL     1       4.342   2.302  19.730  0.00  0.00    +0.000 C 
ATOM     21  C   UNL     1       2.039   1.825  18.939  0.00  0.00    +0.000 C 
ENDBRANCH  18  19
ENDBRANCH   1  18
BRANCH   1  22
ATOM     22  C   UNL     1       2.710   5.285  19.329  0.00  0.00    +0.000 C 
BRANCH  22  23
ATOM     23  O   UNL     1       1.384   5.303  18.768  0.00  0.00    +0.000 OA
ATOM     24  H   UNL     1       1.120   4.383  18.553  0.00  0.00    +0.000 HD
ENDBRANCH  22  23
BRANCH  22  25
ATOM     25  C   UNL     1       3.053   6.670  19.886  0.00  0.00    +0.000 C 
BRANCH  25  27
ATOM     26  N   UNL     1       1.249   8.361  20.128  0.00  0.00    +0.000 N 
ATOM     27  C   UNL     1       2.146   7.733  19.316  0.00  0.00    +0.000 C 
ATOM     28  O   UNL     1       2.173   8.037  18.121  0.00  0.00    +0.000 OA
ATOM     29  H   UNL     1       0.714   9.077  19.651  0.00  0.00    +0.000 HD
BRANCH  26  30
ATOM     30  C   UNL     1       1.044   8.159  21.551  0.00  0.00    +0.000 C 
BRANCH  30  32
ATOM     31  N   UNL     1       0.174  10.428  21.350  0.00  0.00    +0.000 N 
ATOM     32  C   UNL     1       0.678   9.485  22.219  0.00  0.00    +0.000 C 
ATOM     33  O   UNL     1       0.877   9.689  23.415  0.00  0.00    +0.000 OA
ATOM     34  H   UNL     1       0.297  10.279  20.357  0.00  0.00    +0.000 HD
BRANCH  31  35
ATOM     35  C   UNL     1      -0.247  11.742  21.792  0.00  0.00    +0.000 C 
BRANCH  35  36
ATOM     36  C   UNL     1      -1.658  11.769  22.382  0.00  0.00    +0.000 C 
BRANCH  36  38
ATOM     37  C   UNL     1      -2.832  12.574  20.260  0.00  0.00    +0.000 C 
ATOM     38  C   UNL     1      -2.611  12.807  21.756  0.00  0.00    +0.000 C 
ATOM     39  C   UNL     1      -3.960  12.777  22.480  0.00  0.00    +0.000 C 
ENDBRANCH  36  38
ENDBRANCH  35  36
ENDBRANCH  31  35
ENDBRANCH  30  32
ENDBRANCH  26  30
ENDBRANCH  25  27
ENDBRANCH  22  25
ENDBRANCH   1  22
TORSDOF 17
ENDMDL
