MODEL 1
REMARK VINA RESULT:      -6.8      0.000      0.000
REMARK  Name = 
REMARK  3 active torsions:
REMARK  status: ('A' for Active; 'I' for Inactive)
REMARK    1  A    between atoms: N_5  and  C_6
REMARK    2  A    between atoms: C_6  and  C_7
REMARK    3  A    between atoms: N_13  and  C_14
REMARK                            x       y       z     vdW  Elec       q    Type
REMARK                         _______ _______ _______ _____ _____    ______ ____
ROOT
ATOM      1  O   UNL     1       4.844   2.956  16.945  0.00  0.00    +0.000 OA
ATOM      2  C   UNL     1       4.896   4.092  17.410  0.00  0.00    +0.000 C 
ATOM      3  C   UNL     1       6.127   4.966  17.400  0.00  0.00    +0.000 C 
ATOM      4  C   UNL     1       6.889   4.889  16.110  0.00  0.00    +0.000 C 
ATOM      5  N   UNL     1       6.045   5.599  15.125  0.00  0.00    +0.000 NA
ATOM      6  C   UNL     1       5.125   6.478  15.903  0.00  0.00    +0.000 C 
ATOM      7  C   UNL     1       5.484   6.327  17.403  0.00  0.00    +0.000 C 
ATOM      8  C   UNL     1       4.339   6.121  18.398  0.00  0.00    +0.000 C 
ATOM      9  N   UNL     1       3.908   4.770  18.135  0.00  0.00    +0.000 N 
ENDROOT
BRANCH   9  10
ATOM     10  C   UNL     1       2.860   4.088  18.754  0.00  0.00    +0.000 A 
ATOM     11  C   UNL     1       1.669   3.653  18.094  0.00  0.00    +0.000 A 
ATOM     12  C   UNL     1       0.778   3.044  18.951  0.00  0.00    +0.000 A 
ATOM     13  S   UNL     1       1.416   2.892  20.529  0.00  0.00    +0.000 S 
ATOM     14  C   UNL     1       2.854   3.711  20.082  0.00  0.00    +0.000 A 
ENDBRANCH   9  10
BRANCH   5  15
ATOM     15  C   UNL     1       5.369   4.596  14.280  0.00  0.00    +0.000 C 
BRANCH  15  16
ATOM     16  C   UNL     1       6.288   3.705  13.516  0.00  0.00    +0.000 C 
ATOM     17  C   UNL     1       5.810   3.189  12.176  0.00  0.00    +0.000 C 
ATOM     18  C   UNL     1       6.944   4.172  12.239  0.00  0.00    +0.000 C 
ENDBRANCH  15  16
ENDBRANCH   5  15
TORSDOF 3
ENDMDL
MODEL 2
REMARK VINA RESULT:      -6.6      2.850      6.168
REMARK  Name = 
REMARK  3 active torsions:
REMARK  status: ('A' for Active; 'I' for Inactive)
REMARK    1  A    between atoms: N_5  and  C_6
REMARK    2  A    between atoms: C_6  and  C_7
REMARK    3  A    between atoms: N_13  and  C_14
REMARK                            x       y       z     vdW  Elec       q    Type
REMARK                         _______ _______ _______ _____ _____    ______ ____
ROOT
ATOM      1  O   UNL     1       4.915   4.335  19.623  0.00  0.00    +0.000 OA
ATOM      2  C   UNL     1       4.199   3.550  19.006  0.00  0.00    +0.000 C 
ATOM      3  C   UNL     1       3.567   2.317  19.605  0.00  0.00    +0.000 C 
ATOM      4  C   UNL     1       3.031   2.545  20.987  0.00  0.00    +0.000 C 
ATOM      5  N   UNL     1       1.837   3.396  20.798  0.00  0.00    +0.000 NA
ATOM      6  C   UNL     1       1.411   3.227  19.378  0.00  0.00    +0.000 C 
ATOM      7  C   UNL     1       2.354   2.187  18.723  0.00  0.00    +0.000 C 
ATOM      8  C   UNL     1       2.941   2.517  17.348  0.00  0.00    +0.000 C 
ATOM      9  N   UNL     1       3.909   3.545  17.636  0.00  0.00    +0.000 N 
ENDROOT
BRANCH   9  10
ATOM     10  C   UNL     1       4.713   4.223  16.718  0.00  0.00    +0.000 A 
ATOM     11  C   UNL     1       4.685   5.634  16.497  0.00  0.00    +0.000 A 
ATOM     12  C   UNL     1       5.549   6.034  15.502  0.00  0.00    +0.000 A 
ATOM     13  S   UNL     1       6.480   4.731  14.906  0.00  0.00    +0.000 S 
ATOM     14  C   UNL     1       5.670   3.618  15.928  0.00  0.00    +0.000 A 
ENDBRANCH   9  10
BRANCH   5  15
ATOM     15  C   UNL     1       2.183   4.779  21.175  0.00  0.00    +0.000 C 
BRANCH  15  16
ATOM     16  C   UNL     1       1.583   5.830  20.305  0.00  0.00    +0.000 C 
ATOM     17  C   UNL     1       1.665   7.264  20.781  0.00  0.00    +0.000 C 
ATOM     18  C   UNL     1       2.451   6.830  19.579  0.00  0.00    +0.000 C 
ENDBRANCH  15  16
ENDBRANCH   5  15
TORSDOF 3
ENDMDL
MODEL 3
REMARK VINA RESULT:      -6.3      0.991      1.138
REMARK  Name = 
REMARK  3 active torsions:
REMARK  status: ('A' for Active; 'I' for Inactive)
REMARK    1  A    between atoms: N_5  and  C_6
REMARK    2  A    between atoms: C_6  and  C_7
REMARK    3  A    between atoms: N_13  and  C_14
REMARK                            x       y       z     vdW  Elec       q    Type
REMARK                         _______ _______ _______ _____ _____    ______ ____
ROOT
ATOM      1  O   UNL     1       4.790   3.051  17.053  0.00  0.00    +0.000 OA
ATOM      2  C   UNL     1       5.190   3.995  17.730  0.00  0.00    +0.000 C 
ATOM      3  C   UNL     1       6.607   4.514  17.725  0.00  0.00    +0.000 C 
ATOM      4  C   UNL     1       7.209   4.559  16.351  0.00  0.00    +0.000 C 
ATOM      5  N   UNL     1       6.511   5.667  15.665  0.00  0.00    +0.000 NA
ATOM      6  C   UNL     1       5.935   6.537  16.731  0.00  0.00    +0.000 C 
ATOM      7  C   UNL     1       6.363   5.951  18.100  0.00  0.00    +0.000 C 
ATOM      8  C   UNL     1       5.292   5.805  19.184  0.00  0.00    +0.000 C 
ATOM      9  N   UNL     1       4.488   4.705  18.713  0.00  0.00    +0.000 N 
ENDROOT
BRANCH   9  10
ATOM     10  C   UNL     1       3.349   4.176  19.321  0.00  0.00    +0.000 A 
ATOM     11  C   UNL     1       3.294   2.914  19.990  0.00  0.00    +0.000 A 
ATOM     12  C   UNL     1       2.034   2.615  20.461  0.00  0.00    +0.000 A 
ATOM     13  S   UNL     1       0.937   3.898  20.200  0.00  0.00    +0.000 S 
ATOM     14  C   UNL     1       2.131   4.823  19.388  0.00  0.00    +0.000 A 
ENDBRANCH   9  10
BRANCH   5  15
ATOM     15  C   UNL     1       5.519   5.093  14.736  0.00  0.00    +0.000 C 
BRANCH  15  16
ATOM     16  C   UNL     1       5.991   3.895  13.985  0.00  0.00    +0.000 C 
ATOM     17  C   UNL     1       5.284   3.557  12.690  0.00  0.00    +0.000 C 
ATOM     18  C   UNL     1       6.706   4.036  12.662  0.00  0.00    +0.000 C 
ENDBRANCH  15  16
ENDBRANCH   5  15
TORSDOF 3
ENDMDL
MODEL 4
REMARK VINA RESULT:      -6.3      0.931      1.243
REMARK  Name = 
REMARK  3 active torsions:
REMARK  status: ('A' for Active; 'I' for Inactive)
REMARK    1  A    between atoms: N_5  and  C_6
REMARK    2  A    between atoms: C_6  and  C_7
REMARK    3  A    between atoms: N_13  and  C_14
REMARK                            x       y       z     vdW  Elec       q    Type
REMARK                         _______ _______ _______ _____ _____    ______ ____
ROOT
ATOM      1  O   UNL     1       5.261   3.494  17.812  0.00  0.00    +0.000 OA
ATOM      2  C   UNL     1       4.922   4.675  17.837  0.00  0.00    +0.000 C 
ATOM      3  C   UNL     1       5.880   5.841  17.820  0.00  0.00    +0.000 C 
ATOM      4  C   UNL     1       7.029   5.642  16.876  0.00  0.00    +0.000 C 
ATOM      5  N   UNL     1       6.437   5.759  15.526  0.00  0.00    +0.000 NA
ATOM      6  C   UNL     1       5.151   6.498  15.683  0.00  0.00    +0.000 C 
ATOM      7  C   UNL     1       5.010   6.887  17.176  0.00  0.00    +0.000 C 
ATOM      8  C   UNL     1       3.666   6.629  17.861  0.00  0.00    +0.000 C 
ATOM      9  N   UNL     1       3.632   5.195  18.001  0.00  0.00    +0.000 N 
ENDROOT
BRANCH   9  10
ATOM     10  C   UNL     1       2.600   4.428  18.542  0.00  0.00    +0.000 A 
ATOM     11  C   UNL     1       1.955   4.695  19.790  0.00  0.00    +0.000 A 
ATOM     12  C   UNL     1       1.001   3.754  20.107  0.00  0.00    +0.000 A 
ATOM     13  S   UNL     1       0.796   2.608  18.857  0.00  0.00    +0.000 S 
ATOM     14  C   UNL     1       2.041   3.328  17.923  0.00  0.00    +0.000 A 
ENDBRANCH   9  10
BRANCH   5  15
ATOM     15  C   UNL     1       6.303   4.404  14.956  0.00  0.00    +0.000 C 
BRANCH  15  16
ATOM     16  C   UNL     1       5.881   4.370  13.527  0.00  0.00    +0.000 C 
ATOM     17  C   UNL     1       6.961   4.191  12.482  0.00  0.00    +0.000 C 
ATOM     18  C   UNL     1       5.962   3.096  12.720  0.00  0.00    +0.000 C 
ENDBRANCH  15  16
ENDBRANCH   5  15
TORSDOF 3
ENDMDL
MODEL 5
REMARK VINA RESULT:      -6.1      2.141      3.729
REMARK  Name = 
REMARK  3 active torsions:
REMARK  status: ('A' for Active; 'I' for Inactive)
REMARK    1  A    between atoms: N_5  and  C_6
REMARK    2  A    between atoms: C_6  and  C_7
REMARK    3  A    between atoms: N_13  and  C_14
REMARK                            x       y       z     vdW  Elec       q    Type
REMARK                         _______ _______ _______ _____ _____    ______ ____
ROOT
ATOM      1  O   UNL     1       3.956   6.507  18.244  0.00  0.00    +0.000 OA
ATOM      2  C   UNL     1       4.145   5.434  17.677  0.00  0.00    +0.000 C 
ATOM      3  C   UNL     1       4.598   5.291  16.244  0.00  0.00    +0.000 C 
ATOM      4  C   UNL     1       5.655   6.284  15.862  0.00  0.00    +0.000 C 
ATOM      5  N   UNL     1       6.872   5.839  16.575  0.00  0.00    +0.000 NA
ATOM      6  C   UNL     1       6.669   4.401  16.914  0.00  0.00    +0.000 C 
ATOM      7  C   UNL     1       5.305   3.965  16.322  0.00  0.00    +0.000 C 
ATOM      8  C   UNL     1       4.356   3.166  17.219  0.00  0.00    +0.000 C 
ATOM      9  N   UNL     1       3.884   4.147  18.164  0.00  0.00    +0.000 N 
ENDROOT
BRANCH   9  10
ATOM     10  C   UNL     1       3.009   3.934  19.230  0.00  0.00    +0.000 A 
ATOM     11  C   UNL     1       1.648   4.368  19.265  0.00  0.00    +0.000 A 
ATOM     12  C   UNL     1       1.024   4.067  20.456  0.00  0.00    +0.000 A 
ATOM     13  S   UNL     1       2.036   3.163  21.493  0.00  0.00    +0.000 S 
ATOM     14  C   UNL     1       3.336   3.242  20.379  0.00  0.00    +0.000 A 
ENDBRANCH   9  10
BRANCH   5  15
ATOM     15  C   UNL     1       7.081   6.722  17.738  0.00  0.00    +0.000 C 
BRANCH  15  16
ATOM     16  C   UNL     1       8.091   7.798  17.529  0.00  0.00    +0.000 C 
ATOM     17  C   UNL     1       7.639   9.230  17.716  0.00  0.00    +0.000 C 
ATOM     18  C   UNL     1       8.607   8.618  18.687  0.00  0.00    +0.000 C 
ENDBRANCH  15  16
ENDBRANCH   5  15
TORSDOF 3
ENDMDL
MODEL 6
REMARK VINA RESULT:      -5.8      3.640      5.109
REMARK  Name = 
REMARK  3 active torsions:
REMARK  status: ('A' for Active; 'I' for Inactive)
REMARK    1  A    between atoms: N_5  and  C_6
REMARK    2  A    between atoms: C_6  and  C_7
REMARK    3  A    between atoms: N_13  and  C_14
REMARK                            x       y       z     vdW  Elec       q    Type
REMARK                         _______ _______ _______ _____ _____    ______ ____
ROOT
ATOM      1  O   UNL     1       2.689   7.855  17.579  0.00  0.00    +0.000 OA
ATOM      2  C   UNL     1       2.567   6.973  18.426  0.00  0.00    +0.000 C 
ATOM      3  C   UNL     1       2.665   5.494  18.143  0.00  0.00    +0.000 C 
ATOM      4  C   UNL     1       3.764   5.153  17.180  0.00  0.00    +0.000 C 
ATOM      5  N   UNL     1       5.015   5.366  17.939  0.00  0.00    +0.000 NA
ATOM      6  C   UNL     1       4.653   5.317  19.385  0.00  0.00    +0.000 C 
ATOM      7  C   UNL     1       3.140   5.000  19.482  0.00  0.00    +0.000 C 
ATOM      8  C   UNL     1       2.290   5.842  20.437  0.00  0.00    +0.000 C 
ATOM      9  N   UNL     1       2.208   7.119  19.772  0.00  0.00    +0.000 N 
ENDROOT
BRANCH   9  10
ATOM     10  C   UNL     1       1.563   8.267  20.234  0.00  0.00    +0.000 A 
ATOM     11  C   UNL     1       1.268   8.538  21.606  0.00  0.00    +0.000 A 
ATOM     12  C   UNL     1       0.585   9.722  21.779  0.00  0.00    +0.000 A 
ATOM     13  S   UNL     1       0.395  10.568  20.308  0.00  0.00    +0.000 S 
ATOM     14  C   UNL     1       1.159   9.311  19.427  0.00  0.00    +0.000 A 
ENDBRANCH   9  10
BRANCH   5  15
ATOM     15  C   UNL     1       5.618   6.638  17.499  0.00  0.00    +0.000 C 
BRANCH  15  16
ATOM     16  C   UNL     1       7.104   6.616  17.384  0.00  0.00    +0.000 C 
ATOM     17  C   UNL     1       7.850   7.899  17.682  0.00  0.00    +0.000 C 
ATOM     18  C   UNL     1       7.983   6.724  18.607  0.00  0.00    +0.000 C 
ENDBRANCH  15  16
ENDBRANCH   5  15
TORSDOF 3
ENDMDL
MODEL 7
REMARK VINA RESULT:      -5.7      2.797      5.794
REMARK  Name = 
REMARK  3 active torsions:
REMARK  status: ('A' for Active; 'I' for Inactive)
REMARK    1  A    between atoms: N_5  and  C_6
REMARK    2  A    between atoms: C_6  and  C_7
REMARK    3  A    between atoms: N_13  and  C_14
REMARK                            x       y       z     vdW  Elec       q    Type
REMARK                         _______ _______ _______ _____ _____    ______ ____
ROOT
ATOM      1  O   UNL     1       5.112   5.541  19.155  0.00  0.00    +0.000 OA
ATOM      2  C   UNL     1       4.449   4.584  18.763  0.00  0.00    +0.000 C 
ATOM      3  C   UNL     1       3.610   3.700  19.654  0.00  0.00    +0.000 C 
ATOM      4  C   UNL     1       2.859   4.468  20.700  0.00  0.00    +0.000 C 
ATOM      5  N   UNL     1       1.800   5.188  19.960  0.00  0.00    +0.000 NA
ATOM      6  C   UNL     1       1.622   4.471  18.664  0.00  0.00    +0.000 C 
ATOM      7  C   UNL     1       2.568   3.245  18.668  0.00  0.00    +0.000 C 
ATOM      8  C   UNL     1       3.419   2.990  17.421  0.00  0.00    +0.000 C 
ATOM      9  N   UNL     1       4.410   4.036  17.474  0.00  0.00    +0.000 N 
ENDROOT
BRANCH   9  10
ATOM     10  C   UNL     1       5.424   4.281  16.547  0.00  0.00    +0.000 A 
ATOM     11  C   UNL     1       6.797   4.493  16.879  0.00  0.00    +0.000 A 
ATOM     12  C   UNL     1       7.577   4.758  15.774  0.00  0.00    +0.000 A 
ATOM     13  S   UNL     1       6.684   4.642  14.323  0.00  0.00    +0.000 S 
ATOM     14  C   UNL     1       5.236   4.313  15.180  0.00  0.00    +0.000 A 
ENDBRANCH   9  10
BRANCH   5  15
ATOM     15  C   UNL     1       2.198   6.602  19.830  0.00  0.00    +0.000 C 
BRANCH  15  16
ATOM     16  C   UNL     1       1.989   7.186  18.475  0.00  0.00    +0.000 C 
ATOM     17  C   UNL     1       1.932   8.694  18.363  0.00  0.00    +0.000 C 
ATOM     18  C   UNL     1       3.091   7.943  17.774  0.00  0.00    +0.000 C 
ENDBRANCH  15  16
ENDBRANCH   5  15
TORSDOF 3
ENDMDL
MODEL 8
REMARK VINA RESULT:      -5.7      2.925      4.632
REMARK  Name = 
REMARK  3 active torsions:
REMARK  status: ('A' for Active; 'I' for Inactive)
REMARK    1  A    between atoms: N_5  and  C_6
REMARK    2  A    between atoms: C_6  and  C_7
REMARK    3  A    between atoms: N_13  and  C_14
REMARK                            x       y       z     vdW  Elec       q    Type
REMARK                         _______ _______ _______ _____ _____    ______ ____
ROOT
ATOM      1  O   UNL     1       1.566   4.869  17.721  0.00  0.00    +0.000 OA
ATOM      2  C   UNL     1       1.813   4.571  18.887  0.00  0.00    +0.000 C 
ATOM      3  C   UNL     1       1.671   3.185  19.466  0.00  0.00    +0.000 C 
ATOM      4  C   UNL     1       2.149   2.110  18.534  0.00  0.00    +0.000 C 
ATOM      5  N   UNL     1       3.621   2.246  18.517  0.00  0.00    +0.000 NA
ATOM      6  C   UNL     1       3.997   2.992  19.754  0.00  0.00    +0.000 C 
ATOM      7  C   UNL     1       2.700   3.249  20.562  0.00  0.00    +0.000 C 
ATOM      8  C   UNL     1       2.468   4.657  21.115  0.00  0.00    +0.000 C 
ATOM      9  N   UNL     1       2.154   5.431  19.940  0.00  0.00    +0.000 N 
ENDROOT
BRANCH   9  10
ATOM     10  C   UNL     1       1.884   6.799  19.882  0.00  0.00    +0.000 A 
ATOM     11  C   UNL     1       2.179   7.640  18.765  0.00  0.00    +0.000 A 
ATOM     12  C   UNL     1       1.850   8.959  18.991  0.00  0.00    +0.000 A 
ATOM     13  S   UNL     1       1.082   9.173  20.501  0.00  0.00    +0.000 S 
ATOM     14  C   UNL     1       1.260   7.511  20.886  0.00  0.00    +0.000 A 
ENDBRANCH   9  10
BRANCH   5  15
ATOM     15  C   UNL     1       4.015   2.906  17.258  0.00  0.00    +0.000 C 
BRANCH  15  16
ATOM     16  C   UNL     1       5.001   4.012  17.417  0.00  0.00    +0.000 C 
ATOM     17  C   UNL     1       5.995   4.231  16.297  0.00  0.00    +0.000 C 
ATOM     18  C   UNL     1       4.927   5.253  16.560  0.00  0.00    +0.000 C 
ENDBRANCH  15  16
ENDBRANCH   5  15
TORSDOF 3
ENDMDL
MODEL 9
REMARK VINA RESULT:      -5.7      3.026      5.931
REMARK  Name = 
REMARK  3 active torsions:
REMARK  status: ('A' for Active; 'I' for Inactive)
REMARK    1  A    between atoms: N_5  and  C_6
REMARK    2  A    between atoms: C_6  and  C_7
REMARK    3  A    between atoms: N_13  and  C_14
REMARK                            x       y       z     vdW  Elec       q    Type
REMARK                         _______ _______ _______ _____ _____    ______ ____
ROOT
ATOM      1  O   UNL     1       5.083   3.724  19.754  0.00  0.00    +0.000 OA
ATOM      2  C   UNL     1       4.832   3.671  18.553  0.00  0.00    +0.000 C 
ATOM      3  C   UNL     1       4.224   2.478  17.856  0.00  0.00    +0.000 C 
ATOM      4  C   UNL     1       3.131   1.829  18.652  0.00  0.00    +0.000 C 
ATOM      5  N   UNL     1       2.000   2.780  18.593  0.00  0.00    +0.000 NA
ATOM      6  C   UNL     1       2.240   3.660  17.412  0.00  0.00    +0.000 C 
ATOM      7  C   UNL     1       3.531   3.166  16.711  0.00  0.00    +0.000 C 
ATOM      8  C   UNL     1       4.573   4.212  16.308  0.00  0.00    +0.000 C 
ATOM      9  N   UNL     1       5.146   4.616  17.568  0.00  0.00    +0.000 N 
ENDROOT
BRANCH   9  10
ATOM     10  C   UNL     1       6.133   5.581  17.770  0.00  0.00    +0.000 A 
ATOM     11  C   UNL     1       7.256   5.426  18.642  0.00  0.00    +0.000 A 
ATOM     12  C   UNL     1       8.050   6.551  18.689  0.00  0.00    +0.000 A 
ATOM     13  S   UNL     1       7.515   7.755  17.602  0.00  0.00    +0.000 S 
ATOM     14  C   UNL     1       6.173   6.800  17.125  0.00  0.00    +0.000 A 
ENDBRANCH   9  10
BRANCH   5  15
ATOM     15  C   UNL     1       1.920   3.492  19.883  0.00  0.00    +0.000 C 
BRANCH  15  16
ATOM     16  C   UNL     1       1.453   4.904  19.787  0.00  0.00    +0.000 C 
ATOM     17  C   UNL     1       1.625   5.783  21.007  0.00  0.00    +0.000 C 
ATOM     18  C   UNL     1       2.435   6.051  19.772  0.00  0.00    +0.000 C 
ENDBRANCH  15  16
ENDBRANCH   5  15
TORSDOF 3
ENDMDL
