MODEL 1
REMARK VINA RESULT:      -6.8      0.000      0.000
REMARK  Name = 
REMARK  9 active torsions:
REMARK  status: ('A' for Active; 'I' for Inactive)
REMARK    1  A    between atoms: C_1  and  C_2
REMARK    2  A    between atoms: C_2  and  C_3
REMARK    3  A    between atoms: N_10  and  CA_11
REMARK    4  A    between atoms: CA_11  and  CB_12
REMARK    5  A    between atoms: CA_11  and  C_19
REMARK    6  A    between atoms: CB_12  and  CG_13
REMARK    7  A    between atoms: C_19  and  OXT_21
REMARK    8  A    between atoms: C_23  and  C_24
REMARK    9  A    between atoms: C_28  and  O_29
REMARK                            x       y       z     vdW  Elec       q    Type
REMARK                         _______ _______ _______ _____ _____    ______ ____
ROOT
ATOM      1  C   UNK A   0      -5.711  12.988  19.108  0.00  0.00    +0.000 A 
ATOM      2  S   UNK A   0      -5.807  12.257  17.559  0.00  0.00    +0.000 S 
ATOM      3  C   UNK A   0      -4.305  11.497  17.741  0.00  0.00    +0.000 A 
ATOM      4  N   UNK A   0      -3.894  10.632  16.801  0.00  0.00    +0.000 NA
ATOM      5  C   UNK A   0      -2.733  10.067  17.115  0.00  0.00    +0.000 A 
ATOM      6  N   UNK A   0      -1.972  10.320  18.186  0.00  0.00    +0.000 NA
ATOM      7  C   UNK A   0      -2.344  11.292  19.048  0.00  0.00    +0.000 A 
ATOM      8  N   PHE A   1      -1.421  11.729  19.970  0.00  0.00    +0.000 N 
ATOM      9  C   UNK A   0      -3.631  11.874  18.892  0.00  0.00    +0.000 A 
ATOM     10  C   UNK A   0      -4.459  12.781  19.695  0.00  0.00    +0.000 A 
ATOM     11  H   PHE A   1      -1.609  12.613  20.437  0.00  0.00    +0.000 HD
ENDROOT
BRANCH  10  12
ATOM     12  C   UNK A   0      -4.149  13.299  21.037  0.00  0.00    +0.000 A 
ATOM     13  C   UNK A   0      -3.517  14.538  21.217  0.00  0.00    +0.000 A 
ATOM     14  C   UNK A   0      -3.246  15.026  22.498  0.00  0.00    +0.000 A 
ATOM     15  C   UNK A   0      -3.554  14.256  23.619  0.00  0.00    +0.000 A 
ATOM     16  C   UNK A   0      -4.179  13.028  23.446  0.00  0.00    +0.000 A 
ATOM     17  C   UNK A   0      -4.500  12.561  22.175  0.00  0.00    +0.000 A 
BRANCH  16  18
ATOM     18  O   UNK A   0      -4.509  12.238  24.509  0.00  0.00    +0.000 OA
ATOM     19  H   UNK A   0      -3.782  12.278  25.153  0.00  0.00    +0.000 HD
ENDBRANCH  16  18
ENDBRANCH  10  12
BRANCH   1  21
ATOM     20  C   UNK A   0      -7.768  12.849  20.565  0.00  0.00    +0.000 C 
ATOM     21  C   UNK A   0      -6.950  13.699  19.601  0.00  0.00    +0.000 C 
ENDBRANCH   1  21
BRANCH   8  22
ATOM     22  CA  PHE A   1      -0.461  10.867  20.683  0.00  0.00    +0.000 C 
BRANCH  22  23
ATOM     23  C   PHE A   1      -0.419  11.336  22.164  0.00  0.00    +0.000 C 
ATOM     24  O   PHE A   1      -0.730  12.463  22.539  0.00  0.00    +0.000 OA
BRANCH  23  25
ATOM     25  OXT PHE A   1      -0.042  10.386  23.060  0.00  0.00    +0.000 OA
ATOM     26  HXT PHE A   1      -0.772   9.927  23.506  0.00  0.00    +0.000 HD
ENDBRANCH  23  25
ENDBRANCH  22  23
BRANCH  22  27
ATOM     27  CB  PHE A   1       0.953  10.863  20.066  0.00  0.00    +0.000 C 
BRANCH  27  28
ATOM     28  CG  PHE A   1       1.372   9.499  19.570  0.00  0.00    +0.000 A 
ATOM     29  CD1 PHE A   1       1.459   8.417  20.456  0.00  0.00    +0.000 A 
ATOM     30  CE1 PHE A   1       2.007   7.215  20.040  0.00  0.00    +0.000 A 
ATOM     31  CZ  PHE A   1       2.469   7.065  18.734  0.00  0.00    +0.000 A 
ATOM     32  CE2 PHE A   1       2.339   8.116  17.829  0.00  0.00    +0.000 A 
ATOM     33  CD2 PHE A   1       1.785   9.327  18.245  0.00  0.00    +0.000 A 
ENDBRANCH  27  28
ENDBRANCH  22  27
ENDBRANCH   8  22
TORSDOF 8
ENDMDL
MODEL 2
REMARK VINA RESULT:      -6.4      0.982      1.382
REMARK  Name = 
REMARK  9 active torsions:
REMARK  status: ('A' for Active; 'I' for Inactive)
REMARK    1  A    between atoms: C_1  and  C_2
REMARK    2  A    between atoms: C_2  and  C_3
REMARK    3  A    between atoms: N_10  and  CA_11
REMARK    4  A    between atoms: CA_11  and  CB_12
REMARK    5  A    between atoms: CA_11  and  C_19
REMARK    6  A    between atoms: CB_12  and  CG_13
REMARK    7  A    between atoms: C_19  and  OXT_21
REMARK    8  A    between atoms: C_23  and  C_24
REMARK    9  A    between atoms: C_28  and  O_29
REMARK                            x       y       z     vdW  Elec       q    Type
REMARK                         _______ _______ _______ _____ _____    ______ ____
ROOT
ATOM      1  C   UNK A   0      -6.009  12.913  18.894  0.00  0.00    +0.000 A 
ATOM      2  S   UNK A   0      -5.973  12.213  17.328  0.00  0.00    +0.000 S 
ATOM      3  C   UNK A   0      -4.435  11.551  17.575  0.00  0.00    +0.000 A 
ATOM      4  N   UNK A   0      -3.916  10.738  16.643  0.00  0.00    +0.000 NA
ATOM      5  C   UNK A   0      -2.738  10.245  17.008  0.00  0.00    +0.000 A 
ATOM      6  N   UNK A   0      -2.053  10.524  18.123  0.00  0.00    +0.000 NA
ATOM      7  C   UNK A   0      -2.536  11.449  18.983  0.00  0.00    +0.000 A 
ATOM      8  N   PHE A   1      -1.694  11.925  19.961  0.00  0.00    +0.000 N 
ATOM      9  C   UNK A   0      -3.849  11.946  18.768  0.00  0.00    +0.000 A 
ATOM     10  C   UNK A   0      -4.778  12.776  19.544  0.00  0.00    +0.000 A 
ATOM     11  H   PHE A   1      -1.966  12.783  20.435  0.00  0.00    +0.000 HD
ENDROOT
BRANCH  10  12
ATOM     12  C   UNK A   0      -4.575  13.284  20.910  0.00  0.00    +0.000 A 
ATOM     13  C   UNK A   0      -4.909  12.517  22.035  0.00  0.00    +0.000 A 
ATOM     14  C   UNK A   0      -4.693  13.006  23.327  0.00  0.00    +0.000 A 
ATOM     15  C   UNK A   0      -4.188  14.291  23.512  0.00  0.00    +0.000 A 
ATOM     16  C   UNK A   0      -3.854  15.055  22.401  0.00  0.00    +0.000 A 
ATOM     17  C   UNK A   0      -4.018  14.553  21.113  0.00  0.00    +0.000 A 
BRANCH  16  18
ATOM     18  O   UNK A   0      -3.350  16.317  22.526  0.00  0.00    +0.000 OA
ATOM     19  H   UNK A   0      -3.117  16.459  23.458  0.00  0.00    +0.000 HD
ENDBRANCH  16  18
ENDBRANCH  10  12
BRANCH   1  21
ATOM     20  C   UNK A   0      -7.552  14.903  18.724  0.00  0.00    +0.000 C 
ATOM     21  C   UNK A   0      -7.318  13.527  19.333  0.00  0.00    +0.000 C 
ENDBRANCH   1  21
BRANCH   8  22
ATOM     22  CA  PHE A   1      -0.717  11.113  20.708  0.00  0.00    +0.000 C 
BRANCH  22  23
ATOM     23  C   PHE A   1      -0.735  11.596  22.185  0.00  0.00    +0.000 C 
ATOM     24  O   PHE A   1      -1.216  12.663  22.555  0.00  0.00    +0.000 OA
BRANCH  23  25
ATOM     25  OXT PHE A   1      -0.207  10.725  23.084  0.00  0.00    +0.000 OA
ATOM     26  HXT PHE A   1       0.697  10.429  22.890  0.00  0.00    +0.000 HD
ENDBRANCH  23  25
ENDBRANCH  22  23
BRANCH  22  27
ATOM     27  CB  PHE A   1       0.712  11.167  20.129  0.00  0.00    +0.000 C 
BRANCH  27  28
ATOM     28  CG  PHE A   1       1.176   9.835  19.587  0.00  0.00    +0.000 A 
ATOM     29  CD1 PHE A   1       1.351   8.742  20.446  0.00  0.00    +0.000 A 
ATOM     30  CE1 PHE A   1       1.939   7.576  19.983  0.00  0.00    +0.000 A 
ATOM     31  CZ  PHE A   1       2.355   7.475  18.656  0.00  0.00    +0.000 A 
ATOM     32  CE2 PHE A   1       2.137   8.536  17.780  0.00  0.00    +0.000 A 
ATOM     33  CD2 PHE A   1       1.542   9.709  18.244  0.00  0.00    +0.000 A 
ENDBRANCH  27  28
ENDBRANCH  22  27
ENDBRANCH   8  22
TORSDOF 8
ENDMDL
MODEL 3
REMARK VINA RESULT:      -6.4      0.650      1.082
REMARK  Name = 
REMARK  9 active torsions:
REMARK  status: ('A' for Active; 'I' for Inactive)
REMARK    1  A    between atoms: C_1  and  C_2
REMARK    2  A    between atoms: C_2  and  C_3
REMARK    3  A    between atoms: N_10  and  CA_11
REMARK    4  A    between atoms: CA_11  and  CB_12
REMARK    5  A    between atoms: CA_11  and  C_19
REMARK    6  A    between atoms: CB_12  and  CG_13
REMARK    7  A    between atoms: C_19  and  OXT_21
REMARK    8  A    between atoms: C_23  and  C_24
REMARK    9  A    between atoms: C_28  and  O_29
REMARK                            x       y       z     vdW  Elec       q    Type
REMARK                         _______ _______ _______ _____ _____    ______ ____
ROOT
ATOM      1  C   UNK A   0      -5.951  12.948  19.230  0.00  0.00    +0.000 A 
ATOM      2  S   UNK A   0      -6.250  12.286  17.675  0.00  0.00    +0.000 S 
ATOM      3  C   UNK A   0      -4.715  11.578  17.598  0.00  0.00    +0.000 A 
ATOM      4  N   UNK A   0      -4.418  10.775  16.565  0.00  0.00    +0.000 NA
ATOM      5  C   UNK A   0      -3.206  10.243  16.678  0.00  0.00    +0.000 A 
ATOM      6  N   UNK A   0      -2.304  10.476  17.639  0.00  0.00    +0.000 NA
ATOM      7  C   UNK A   0      -2.577  11.392  18.595  0.00  0.00    +0.000 A 
ATOM      8  N   PHE A   1      -1.543  11.822  19.394  0.00  0.00    +0.000 N 
ATOM      9  C   UNK A   0      -3.891  11.929  18.657  0.00  0.00    +0.000 A 
ATOM     10  C   UNK A   0      -4.621  12.764  19.618  0.00  0.00    +0.000 A 
ATOM     11  H   PHE A   1      -1.689  12.676  19.928  0.00  0.00    +0.000 HD
ENDROOT
BRANCH  10  12
ATOM     12  C   UNK A   0      -4.133  13.232  20.925  0.00  0.00    +0.000 A 
ATOM     13  C   UNK A   0      -3.447  14.447  21.060  0.00  0.00    +0.000 A 
ATOM     14  C   UNK A   0      -3.006  14.887  22.311  0.00  0.00    +0.000 A 
ATOM     15  C   UNK A   0      -3.199  14.091  23.439  0.00  0.00    +0.000 A 
ATOM     16  C   UNK A   0      -3.879  12.887  23.311  0.00  0.00    +0.000 A 
ATOM     17  C   UNK A   0      -4.366  12.469  22.076  0.00  0.00    +0.000 A 
BRANCH  16  18
ATOM     18  O   UNK A   0      -4.101  12.074  24.384  0.00  0.00    +0.000 OA
ATOM     19  H   UNK A   0      -4.308  11.184  24.052  0.00  0.00    +0.000 HD
ENDBRANCH  16  18
ENDBRANCH  10  12
BRANCH   1  21
ATOM     20  C   UNK A   0      -7.793  12.646  20.930  0.00  0.00    +0.000 C 
ATOM     21  C   UNK A   0      -7.127  13.586  19.934  0.00  0.00    +0.000 C 
ENDBRANCH   1  21
BRANCH   8  22
ATOM     22  CA  PHE A   1      -0.461  10.967  19.914  0.00  0.00    +0.000 C 
BRANCH  22  23
ATOM     23  C   PHE A   1      -0.098  11.482  21.335  0.00  0.00    +0.000 C 
ATOM     24  O   PHE A   1       0.883  12.176  21.586  0.00  0.00    +0.000 OA
BRANCH  23  25
ATOM     25  OXT PHE A   1      -0.977  11.143  22.314  0.00  0.00    +0.000 OA
ATOM     26  HXT PHE A   1      -0.719  11.410  23.211  0.00  0.00    +0.000 HD
ENDBRANCH  23  25
ENDBRANCH  22  23
BRANCH  22  27
ATOM     27  CB  PHE A   1       0.788  10.919  19.010  0.00  0.00    +0.000 C 
BRANCH  27  28
ATOM     28  CG  PHE A   1       1.483   9.578  19.041  0.00  0.00    +0.000 A 
ATOM     29  CD1 PHE A   1       2.139   9.092  17.902  0.00  0.00    +0.000 A 
ATOM     30  CE1 PHE A   1       2.625   7.795  17.876  0.00  0.00    +0.000 A 
ATOM     31  CZ  PHE A   1       2.476   6.963  18.984  0.00  0.00    +0.000 A 
ATOM     32  CE2 PHE A   1       1.874   7.453  20.141  0.00  0.00    +0.000 A 
ATOM     33  CD2 PHE A   1       1.386   8.760  20.170  0.00  0.00    +0.000 A 
ENDBRANCH  27  28
ENDBRANCH  22  27
ENDBRANCH   8  22
TORSDOF 8
ENDMDL
MODEL 4
REMARK VINA RESULT:      -6.4      1.855      2.762
REMARK  Name = 
REMARK  9 active torsions:
REMARK  status: ('A' for Active; 'I' for Inactive)
REMARK    1  A    between atoms: C_1  and  C_2
REMARK    2  A    between atoms: C_2  and  C_3
REMARK    3  A    between atoms: N_10  and  CA_11
REMARK    4  A    between atoms: CA_11  and  CB_12
REMARK    5  A    between atoms: CA_11  and  C_19
REMARK    6  A    between atoms: CB_12  and  CG_13
REMARK    7  A    between atoms: C_19  and  OXT_21
REMARK    8  A    between atoms: C_23  and  C_24
REMARK    9  A    between atoms: C_28  and  O_29
REMARK                            x       y       z     vdW  Elec       q    Type
REMARK                         _______ _______ _______ _____ _____    ______ ____
ROOT
ATOM      1  C   UNK A   0      -6.179  12.079  19.476  0.00  0.00    +0.000 A 
ATOM      2  S   UNK A   0      -6.273  11.281  17.959  0.00  0.00    +0.000 S 
ATOM      3  C   UNK A   0      -4.599  11.359  17.728  0.00  0.00    +0.000 A 
ATOM      4  N   UNK A   0      -4.056  10.736  16.672  0.00  0.00    +0.000 NA
ATOM      5  C   UNK A   0      -2.730  10.830  16.662  0.00  0.00    +0.000 A 
ATOM      6  N   UNK A   0      -1.959  11.499  17.527  0.00  0.00    +0.000 NA
ATOM      7  C   UNK A   0      -2.540  12.230  18.505  0.00  0.00    +0.000 A 
ATOM      8  N   PHE A   1      -1.758  13.126  19.195  0.00  0.00    +0.000 N 
ATOM      9  C   UNK A   0      -3.942  12.101  18.698  0.00  0.00    +0.000 A 
ATOM     10  C   UNK A   0      -4.887  12.549  19.727  0.00  0.00    +0.000 A 
ATOM     11  H   PHE A   1      -2.235  13.841  19.740  0.00  0.00    +0.000 HD
ENDROOT
BRANCH  10  12
ATOM     12  C   UNK A   0      -4.559  13.251  20.978  0.00  0.00    +0.000 A 
ATOM     13  C   UNK A   0      -4.457  14.649  21.030  0.00  0.00    +0.000 A 
ATOM     14  C   UNK A   0      -4.163  15.303  22.230  0.00  0.00    +0.000 A 
ATOM     15  C   UNK A   0      -3.913  14.564  23.385  0.00  0.00    +0.000 A 
ATOM     16  C   UNK A   0      -4.013  13.179  23.339  0.00  0.00    +0.000 A 
ATOM     17  C   UNK A   0      -4.357  12.526  22.159  0.00  0.00    +0.000 A 
BRANCH  16  18
ATOM     18  O   UNK A   0      -3.785  12.409  24.442  0.00  0.00    +0.000 OA
ATOM     19  H   UNK A   0      -3.841  11.476  24.177  0.00  0.00    +0.000 HD
ENDBRANCH  16  18
ENDBRANCH  10  12
BRANCH   1  21
ATOM     20  C   UNK A   0      -7.835  10.777  20.867  0.00  0.00    +0.000 C 
ATOM     21  C   UNK A   0      -7.449  12.134  20.294  0.00  0.00    +0.000 C 
ENDBRANCH   1  21
BRANCH   8  22
ATOM     22  CA  PHE A   1      -0.361  12.894  19.604  0.00  0.00    +0.000 C 
BRANCH  22  23
ATOM     23  C   PHE A   1       0.544  13.802  18.725  0.00  0.00    +0.000 C 
ATOM     24  O   PHE A   1       1.506  13.397  18.080  0.00  0.00    +0.000 OA
BRANCH  23  25
ATOM     25  OXT PHE A   1       0.175  15.109  18.676  0.00  0.00    +0.000 OA
ATOM     26  HXT PHE A   1       0.885  15.745  18.859  0.00  0.00    +0.000 HD
ENDBRANCH  23  25
ENDBRANCH  22  23
BRANCH  22  27
ATOM     27  CB  PHE A   1       0.081  11.419  19.508  0.00  0.00    +0.000 C 
BRANCH  27  28
ATOM     28  CG  PHE A   1      -0.070  10.676  20.815  0.00  0.00    +0.000 A 
ATOM     29  CD1 PHE A   1      -0.900  11.178  21.826  0.00  0.00    +0.000 A 
ATOM     30  CE1 PHE A   1      -0.904  10.594  23.082  0.00  0.00    +0.000 A 
ATOM     31  CZ  PHE A   1      -0.091   9.495  23.352  0.00  0.00    +0.000 A 
ATOM     32  CE2 PHE A   1       0.699   8.954  22.339  0.00  0.00    +0.000 A 
ATOM     33  CD2 PHE A   1       0.702   9.539  21.073  0.00  0.00    +0.000 A 
ENDBRANCH  27  28
ENDBRANCH  22  27
ENDBRANCH   8  22
TORSDOF 8
ENDMDL
MODEL 5
REMARK VINA RESULT:      -6.3      3.725      6.319
REMARK  Name = 
REMARK  9 active torsions:
REMARK  status: ('A' for Active; 'I' for Inactive)
REMARK    1  A    between atoms: C_1  and  C_2
REMARK    2  A    between atoms: C_2  and  C_3
REMARK    3  A    between atoms: N_10  and  CA_11
REMARK    4  A    between atoms: CA_11  and  CB_12
REMARK    5  A    between atoms: CA_11  and  C_19
REMARK    6  A    between atoms: CB_12  and  CG_13
REMARK    7  A    between atoms: C_19  and  OXT_21
REMARK    8  A    between atoms: C_23  and  C_24
REMARK    9  A    between atoms: C_28  and  O_29
REMARK                            x       y       z     vdW  Elec       q    Type
REMARK                         _______ _______ _______ _____ _____    ______ ____
ROOT
ATOM      1  C   UNK A   0      -2.667  12.584  22.798  0.00  0.00    +0.000 A 
ATOM      2  S   UNK A   0      -3.966  12.416  23.907  0.00  0.00    +0.000 S 
ATOM      3  C   UNK A   0      -5.128  12.630  22.695  0.00  0.00    +0.000 A 
ATOM      4  N   UNK A   0      -6.425  12.471  23.000  0.00  0.00    +0.000 NA
ATOM      5  C   UNK A   0      -7.209  12.604  21.935  0.00  0.00    +0.000 A 
ATOM      6  N   UNK A   0      -6.836  12.921  20.690  0.00  0.00    +0.000 NA
ATOM      7  C   UNK A   0      -5.540  13.208  20.438  0.00  0.00    +0.000 A 
ATOM      8  N   PHE A   1      -5.229  13.802  19.237  0.00  0.00    +0.000 N 
ATOM      9  C   UNK A   0      -4.587  12.970  21.465  0.00  0.00    +0.000 A 
ATOM     10  C   UNK A   0      -3.121  12.965  21.532  0.00  0.00    +0.000 A 
ATOM     11  H   PHE A   1      -4.314  14.241  19.155  0.00  0.00    +0.000 HD
ENDROOT
BRANCH  10  12
ATOM     12  C   UNK A   0      -2.188  13.152  20.410  0.00  0.00    +0.000 A 
ATOM     13  C   UNK A   0      -1.960  12.139  19.469  0.00  0.00    +0.000 A 
ATOM     14  C   UNK A   0      -1.085  12.338  18.397  0.00  0.00    +0.000 A 
ATOM     15  C   UNK A   0      -0.383  13.537  18.282  0.00  0.00    +0.000 A 
ATOM     16  C   UNK A   0      -0.605  14.544  19.212  0.00  0.00    +0.000 A 
ATOM     17  C   UNK A   0      -1.515  14.371  20.251  0.00  0.00    +0.000 A 
BRANCH  16  18
ATOM     18  O   UNK A   0       0.051  15.739  19.143  0.00  0.00    +0.000 OA
ATOM     19  H   UNK A   0      -0.336  16.256  18.416  0.00  0.00    +0.000 HD
ENDBRANCH  16  18
ENDBRANCH  10  12
BRANCH   1  21
ATOM     20  C   UNK A   0      -0.845  10.853  23.042  0.00  0.00    +0.000 C 
ATOM     21  C   UNK A   0      -1.282  12.284  23.325  0.00  0.00    +0.000 C 
ENDBRANCH   1  21
BRANCH   8  22
ATOM     22  CA  PHE A   1      -5.855  13.477  17.943  0.00  0.00    +0.000 C 
BRANCH  22  23
ATOM     23  C   PHE A   1      -7.130  14.356  17.804  0.00  0.00    +0.000 C 
ATOM     24  O   PHE A   1      -7.910  14.293  16.859  0.00  0.00    +0.000 OA
BRANCH  23  25
ATOM     25  OXT PHE A   1      -7.363  15.201  18.842  0.00  0.00    +0.000 OA
ATOM     26  HXT PHE A   1      -6.889  16.047  18.800  0.00  0.00    +0.000 HD
ENDBRANCH  23  25
ENDBRANCH  22  23
BRANCH  22  27
ATOM     27  CB  PHE A   1      -6.196  11.982  17.772  0.00  0.00    +0.000 C 
BRANCH  27  28
ATOM     28  CG  PHE A   1      -5.035  11.172  17.243  0.00  0.00    +0.000 A 
ATOM     29  CD1 PHE A   1      -4.505  10.116  17.996  0.00  0.00    +0.000 A 
ATOM     30  CE1 PHE A   1      -3.338   9.488  17.594  0.00  0.00    +0.000 A 
ATOM     31  CZ  PHE A   1      -2.683   9.894  16.433  0.00  0.00    +0.000 A 
ATOM     32  CE2 PHE A   1      -3.229  10.907  15.648  0.00  0.00    +0.000 A 
ATOM     33  CD2 PHE A   1      -4.406  11.538  16.050  0.00  0.00    +0.000 A 
ENDBRANCH  27  28
ENDBRANCH  22  27
ENDBRANCH   8  22
TORSDOF 8
ENDMDL
MODEL 6
REMARK VINA RESULT:      -6.3      2.446      4.920
REMARK  Name = 
REMARK  9 active torsions:
REMARK  status: ('A' for Active; 'I' for Inactive)
REMARK    1  A    between atoms: C_1  and  C_2
REMARK    2  A    between atoms: C_2  and  C_3
REMARK    3  A    between atoms: N_10  and  CA_11
REMARK    4  A    between atoms: CA_11  and  CB_12
REMARK    5  A    between atoms: CA_11  and  C_19
REMARK    6  A    between atoms: CB_12  and  CG_13
REMARK    7  A    between atoms: C_19  and  OXT_21
REMARK    8  A    between atoms: C_23  and  C_24
REMARK    9  A    between atoms: C_28  and  O_29
REMARK                            x       y       z     vdW  Elec       q    Type
REMARK                         _______ _______ _______ _____ _____    ______ ____
ROOT
ATOM      1  C   UNK A   0      -3.415  11.201  16.702  0.00  0.00    +0.000 A 
ATOM      2  S   UNK A   0      -5.127  11.308  16.754  0.00  0.00    +0.000 S 
ATOM      3  C   UNK A   0      -5.111  12.025  18.287  0.00  0.00    +0.000 A 
ATOM      4  N   UNK A   0      -6.265  12.464  18.813  0.00  0.00    +0.000 NA
ATOM      5  C   UNK A   0      -6.084  13.062  19.986  0.00  0.00    +0.000 A 
ATOM      6  N   UNK A   0      -4.935  13.195  20.658  0.00  0.00    +0.000 NA
ATOM      7  C   UNK A   0      -3.810  12.627  20.169  0.00  0.00    +0.000 A 
ATOM      8  N   PHE A   1      -2.719  12.529  21.000  0.00  0.00    +0.000 N 
ATOM      9  C   UNK A   0      -3.850  12.077  18.859  0.00  0.00    +0.000 A 
ATOM     10  C   UNK A   0      -2.842  11.564  17.924  0.00  0.00    +0.000 A 
ATOM     11  H   PHE A   1      -1.978  11.889  20.726  0.00  0.00    +0.000 HD
ENDROOT
BRANCH  10  12
ATOM     12  C   UNK A   0      -1.383  11.569  18.113  0.00  0.00    +0.000 A 
ATOM     13  C   UNK A   0      -0.663  12.765  18.243  0.00  0.00    +0.000 A 
ATOM     14  C   UNK A   0       0.720  12.752  18.441  0.00  0.00    +0.000 A 
ATOM     15  C   UNK A   0       1.413  11.542  18.458  0.00  0.00    +0.000 A 
ATOM     16  C   UNK A   0       0.704  10.354  18.330  0.00  0.00    +0.000 A 
ATOM     17  C   UNK A   0      -0.680  10.359  18.186  0.00  0.00    +0.000 A 
BRANCH  16  18
ATOM     18  O   UNK A   0       1.332   9.143  18.347  0.00  0.00    +0.000 OA
ATOM     19  H   UNK A   0       2.020   9.148  17.661  0.00  0.00    +0.000 HD
ENDBRANCH  16  18
ENDBRANCH  10  12
BRANCH   1  21
ATOM     20  C   UNK A   0      -3.806  10.092  14.468  0.00  0.00    +0.000 C 
ATOM     21  C   UNK A   0      -2.801  10.770  15.389  0.00  0.00    +0.000 C 
ENDBRANCH   1  21
BRANCH   8  22
ATOM     22  CA  PHE A   1      -2.295  13.557  21.967  0.00  0.00    +0.000 C 
BRANCH  22  23
ATOM     23  C   PHE A   1      -1.702  14.745  21.159  0.00  0.00    +0.000 C 
ATOM     24  O   PHE A   1      -0.508  15.027  21.124  0.00  0.00    +0.000 OA
BRANCH  23  25
ATOM     25  OXT PHE A   1      -2.604  15.458  20.435  0.00  0.00    +0.000 OA
ATOM     26  HXT PHE A   1      -2.223  16.128  19.845  0.00  0.00    +0.000 HD
ENDBRANCH  23  25
ENDBRANCH  22  23
BRANCH  22  27
ATOM     27  CB  PHE A   1      -1.286  13.049  23.018  0.00  0.00    +0.000 C 
BRANCH  27  28
ATOM     28  CG  PHE A   1      -0.728  11.685  22.684  0.00  0.00    +0.000 A 
ATOM     29  CD1 PHE A   1      -1.221  10.540  23.323  0.00  0.00    +0.000 A 
ATOM     30  CE1 PHE A   1      -0.596   9.317  23.146  0.00  0.00    +0.000 A 
ATOM     31  CZ  PHE A   1       0.525   9.210  22.324  0.00  0.00    +0.000 A 
ATOM     32  CE2 PHE A   1       0.992  10.331  21.642  0.00  0.00    +0.000 A 
ATOM     33  CD2 PHE A   1       0.361  11.563  21.816  0.00  0.00    +0.000 A 
ENDBRANCH  27  28
ENDBRANCH  22  27
ENDBRANCH   8  22
TORSDOF 8
ENDMDL
MODEL 7
REMARK VINA RESULT:      -6.3      2.450      5.680
REMARK  Name = 
REMARK  9 active torsions:
REMARK  status: ('A' for Active; 'I' for Inactive)
REMARK    1  A    between atoms: C_1  and  C_2
REMARK    2  A    between atoms: C_2  and  C_3
REMARK    3  A    between atoms: N_10  and  CA_11
REMARK    4  A    between atoms: CA_11  and  CB_12
REMARK    5  A    between atoms: CA_11  and  C_19
REMARK    6  A    between atoms: CB_12  and  CG_13
REMARK    7  A    between atoms: C_19  and  OXT_21
REMARK    8  A    between atoms: C_23  and  C_24
REMARK    9  A    between atoms: C_28  and  O_29
REMARK                            x       y       z     vdW  Elec       q    Type
REMARK                         _______ _______ _______ _____ _____    ______ ____
ROOT
ATOM      1  C   UNK A   0      -3.525  11.453  17.183  0.00  0.00    +0.000 A 
ATOM      2  S   UNK A   0      -5.235  11.586  17.241  0.00  0.00    +0.000 S 
ATOM      3  C   UNK A   0      -5.210  12.214  18.812  0.00  0.00    +0.000 A 
ATOM      4  N   UNK A   0      -6.356  12.641  19.363  0.00  0.00    +0.000 NA
ATOM      5  C   UNK A   0      -6.167  13.167  20.568  0.00  0.00    +0.000 A 
ATOM      6  N   UNK A   0      -5.016  13.242  21.248  0.00  0.00    +0.000 NA
ATOM      7  C   UNK A   0      -3.901  12.684  20.727  0.00  0.00    +0.000 A 
ATOM      8  N   PHE A   1      -2.813  12.519  21.552  0.00  0.00    +0.000 N 
ATOM      9  C   UNK A   0      -3.948  12.210  19.388  0.00  0.00    +0.000 A 
ATOM     10  C   UNK A   0      -2.948  11.736  18.425  0.00  0.00    +0.000 A 
ATOM     11  H   PHE A   1      -2.082  11.883  21.241  0.00  0.00    +0.000 HD
ENDROOT
BRANCH  10  12
ATOM     12  C   UNK A   0      -1.489  11.704  18.615  0.00  0.00    +0.000 A 
ATOM     13  C   UNK A   0      -0.701  12.849  18.432  0.00  0.00    +0.000 A 
ATOM     14  C   UNK A   0       0.682  12.808  18.634  0.00  0.00    +0.000 A 
ATOM     15  C   UNK A   0       1.303  11.606  18.970  0.00  0.00    +0.000 A 
ATOM     16  C   UNK A   0       0.527  10.469  19.152  0.00  0.00    +0.000 A 
ATOM     17  C   UNK A   0      -0.856  10.516  19.004  0.00  0.00    +0.000 A 
BRANCH  16  18
ATOM     18  O   UNK A   0       1.083   9.269  19.487  0.00  0.00    +0.000 OA
ATOM     19  H   UNK A   0       1.226   9.259  20.448  0.00  0.00    +0.000 HD
ENDBRANCH  16  18
ENDBRANCH  10  12
BRANCH   1  21
ATOM     20  C   UNK A   0      -2.869   9.583  15.619  0.00  0.00    +0.000 C 
ATOM     21  C   UNK A   0      -2.917  11.088  15.849  0.00  0.00    +0.000 C 
ENDBRANCH   1  21
BRANCH   8  22
ATOM     22  CA  PHE A   1      -2.372  13.483  22.576  0.00  0.00    +0.000 C 
BRANCH  22  23
ATOM     23  C   PHE A   1      -3.187  13.200  23.869  0.00  0.00    +0.000 C 
ATOM     24  O   PHE A   1      -3.388  14.028  24.752  0.00  0.00    +0.000 OA
BRANCH  23  25
ATOM     25  OXT PHE A   1      -3.717  11.952  23.955  0.00  0.00    +0.000 OA
ATOM     26  HXT PHE A   1      -3.468  11.347  23.238  0.00  0.00    +0.000 HD
ENDBRANCH  23  25
ENDBRANCH  22  23
BRANCH  22  27
ATOM     27  CB  PHE A   1      -2.514  14.959  22.148  0.00  0.00    +0.000 C 
BRANCH  27  28
ATOM     28  CG  PHE A   1      -1.305  15.472  21.402  0.00  0.00    +0.000 A 
ATOM     29  CD1 PHE A   1      -1.455  16.122  20.170  0.00  0.00    +0.000 A 
ATOM     30  CE1 PHE A   1      -0.344  16.437  19.406  0.00  0.00    +0.000 A 
ATOM     31  CZ  PHE A   1       0.936  16.119  19.858  0.00  0.00    +0.000 A 
ATOM     32  CE2 PHE A   1       1.100  15.520  21.105  0.00  0.00    +0.000 A 
ATOM     33  CD2 PHE A   1      -0.018  15.206  21.877  0.00  0.00    +0.000 A 
ENDBRANCH  27  28
ENDBRANCH  22  27
ENDBRANCH   8  22
TORSDOF 8
ENDMDL
MODEL 8
REMARK VINA RESULT:      -6.3      2.245      6.517
REMARK  Name = 
REMARK  9 active torsions:
REMARK  status: ('A' for Active; 'I' for Inactive)
REMARK    1  A    between atoms: C_1  and  C_2
REMARK    2  A    between atoms: C_2  and  C_3
REMARK    3  A    between atoms: N_10  and  CA_11
REMARK    4  A    between atoms: CA_11  and  CB_12
REMARK    5  A    between atoms: CA_11  and  C_19
REMARK    6  A    between atoms: CB_12  and  CG_13
REMARK    7  A    between atoms: C_19  and  OXT_21
REMARK    8  A    between atoms: C_23  and  C_24
REMARK    9  A    between atoms: C_28  and  O_29
REMARK                            x       y       z     vdW  Elec       q    Type
REMARK                         _______ _______ _______ _____ _____    ______ ____
ROOT
ATOM      1  C   UNK A   0      -3.250  11.079  17.150  0.00  0.00    +0.000 A 
ATOM      2  S   UNK A   0      -4.947  11.276  16.988  0.00  0.00    +0.000 S 
ATOM      3  C   UNK A   0      -5.060  12.150  18.433  0.00  0.00    +0.000 A 
ATOM      4  N   UNK A   0      -6.237  12.698  18.773  0.00  0.00    +0.000 NA
ATOM      5  C   UNK A   0      -6.153  13.407  19.894  0.00  0.00    +0.000 A 
ATOM      6  N   UNK A   0      -5.081  13.554  20.681  0.00  0.00    +0.000 NA
ATOM      7  C   UNK A   0      -3.945  12.882  20.387  0.00  0.00    +0.000 A 
ATOM      8  N   PHE A   1      -2.963  12.819  21.348  0.00  0.00    +0.000 N 
ATOM      9  C   UNK A   0      -3.871  12.199  19.143  0.00  0.00    +0.000 A 
ATOM     10  C   UNK A   0      -2.798  11.541  18.390  0.00  0.00    +0.000 A 
ATOM     11  H   PHE A   1      -2.236  12.117  21.228  0.00  0.00    +0.000 HD
ENDROOT
BRANCH  10  12
ATOM     12  C   UNK A   0      -1.372  11.493  18.749  0.00  0.00    +0.000 A 
ATOM     13  C   UNK A   0      -0.532  12.601  18.568  0.00  0.00    +0.000 A 
ATOM     14  C   UNK A   0       0.817  12.546  18.932  0.00  0.00    +0.000 A 
ATOM     15  C   UNK A   0       1.358  11.363  19.432  0.00  0.00    +0.000 A 
ATOM     16  C   UNK A   0       0.530  10.263  19.613  0.00  0.00    +0.000 A 
ATOM     17  C   UNK A   0      -0.825  10.328  19.302  0.00  0.00    +0.000 A 
BRANCH  16  18
ATOM     18  O   UNK A   0       1.007   9.082  20.105  0.00  0.00    +0.000 OA
ATOM     19  H   UNK A   0       0.940   8.412  19.404  0.00  0.00    +0.000 HD
ENDBRANCH  16  18
ENDBRANCH  10  12
BRANCH   1  21
ATOM     20  C   UNK A   0      -3.418  10.311  14.751  0.00  0.00    +0.000 C 
ATOM     21  C   UNK A   0      -2.520  10.482  15.969  0.00  0.00    +0.000 C 
ENDBRANCH   1  21
BRANCH   8  22
ATOM     22  CA  PHE A   1      -2.587  13.922  22.251  0.00  0.00    +0.000 C 
BRANCH  22  23
ATOM     23  C   PHE A   1      -1.049  14.116  22.141  0.00  0.00    +0.000 C 
ATOM     24  O   PHE A   1      -0.228  13.504  22.819  0.00  0.00    +0.000 OA
BRANCH  23  25
ATOM     25  OXT PHE A   1      -0.644  15.001  21.193  0.00  0.00    +0.000 OA
ATOM     26  HXT PHE A   1      -1.350  15.546  20.810  0.00  0.00    +0.000 HD
ENDBRANCH  23  25
ENDBRANCH  22  23
BRANCH  22  27
ATOM     27  CB  PHE A   1      -3.011  13.701  23.717  0.00  0.00    +0.000 C 
BRANCH  27  28
ATOM     28  CG  PHE A   1      -4.498  13.869  23.929  0.00  0.00    +0.000 A 
ATOM     29  CD1 PHE A   1      -5.319  12.750  24.118  0.00  0.00    +0.000 A 
ATOM     30  CE1 PHE A   1      -6.697  12.889  24.139  0.00  0.00    +0.000 A 
ATOM     31  CZ  PHE A   1      -7.281  14.145  23.982  0.00  0.00    +0.000 A 
ATOM     32  CE2 PHE A   1      -6.473  15.272  23.847  0.00  0.00    +0.000 A 
ATOM     33  CD2 PHE A   1      -5.085  15.134  23.829  0.00  0.00    +0.000 A 
ENDBRANCH  27  28
ENDBRANCH  22  27
ENDBRANCH   8  22
TORSDOF 8
ENDMDL
MODEL 9
REMARK VINA RESULT:      -6.2      1.399      1.710
REMARK  Name = 
REMARK  9 active torsions:
REMARK  status: ('A' for Active; 'I' for Inactive)
REMARK    1  A    between atoms: C_1  and  C_2
REMARK    2  A    between atoms: C_2  and  C_3
REMARK    3  A    between atoms: N_10  and  CA_11
REMARK    4  A    between atoms: CA_11  and  CB_12
REMARK    5  A    between atoms: CA_11  and  C_19
REMARK    6  A    between atoms: CB_12  and  CG_13
REMARK    7  A    between atoms: C_19  and  OXT_21
REMARK    8  A    between atoms: C_23  and  C_24
REMARK    9  A    between atoms: C_28  and  O_29
REMARK                            x       y       z     vdW  Elec       q    Type
REMARK                         _______ _______ _______ _____ _____    ______ ____
ROOT
ATOM      1  C   UNK A   0      -5.219  12.995  19.697  0.00  0.00    +0.000 A 
ATOM      2  S   UNK A   0      -5.741  12.288  18.224  0.00  0.00    +0.000 S 
ATOM      3  C   UNK A   0      -4.279  11.462  18.014  0.00  0.00    +0.000 A 
ATOM      4  N   UNK A   0      -4.161  10.592  16.999  0.00  0.00    +0.000 NA
ATOM      5  C   UNK A   0      -2.985   9.973  17.005  0.00  0.00    +0.000 A 
ATOM      6  N   UNK A   0      -1.964  10.181  17.845  0.00  0.00    +0.000 NA
ATOM      7  C   UNK A   0      -2.059  11.158  18.775  0.00  0.00    +0.000 A 
ATOM      8  N   PHE A   1      -0.912  11.543  19.429  0.00  0.00    +0.000 N 
ATOM      9  C   UNK A   0      -3.316  11.796  18.954  0.00  0.00    +0.000 A 
ATOM     10  C   UNK A   0      -3.869  12.727  19.943  0.00  0.00    +0.000 A 
ATOM     11  H   PHE A   1      -0.934  12.429  19.929  0.00  0.00    +0.000 HD
ENDROOT
BRANCH  10  12
ATOM     12  C   UNK A   0      -3.202  13.216  21.160  0.00  0.00    +0.000 A 
ATOM     13  C   UNK A   0      -3.214  12.476  22.351  0.00  0.00    +0.000 A 
ATOM     14  C   UNK A   0      -2.560  12.945  23.494  0.00  0.00    +0.000 A 
ATOM     15  C   UNK A   0      -1.930  14.189  23.478  0.00  0.00    +0.000 A 
ATOM     16  C   UNK A   0      -1.916  14.926  22.301  0.00  0.00    +0.000 A 
ATOM     17  C   UNK A   0      -2.520  14.440  21.145  0.00  0.00    +0.000 A 
BRANCH  16  18
ATOM     18  O   UNK A   0      -1.308  16.146  22.229  0.00  0.00    +0.000 OA
ATOM     19  H   UNK A   0      -0.776  16.172  21.416  0.00  0.00    +0.000 HD
ENDBRANCH  16  18
ENDBRANCH  10  12
BRANCH   1  21
ATOM     20  C   UNK A   0      -7.236  12.830  21.206  0.00  0.00    +0.000 C 
ATOM     21  C   UNK A   0      -6.258  13.753  20.492  0.00  0.00    +0.000 C 
ENDBRANCH   1  21
BRANCH   8  22
ATOM     22  CA  PHE A   1       0.159  10.632  19.871  0.00  0.00    +0.000 C 
BRANCH  22  23
ATOM     23  C   PHE A   1       0.798  11.244  21.149  0.00  0.00    +0.000 C 
ATOM     24  O   PHE A   1       1.542  12.220  21.147  0.00  0.00    +0.000 OA
BRANCH  23  25
ATOM     25  OXT PHE A   1       0.445  10.643  22.315  0.00  0.00    +0.000 OA
ATOM     26  HXT PHE A   1      -0.395  10.157  22.292  0.00  0.00    +0.000 HD
ENDBRANCH  23  25
ENDBRANCH  22  23
BRANCH  22  27
ATOM     27  CB  PHE A   1       1.231  10.360  18.795  0.00  0.00    +0.000 C 
BRANCH  27  28
ATOM     28  CG  PHE A   1       1.735   8.936  18.818  0.00  0.00    +0.000 A 
ATOM     29  CD1 PHE A   1       1.561   8.139  19.957  0.00  0.00    +0.000 A 
ATOM     30  CE1 PHE A   1       2.171   6.899  20.043  0.00  0.00    +0.000 A 
ATOM     31  CZ  PHE A   1       2.959   6.426  18.994  0.00  0.00    +0.000 A 
ATOM     32  CE2 PHE A   1       3.095   7.187  17.835  0.00  0.00    +0.000 A 
ATOM     33  CD2 PHE A   1       2.478   8.434  17.745  0.00  0.00    +0.000 A 
ENDBRANCH  27  28
ENDBRANCH  22  27
ENDBRANCH   8  22
TORSDOF 8
ENDMDL
