MODEL 1
REMARK VINA RESULT:      -6.5      0.000      0.000
REMARK  Name = 
REMARK  4 active torsions:
REMARK  status: ('A' for Active; 'I' for Inactive)
REMARK    1  A    between atoms: O_1  and  C_2
REMARK    2  A    between atoms: C_2  and  C_3
REMARK    3  A    between atoms: C_4  and  C_5
REMARK    4  A    between atoms: C_8  and  C_9
REMARK                            x       y       z     vdW  Elec       q    Type
REMARK                         _______ _______ _______ _____ _____    ______ ____
ROOT
ATOM      1  C   UNL     1       4.065   4.137  17.114  0.00  0.00    +0.000 A 
ATOM      2  N   UNL     1       3.745   2.848  17.383  0.00  0.00    +0.000 NA
ATOM      3  C   UNL     1       2.792   2.630  18.319  0.00  0.00    +0.000 A 
ATOM      4  C   UNL     1       2.137   3.640  19.007  0.00  0.00    +0.000 A 
ATOM      5  C   UNL     1       2.503   4.964  18.722  0.00  0.00    +0.000 A 
ATOM      6  C   UNL     1       3.481   5.223  17.762  0.00  0.00    +0.000 A 
ATOM      7 CL   UNL     1       3.909   6.860  17.431  0.00  0.00    +0.000 Cl
ENDROOT
BRANCH   4   8
ATOM      8  C   UNL     1       1.071   3.317  20.008  0.00  0.00    +0.000 C 
ATOM      9  F   UNL     1       0.474   4.418  20.543  0.00  0.00    +0.000 F 
ATOM     10  F   UNL     1       0.066   2.569  19.476  0.00  0.00    +0.000 F 
ATOM     11  F   UNL     1       1.550   2.604  21.064  0.00  0.00    +0.000 F 
ENDBRANCH   4   8
BRANCH   1  13
ATOM     12  C   UNL     1       5.846   4.432  15.196  0.00  0.00    +0.000 C 
ATOM     13  C   UNL     1       5.041   4.284  16.077  0.00  0.00    +0.000 C 
BRANCH  12  14
ATOM     14  C   UNL     1       6.817   4.631  14.125  0.00  0.00    +0.000 C 
BRANCH  14  15
ATOM     15  O   UNL     1       7.844   5.503  14.572  0.00  0.00    +0.000 OA
ATOM     16  H   UNL     1       7.630   6.385  14.227  0.00  0.00    +0.000 HD
ENDBRANCH  14  15
ENDBRANCH  12  14
ENDBRANCH   1  13
TORSDOF 4
ENDMDL
MODEL 2
REMARK VINA RESULT:      -6.5      1.067      1.453
REMARK  Name = 
REMARK  4 active torsions:
REMARK  status: ('A' for Active; 'I' for Inactive)
REMARK    1  A    between atoms: O_1  and  C_2
REMARK    2  A    between atoms: C_2  and  C_3
REMARK    3  A    between atoms: C_4  and  C_5
REMARK    4  A    between atoms: C_8  and  C_9
REMARK                            x       y       z     vdW  Elec       q    Type
REMARK                         _______ _______ _______ _____ _____    ______ ____
ROOT
ATOM      1  C   UNL     1       4.175   4.056  17.354  0.00  0.00    +0.000 A 
ATOM      2  N   UNL     1       3.009   3.446  17.032  0.00  0.00    +0.000 NA
ATOM      3  C   UNL     1       2.086   3.318  18.013  0.00  0.00    +0.000 A 
ATOM      4  C   UNL     1       2.269   3.768  19.312  0.00  0.00    +0.000 A 
ATOM      5  C   UNL     1       3.494   4.377  19.622  0.00  0.00    +0.000 A 
ATOM      6  C   UNL     1       4.466   4.526  18.633  0.00  0.00    +0.000 A 
ATOM      7 CL   UNL     1       5.960   5.281  19.042  0.00  0.00    +0.000 Cl
ENDROOT
BRANCH   4   8
ATOM      8  C   UNL     1       1.186   3.615  20.335  0.00  0.00    +0.000 C 
ATOM      9  F   UNL     1       0.139   2.854  19.910  0.00  0.00    +0.000 F 
ATOM     10  F   UNL     1       1.630   3.031  21.481  0.00  0.00    +0.000 F 
ATOM     11  F   UNL     1       0.651   4.809  20.707  0.00  0.00    +0.000 F 
ENDBRANCH   4   8
BRANCH   1  13
ATOM     12  C   UNL     1       5.829   4.351  15.327  0.00  0.00    +0.000 C 
ATOM     13  C   UNL     1       5.075   4.199  16.250  0.00  0.00    +0.000 C 
BRANCH  12  14
ATOM     14  C   UNL     1       6.751   4.552  14.213  0.00  0.00    +0.000 C 
BRANCH  14  15
ATOM     15  O   UNL     1       7.751   5.487  14.588  0.00  0.00    +0.000 OA
ATOM     16  H   UNL     1       8.473   4.978  14.989  0.00  0.00    +0.000 HD
ENDBRANCH  14  15
ENDBRANCH  12  14
ENDBRANCH   1  13
TORSDOF 4
ENDMDL
MODEL 3
REMARK VINA RESULT:      -6.4      0.623      1.253
REMARK  Name = 
REMARK  4 active torsions:
REMARK  status: ('A' for Active; 'I' for Inactive)
REMARK    1  A    between atoms: O_1  and  C_2
REMARK    2  A    between atoms: C_2  and  C_3
REMARK    3  A    between atoms: C_4  and  C_5
REMARK    4  A    between atoms: C_8  and  C_9
REMARK                            x       y       z     vdW  Elec       q    Type
REMARK                         _______ _______ _______ _____ _____    ______ ____
ROOT
ATOM      1  C   UNL     1       4.194   4.328  17.355  0.00  0.00    +0.000 A 
ATOM      2  N   UNL     1       3.983   3.057  17.772  0.00  0.00    +0.000 NA
ATOM      3  C   UNL     1       3.138   2.881  18.814  0.00  0.00    +0.000 A 
ATOM      4  C   UNL     1       2.489   3.917  19.469  0.00  0.00    +0.000 A 
ATOM      5  C   UNL     1       2.743   5.224  19.029  0.00  0.00    +0.000 A 
ATOM      6  C   UNL     1       3.608   5.440  17.956  0.00  0.00    +0.000 A 
ATOM      7 CL   UNL     1       3.899   7.057  17.435  0.00  0.00    +0.000 Cl
ENDROOT
BRANCH   4   8
ATOM      8  C   UNL     1       1.544   3.636  20.597  0.00  0.00    +0.000 C 
ATOM      9  F   UNL     1       1.245   2.316  20.741  0.00  0.00    +0.000 F 
ATOM     10  F   UNL     1       2.035   4.041  21.800  0.00  0.00    +0.000 F 
ATOM     11  F   UNL     1       0.352   4.274  20.446  0.00  0.00    +0.000 F 
ENDBRANCH   4   8
BRANCH   1  13
ATOM     12  C   UNL     1       5.760   4.495  15.244  0.00  0.00    +0.000 C 
ATOM     13  C   UNL     1       5.058   4.426  16.217  0.00  0.00    +0.000 C 
BRANCH  12  14
ATOM     14  C   UNL     1       6.596   4.581  14.050  0.00  0.00    +0.000 C 
BRANCH  14  15
ATOM     15  O   UNL     1       7.734   5.383  14.325  0.00  0.00    +0.000 OA
ATOM     16  H   UNL     1       7.597   6.228  13.869  0.00  0.00    +0.000 HD
ENDBRANCH  14  15
ENDBRANCH  12  14
ENDBRANCH   1  13
TORSDOF 4
ENDMDL
MODEL 4
REMARK VINA RESULT:      -6.4      1.034      1.191
REMARK  Name = 
REMARK  4 active torsions:
REMARK  status: ('A' for Active; 'I' for Inactive)
REMARK    1  A    between atoms: O_1  and  C_2
REMARK    2  A    between atoms: C_2  and  C_3
REMARK    3  A    between atoms: C_4  and  C_5
REMARK    4  A    between atoms: C_8  and  C_9
REMARK                            x       y       z     vdW  Elec       q    Type
REMARK                         _______ _______ _______ _____ _____    ______ ____
ROOT
ATOM      1  C   UNL     1       4.194   4.146  17.252  0.00  0.00    +0.000 A 
ATOM      2  N   UNL     1       3.889   2.894  17.669  0.00  0.00    +0.000 NA
ATOM      3  C   UNL     1       3.069   2.781  18.739  0.00  0.00    +0.000 A 
ATOM      4  C   UNL     1       2.535   3.862  19.424  0.00  0.00    +0.000 A 
ATOM      5  C   UNL     1       2.884   5.147  18.982  0.00  0.00    +0.000 A 
ATOM      6  C   UNL     1       3.726   5.298  17.881  0.00  0.00    +0.000 A 
ATOM      7 CL   UNL     1       4.137   6.889  17.360  0.00  0.00    +0.000 Cl
ENDROOT
BRANCH   4   8
ATOM      8  C   UNL     1       1.610   3.653  20.583  0.00  0.00    +0.000 C 
ATOM      9  F   UNL     1       2.125   4.069  21.773  0.00  0.00    +0.000 F 
ATOM     10  F   UNL     1       0.431   4.316  20.435  0.00  0.00    +0.000 F 
ATOM     11  F   UNL     1       1.283   2.344  20.756  0.00  0.00    +0.000 F 
ENDBRANCH   4   8
BRANCH   1  13
ATOM     12  C   UNL     1       5.693   4.220  15.089  0.00  0.00    +0.000 C 
ATOM     13  C   UNL     1       5.022   4.179  16.085  0.00  0.00    +0.000 C 
BRANCH  12  14
ATOM     14  C   UNL     1       6.498   4.284  13.872  0.00  0.00    +0.000 C 
BRANCH  14  15
ATOM     15  O   UNL     1       6.290   3.108  13.104  0.00  0.00    +0.000 OA
ATOM     16  H   UNL     1       6.009   2.417  13.724  0.00  0.00    +0.000 HD
ENDBRANCH  14  15
ENDBRANCH  12  14
ENDBRANCH   1  13
TORSDOF 4
ENDMDL
MODEL 5
REMARK VINA RESULT:      -6.3      1.467      1.527
REMARK  Name = 
REMARK  4 active torsions:
REMARK  status: ('A' for Active; 'I' for Inactive)
REMARK    1  A    between atoms: O_1  and  C_2
REMARK    2  A    between atoms: C_2  and  C_3
REMARK    3  A    between atoms: C_4  and  C_5
REMARK    4  A    between atoms: C_8  and  C_9
REMARK                            x       y       z     vdW  Elec       q    Type
REMARK                         _______ _______ _______ _____ _____    ______ ____
ROOT
ATOM      1  C   UNL     1       4.230   4.040  17.357  0.00  0.00    +0.000 A 
ATOM      2  N   UNL     1       3.014   3.478  17.151  0.00  0.00    +0.000 NA
ATOM      3  C   UNL     1       2.193   3.369  18.220  0.00  0.00    +0.000 A 
ATOM      4  C   UNL     1       2.525   3.794  19.498  0.00  0.00    +0.000 A 
ATOM      5  C   UNL     1       3.797   4.353  19.686  0.00  0.00    +0.000 A 
ATOM      6  C   UNL     1       4.668   4.481  18.604  0.00  0.00    +0.000 A 
ATOM      7 CL   UNL     1       6.224   5.175  18.865  0.00  0.00    +0.000 Cl
ENDROOT
BRANCH   4   8
ATOM      8  C   UNL     1       1.547   3.665  20.625  0.00  0.00    +0.000 C 
ATOM      9  F   UNL     1       0.436   4.437  20.472  0.00  0.00    +0.000 F 
ATOM     10  F   UNL     1       1.099   2.391  20.783  0.00  0.00    +0.000 F 
ATOM     11  F   UNL     1       2.087   4.023  21.822  0.00  0.00    +0.000 F 
ENDBRANCH   4   8
BRANCH   1  13
ATOM     12  C   UNL     1       5.683   4.241  15.171  0.00  0.00    +0.000 C 
ATOM     13  C   UNL     1       5.016   4.166  16.168  0.00  0.00    +0.000 C 
BRANCH  12  14
ATOM     14  C   UNL     1       6.491   4.314  13.956  0.00  0.00    +0.000 C 
BRANCH  14  15
ATOM     15  O   UNL     1       6.286   3.143  13.180  0.00  0.00    +0.000 OA
ATOM     16  H   UNL     1       5.535   3.325  12.593  0.00  0.00    +0.000 HD
ENDBRANCH  14  15
ENDBRANCH  12  14
ENDBRANCH   1  13
TORSDOF 4
ENDMDL
MODEL 6
REMARK VINA RESULT:      -6.3      1.448      1.673
REMARK  Name = 
REMARK  4 active torsions:
REMARK  status: ('A' for Active; 'I' for Inactive)
REMARK    1  A    between atoms: O_1  and  C_2
REMARK    2  A    between atoms: C_2  and  C_3
REMARK    3  A    between atoms: C_4  and  C_5
REMARK    4  A    between atoms: C_8  and  C_9
REMARK                            x       y       z     vdW  Elec       q    Type
REMARK                         _______ _______ _______ _____ _____    ______ ____
ROOT
ATOM      1  C   UNL     1       4.222   4.143  17.365  0.00  0.00    +0.000 A 
ATOM      2  N   UNL     1       3.024   3.529  17.212  0.00  0.00    +0.000 NA
ATOM      3  C   UNL     1       2.213   3.478  18.293  0.00  0.00    +0.000 A 
ATOM      4  C   UNL     1       2.539   4.009  19.532  0.00  0.00    +0.000 A 
ATOM      5  C   UNL     1       3.793   4.621  19.666  0.00  0.00    +0.000 A 
ATOM      6  C   UNL     1       4.653   4.692  18.571  0.00  0.00    +0.000 A 
ATOM      7 CL   UNL     1       6.188   5.451  18.765  0.00  0.00    +0.000 Cl
ENDROOT
BRANCH   4   8
ATOM      8  C   UNL     1       1.572   3.938  20.674  0.00  0.00    +0.000 C 
ATOM      9  F   UNL     1       2.174   3.847  21.892  0.00  0.00    +0.000 F 
ATOM     10  F   UNL     1       0.760   5.028  20.738  0.00  0.00    +0.000 F 
ATOM     11  F   UNL     1       0.745   2.861  20.586  0.00  0.00    +0.000 F 
ENDBRANCH   4   8
BRANCH   1  13
ATOM     12  C   UNL     1       5.675   4.254  15.172  0.00  0.00    +0.000 C 
ATOM     13  C   UNL     1       4.998   4.201  16.163  0.00  0.00    +0.000 C 
BRANCH  12  14
ATOM     14  C   UNL     1       6.514   4.313  13.978  0.00  0.00    +0.000 C 
BRANCH  14  15
ATOM     15  O   UNL     1       6.283   3.163  13.178  0.00  0.00    +0.000 OA
ATOM     16  H   UNL     1       6.690   2.415  13.643  0.00  0.00    +0.000 HD
ENDBRANCH  14  15
ENDBRANCH  12  14
ENDBRANCH   1  13
TORSDOF 4
ENDMDL
MODEL 7
REMARK VINA RESULT:      -6.3      1.052      1.203
REMARK  Name = 
REMARK  4 active torsions:
REMARK  status: ('A' for Active; 'I' for Inactive)
REMARK    1  A    between atoms: O_1  and  C_2
REMARK    2  A    between atoms: C_2  and  C_3
REMARK    3  A    between atoms: C_4  and  C_5
REMARK    4  A    between atoms: C_8  and  C_9
REMARK                            x       y       z     vdW  Elec       q    Type
REMARK                         _______ _______ _______ _____ _____    ______ ____
ROOT
ATOM      1  C   UNL     1       4.235   4.196  17.241  0.00  0.00    +0.000 A 
ATOM      2  N   UNL     1       3.920   2.950  17.669  0.00  0.00    +0.000 NA
ATOM      3  C   UNL     1       3.093   2.853  18.735  0.00  0.00    +0.000 A 
ATOM      4  C   UNL     1       2.560   3.945  19.404  0.00  0.00    +0.000 A 
ATOM      5  C   UNL     1       2.920   5.222  18.951  0.00  0.00    +0.000 A 
ATOM      6  C   UNL     1       3.770   5.357  17.854  0.00  0.00    +0.000 A 
ATOM      7 CL   UNL     1       4.193   6.940  17.318  0.00  0.00    +0.000 Cl
ENDROOT
BRANCH   4   8
ATOM      8  C   UNL     1       1.626   3.754  20.559  0.00  0.00    +0.000 C 
ATOM      9  F   UNL     1       0.339   4.105  20.283  0.00  0.00    +0.000 F 
ATOM     10  F   UNL     1       1.577   2.461  20.982  0.00  0.00    +0.000 F 
ATOM     11  F   UNL     1       1.987   4.489  21.645  0.00  0.00    +0.000 F 
ENDBRANCH   4   8
BRANCH   1  13
ATOM     12  C   UNL     1       5.749   4.236  15.087  0.00  0.00    +0.000 C 
ATOM     13  C   UNL     1       5.071   4.212  16.079  0.00  0.00    +0.000 C 
BRANCH  12  14
ATOM     14  C   UNL     1       6.560   4.278  13.873  0.00  0.00    +0.000 C 
BRANCH  14  15
ATOM     15  O   UNL     1       6.241   3.166  13.051  0.00  0.00    +0.000 OA
ATOM     16  H   UNL     1       5.922   3.525  12.207  0.00  0.00    +0.000 HD
ENDBRANCH  14  15
ENDBRANCH  12  14
ENDBRANCH   1  13
TORSDOF 4
ENDMDL
MODEL 8
REMARK VINA RESULT:      -6.2      1.391      1.540
REMARK  Name = 
REMARK  4 active torsions:
REMARK  status: ('A' for Active; 'I' for Inactive)
REMARK    1  A    between atoms: O_1  and  C_2
REMARK    2  A    between atoms: C_2  and  C_3
REMARK    3  A    between atoms: C_4  and  C_5
REMARK    4  A    between atoms: C_8  and  C_9
REMARK                            x       y       z     vdW  Elec       q    Type
REMARK                         _______ _______ _______ _____ _____    ______ ____
ROOT
ATOM      1  C   UNL     1       4.417   4.563  17.385  0.00  0.00    +0.000 A 
ATOM      2  N   UNL     1       3.180   4.026  17.259  0.00  0.00    +0.000 NA
ATOM      3  C   UNL     1       2.359   4.105  18.331  0.00  0.00    +0.000 A 
ATOM      4  C   UNL     1       2.712   4.696  19.535  0.00  0.00    +0.000 A 
ATOM      5  C   UNL     1       4.006   5.225  19.644  0.00  0.00    +0.000 A 
ATOM      6  C   UNL     1       4.877   5.162  18.556  0.00  0.00    +0.000 A 
ATOM      7 CL   UNL     1       6.460   5.823  18.718  0.00  0.00    +0.000 Cl
ENDROOT
BRANCH   4   8
ATOM      8  C   UNL     1       1.734   4.770  20.667  0.00  0.00    +0.000 C 
ATOM      9  F   UNL     1       1.573   6.027  21.166  0.00  0.00    +0.000 F 
ATOM     10  F   UNL     1       0.491   4.348  20.310  0.00  0.00    +0.000 F 
ATOM     11  F   UNL     1       2.104   3.995  21.723  0.00  0.00    +0.000 F 
ENDBRANCH   4   8
BRANCH   1  13
ATOM     12  C   UNL     1       5.850   4.446  15.179  0.00  0.00    +0.000 C 
ATOM     13  C   UNL     1       5.204   4.486  16.192  0.00  0.00    +0.000 C 
BRANCH  12  14
ATOM     14  C   UNL     1       6.633   4.418  13.947  0.00  0.00    +0.000 C 
BRANCH  14  15
ATOM     15  O   UNL     1       7.693   5.357  14.036  0.00  0.00    +0.000 OA
ATOM     16  H   UNL     1       8.493   4.906  13.722  0.00  0.00    +0.000 HD
ENDBRANCH  14  15
ENDBRANCH  12  14
ENDBRANCH   1  13
TORSDOF 4
ENDMDL
MODEL 9
REMARK VINA RESULT:      -6.1      5.453      6.585
REMARK  Name = 
REMARK  4 active torsions:
REMARK  status: ('A' for Active; 'I' for Inactive)
REMARK    1  A    between atoms: O_1  and  C_2
REMARK    2  A    between atoms: C_2  and  C_3
REMARK    3  A    between atoms: C_4  and  C_5
REMARK    4  A    between atoms: C_8  and  C_9
REMARK                            x       y       z     vdW  Elec       q    Type
REMARK                         _______ _______ _______ _____ _____    ______ ____
ROOT
ATOM      1  C   UNL     1       6.797   4.766  16.119  0.00  0.00    +0.000 A 
ATOM      2  N   UNL     1       7.604   5.087  15.079  0.00  0.00    +0.000 NA
ATOM      3  C   UNL     1       7.236   4.649  13.853  0.00  0.00    +0.000 A 
ATOM      4  C   UNL     1       6.096   3.898  13.608  0.00  0.00    +0.000 A 
ATOM      5  C   UNL     1       5.291   3.563  14.706  0.00  0.00    +0.000 A 
ATOM      6  C   UNL     1       5.641   4.001  15.984  0.00  0.00    +0.000 A 
ATOM      7 CL   UNL     1       4.630   3.576  17.314  0.00  0.00    +0.000 Cl
ENDROOT
BRANCH   4   8
ATOM      8  C   UNL     1       5.742   3.475  12.215  0.00  0.00    +0.000 C 
ATOM      9  F   UNL     1       4.463   3.782  11.862  0.00  0.00    +0.000 F 
ATOM     10  F   UNL     1       6.538   4.055  11.277  0.00  0.00    +0.000 F 
ATOM     11  F   UNL     1       5.867   2.133  12.034  0.00  0.00    +0.000 F 
ENDBRANCH   4   8
BRANCH   1  13
ATOM     12  C   UNL     1       7.611   5.747  18.423  0.00  0.00    +0.000 C 
ATOM     13  C   UNL     1       7.226   5.311  17.371  0.00  0.00    +0.000 C 
BRANCH  12  14
ATOM     14  C   UNL     1       8.097   6.271  19.696  0.00  0.00    +0.000 C 
BRANCH  14  15
ATOM     15  O   UNL     1       8.181   5.217  20.642  0.00  0.00    +0.000 OA
ATOM     16  H   UNL     1       7.737   4.450  20.246  0.00  0.00    +0.000 HD
ENDBRANCH  14  15
ENDBRANCH  12  14
ENDBRANCH   1  13
TORSDOF 4
ENDMDL
