MODEL 1
REMARK VINA RESULT:      -8.0      0.000      0.000
REMARK  Name = 
REMARK  3 active torsions:
REMARK  status: ('A' for Active; 'I' for Inactive)
REMARK    1  A    between atoms: C_2  and  C_15
REMARK    2  A    between atoms: N_3  and  N_4
REMARK    3  A    between atoms: C_19  and  O_20
REMARK                            x       y       z     vdW  Elec       q    Type
REMARK                         _______ _______ _______ _____ _____    ______ ____
ROOT
ATOM      1  O   UNL     1       1.178   5.264  20.600  0.00  0.00    +0.000 OA
ATOM      2  C   UNL     1       2.057   5.828  19.952  0.00  0.00    +0.000 C 
ATOM      3  N   UNL     1       2.311   7.195  19.990  0.00  0.00    +0.000 N 
ATOM      4  H   UNL     1       2.980   7.642  19.374  0.00  0.00    +0.000 HD
ENDROOT
BRANCH   3   5
ATOM      5  N   UNL     1       1.523   7.930  20.808  0.00  0.00    +0.000 NA
ATOM      6  C   UNL     1       0.976   9.028  20.414  0.00  0.00    +0.000 C 
ATOM      7  C   UNL     1       1.045   9.740  19.090  0.00  0.00    +0.000 C 
ATOM      8  C   UNL     1       0.226  10.995  19.331  0.00  0.00    +0.000 C 
ATOM      9  O   UNL     1       0.012  11.891  18.535  0.00  0.00    +0.000 OA
ATOM     10  C   UNL     1      -0.289  10.965  20.702  0.00  0.00    +0.000 A 
ATOM     11  C   UNL     1      -1.078  11.885  21.368  0.00  0.00    +0.000 A 
ATOM     12  C   UNL     1      -1.432  11.599  22.693  0.00  0.00    +0.000 A 
ATOM     13  C   UNL     1      -0.997  10.414  23.318  0.00  0.00    +0.000 A 
ATOM     14  C   UNL     1      -0.196   9.502  22.632  0.00  0.00    +0.000 A 
ATOM     15  C   UNL     1       0.142   9.806  21.325  0.00  0.00    +0.000 A 
ENDBRANCH   3   5
BRANCH   2  16
ATOM     16  C   UNL     1       2.891   5.009  19.042  0.00  0.00    +0.000 A 
ATOM     17  C   UNL     1       2.229   4.257  18.058  0.00  0.00    +0.000 A 
ATOM     18  C   UNL     1       2.949   3.418  17.208  0.00  0.00    +0.000 A 
ATOM     19  C   UNL     1       4.331   3.312  17.348  0.00  0.00    +0.000 A 
ATOM     20  C   UNL     1       4.979   4.050  18.337  0.00  0.00    +0.000 A 
ATOM     21  C   UNL     1       4.276   4.905  19.183  0.00  0.00    +0.000 A 
BRANCH  20  22
ATOM     22  O   UNL     1       6.326   3.943  18.527  0.00  0.00    +0.000 OA
ATOM     23  H   UNL     1       6.523   3.041  18.835  0.00  0.00    +0.000 HD
ENDBRANCH  20  22
ENDBRANCH   2  16
TORSDOF 3
ENDMDL
MODEL 2
REMARK VINA RESULT:      -7.8      1.355      1.389
REMARK  Name = 
REMARK  3 active torsions:
REMARK  status: ('A' for Active; 'I' for Inactive)
REMARK    1  A    between atoms: C_2  and  C_15
REMARK    2  A    between atoms: N_3  and  N_4
REMARK    3  A    between atoms: C_19  and  O_20
REMARK                            x       y       z     vdW  Elec       q    Type
REMARK                         _______ _______ _______ _____ _____    ______ ____
ROOT
ATOM      1  O   UNL     1       0.506   4.597  20.579  0.00  0.00    +0.000 OA
ATOM      2  C   UNL     1       1.659   4.853  20.238  0.00  0.00    +0.000 C 
ATOM      3  N   UNL     1       2.301   6.065  20.474  0.00  0.00    +0.000 N 
ATOM      4  H   UNL     1       3.218   6.276  20.098  0.00  0.00    +0.000 HD
ENDROOT
BRANCH   3   5
ATOM      5  N   UNL     1       1.585   7.007  21.128  0.00  0.00    +0.000 NA
ATOM      6  C   UNL     1       1.306   8.142  20.586  0.00  0.00    +0.000 C 
ATOM      7  C   UNL     1       1.655   8.697  19.232  0.00  0.00    +0.000 C 
ATOM      8  C   UNL     1       1.072  10.097  19.272  0.00  0.00    +0.000 C 
ATOM      9  O   UNL     1       1.123  10.935  18.390  0.00  0.00    +0.000 OA
ATOM     10  C   UNL     1       0.414  10.296  20.566  0.00  0.00    +0.000 A 
ATOM     11  C   UNL     1      -0.252  11.405  21.056  0.00  0.00    +0.000 A 
ATOM     12  C   UNL     1      -0.797  11.319  22.344  0.00  0.00    +0.000 A 
ATOM     13  C   UNL     1      -0.669  10.142  23.107  0.00  0.00    +0.000 A 
ATOM     14  C   UNL     1       0.011   9.036  22.597  0.00  0.00    +0.000 A 
ATOM     15  C   UNL     1       0.543   9.144  21.324  0.00  0.00    +0.000 A 
ENDBRANCH   3   5
BRANCH   2  16
ATOM     16  C   UNL     1       2.417   3.817  19.499  0.00  0.00    +0.000 A 
ATOM     17  C   UNL     1       1.947   3.454  18.227  0.00  0.00    +0.000 A 
ATOM     18  C   UNL     1       2.577   2.443  17.502  0.00  0.00    +0.000 A 
ATOM     19  C   UNL     1       3.669   1.776  18.053  0.00  0.00    +0.000 A 
ATOM     20  C   UNL     1       4.122   2.131  19.323  0.00  0.00    +0.000 A 
ATOM     21  C   UNL     1       3.513   3.151  20.052  0.00  0.00    +0.000 A 
BRANCH  20  22
ATOM     22  O   UNL     1       5.165   1.476  19.908  0.00  0.00    +0.000 OA
ATOM     23  H   UNL     1       5.283   1.825  20.808  0.00  0.00    +0.000 HD
ENDBRANCH  20  22
ENDBRANCH   2  16
TORSDOF 3
ENDMDL
MODEL 3
REMARK VINA RESULT:      -7.7      1.070      1.230
REMARK  Name = 
REMARK  3 active torsions:
REMARK  status: ('A' for Active; 'I' for Inactive)
REMARK    1  A    between atoms: C_2  and  C_15
REMARK    2  A    between atoms: N_3  and  N_4
REMARK    3  A    between atoms: C_19  and  O_20
REMARK                            x       y       z     vdW  Elec       q    Type
REMARK                         _______ _______ _______ _____ _____    ______ ____
ROOT
ATOM      1  O   UNL     1       1.142   5.060  20.653  0.00  0.00    +0.000 OA
ATOM      2  C   UNL     1       2.022   5.593  19.980  0.00  0.00    +0.000 C 
ATOM      3  N   UNL     1       2.307   6.955  19.992  0.00  0.00    +0.000 N 
ATOM      4  H   UNL     1       2.976   7.376  19.358  0.00  0.00    +0.000 HD
ENDROOT
BRANCH   3   5
ATOM      5  N   UNL     1       1.550   7.721  20.810  0.00  0.00    +0.000 NA
ATOM      6  C   UNL     1       1.052   8.843  20.417  0.00  0.00    +0.000 C 
ATOM      7  C   UNL     1       1.156   9.555  19.095  0.00  0.00    +0.000 C 
ATOM      8  C   UNL     1       0.392  10.843  19.338  0.00  0.00    +0.000 C 
ATOM      9  O   UNL     1       0.219  11.750  18.544  0.00  0.00    +0.000 OA
ATOM     10  C   UNL     1      -0.129  10.832  20.708  0.00  0.00    +0.000 A 
ATOM     11  C   UNL     1      -0.879  11.783  21.373  0.00  0.00    +0.000 A 
ATOM     12  C   UNL     1      -1.249  11.509  22.697  0.00  0.00    +0.000 A 
ATOM     13  C   UNL     1      -0.868  10.305  23.320  0.00  0.00    +0.000 A 
ATOM     14  C   UNL     1      -0.105   9.361  22.633  0.00  0.00    +0.000 A 
ATOM     15  C   UNL     1       0.250   9.653  21.328  0.00  0.00    +0.000 A 
ENDBRANCH   3   5
BRANCH   2  16
ATOM     16  C   UNL     1       2.822   4.740  19.071  0.00  0.00    +0.000 A 
ATOM     17  C   UNL     1       3.575   5.382  18.075  0.00  0.00    +0.000 A 
ATOM     18  C   UNL     1       4.302   4.636  17.148  0.00  0.00    +0.000 A 
ATOM     19  C   UNL     1       4.267   3.245  17.201  0.00  0.00    +0.000 A 
ATOM     20  C   UNL     1       3.507   2.613  18.184  0.00  0.00    +0.000 A 
ATOM     21  C   UNL     1       2.788   3.345  19.128  0.00  0.00    +0.000 A 
BRANCH  20  22
ATOM     22  O   UNL     1       3.420   1.253  18.243  0.00  0.00    +0.000 OA
ATOM     23  H   UNL     1       2.545   0.985  17.912  0.00  0.00    +0.000 HD
ENDBRANCH  20  22
ENDBRANCH   2  16
TORSDOF 3
ENDMDL
MODEL 4
REMARK VINA RESULT:      -7.7      1.644      8.044
REMARK  Name = 
REMARK  3 active torsions:
REMARK  status: ('A' for Active; 'I' for Inactive)
REMARK    1  A    between atoms: C_2  and  C_15
REMARK    2  A    between atoms: N_3  and  N_4
REMARK    3  A    between atoms: C_19  and  O_20
REMARK                            x       y       z     vdW  Elec       q    Type
REMARK                         _______ _______ _______ _____ _____    ______ ____
ROOT
ATOM      1  O   UNL     1       1.150   9.390  18.922  0.00  0.00    +0.000 OA
ATOM      2  C   UNL     1       1.134   9.001  20.089  0.00  0.00    +0.000 C 
ATOM      3  N   UNL     1       1.781   7.858  20.548  0.00  0.00    +0.000 N 
ATOM      4  H   UNL     1       1.671   7.515  21.495  0.00  0.00    +0.000 HD
ENDROOT
BRANCH   3   5
ATOM      5  N   UNL     1       2.470   7.146  19.628  0.00  0.00    +0.000 NA
ATOM      6  C   UNL     1       2.375   5.863  19.555  0.00  0.00    +0.000 C 
ATOM      7  C   UNL     1       1.575   4.889  20.377  0.00  0.00    +0.000 C 
ATOM      8  C   UNL     1       1.976   3.543  19.803  0.00  0.00    +0.000 C 
ATOM      9  O   UNL     1       1.588   2.448  20.167  0.00  0.00    +0.000 OA
ATOM     10  C   UNL     1       2.925   3.762  18.707  0.00  0.00    +0.000 A 
ATOM     11  C   UNL     1       3.559   2.842  17.893  0.00  0.00    +0.000 A 
ATOM     12  C   UNL     1       4.426   3.335  16.908  0.00  0.00    +0.000 A 
ATOM     13  C   UNL     1       4.638   4.719  16.758  0.00  0.00    +0.000 A 
ATOM     14  C   UNL     1       3.992   5.631  17.594  0.00  0.00    +0.000 A 
ATOM     15  C   UNL     1       3.143   5.121  18.560  0.00  0.00    +0.000 A 
ENDBRANCH   3   5
BRANCH   2  16
ATOM     16  C   UNL     1       0.351   9.781  21.075  0.00  0.00    +0.000 A 
ATOM     17  C   UNL     1       0.224   9.249  22.368  0.00  0.00    +0.000 A 
ATOM     18  C   UNL     1      -0.549   9.901  23.328  0.00  0.00    +0.000 A 
ATOM     19  C   UNL     1      -1.214  11.079  22.996  0.00  0.00    +0.000 A 
ATOM     20  C   UNL     1      -1.095  11.594  21.706  0.00  0.00    +0.000 A 
ATOM     21  C   UNL     1      -0.313  10.963  20.741  0.00  0.00    +0.000 A 
BRANCH  20  22
ATOM     22  O   UNL     1      -1.761  12.725  21.335  0.00  0.00    +0.000 OA
ATOM     23  H   UNL     1      -1.136  13.471  21.348  0.00  0.00    +0.000 HD
ENDBRANCH  20  22
ENDBRANCH   2  16
TORSDOF 3
ENDMDL
MODEL 5
REMARK VINA RESULT:      -7.7      4.471      6.571
REMARK  Name = 
REMARK  3 active torsions:
REMARK  status: ('A' for Active; 'I' for Inactive)
REMARK    1  A    between atoms: C_2  and  C_15
REMARK    2  A    between atoms: N_3  and  N_4
REMARK    3  A    between atoms: C_19  and  O_20
REMARK                            x       y       z     vdW  Elec       q    Type
REMARK                         _______ _______ _______ _____ _____    ______ ____
ROOT
ATOM      1  O   UNL     1       6.630   4.096  16.864  0.00  0.00    +0.000 OA
ATOM      2  C   UNL     1       5.878   3.990  15.897  0.00  0.00    +0.000 C 
ATOM      3  N   UNL     1       4.550   3.580  15.971  0.00  0.00    +0.000 N 
ATOM      4  H   UNL     1       3.986   3.414  15.146  0.00  0.00    +0.000 HD
ENDROOT
BRANCH   3   5
ATOM      5  N   UNL     1       4.080   3.284  17.204  0.00  0.00    +0.000 NA
ATOM      6  C   UNL     1       3.521   4.177  17.947  0.00  0.00    +0.000 C 
ATOM      7  C   UNL     1       3.263   5.639  17.700  0.00  0.00    +0.000 C 
ATOM      8  C   UNL     1       2.636   6.102  19.002  0.00  0.00    +0.000 C 
ATOM      9  O   UNL     1       2.269   7.230  19.275  0.00  0.00    +0.000 OA
ATOM     10  C   UNL     1       2.529   4.955  19.908  0.00  0.00    +0.000 A 
ATOM     11  C   UNL     1       2.026   4.891  21.194  0.00  0.00    +0.000 A 
ATOM     12  C   UNL     1       2.043   3.646  21.837  0.00  0.00    +0.000 A 
ATOM     13  C   UNL     1       2.553   2.504  21.190  0.00  0.00    +0.000 A 
ATOM     14  C   UNL     1       3.061   2.591  19.893  0.00  0.00    +0.000 A 
ATOM     15  C   UNL     1       3.036   3.830  19.279  0.00  0.00    +0.000 A 
ENDBRANCH   3   5
BRANCH   2  16
ATOM     16  C   UNL     1       6.420   4.293  14.552  0.00  0.00    +0.000 A 
ATOM     17  C   UNL     1       5.871   3.601  13.461  0.00  0.00    +0.000 A 
ATOM     18  C   UNL     1       6.376   3.794  12.176  0.00  0.00    +0.000 A 
ATOM     19  C   UNL     1       7.445   4.665  11.977  0.00  0.00    +0.000 A 
ATOM     20  C   UNL     1       7.995   5.337  13.067  0.00  0.00    +0.000 A 
ATOM     21  C   UNL     1       7.490   5.168  14.354  0.00  0.00    +0.000 A 
BRANCH  20  22
ATOM     22  O   UNL     1       9.065   6.169  12.914  0.00  0.00    +0.000 OA
ATOM     23  H   UNL     1       8.910   6.972  13.441  0.00  0.00    +0.000 HD
ENDBRANCH  20  22
ENDBRANCH   2  16
TORSDOF 3
ENDMDL
MODEL 6
REMARK VINA RESULT:      -7.7      1.353      1.368
REMARK  Name = 
REMARK  3 active torsions:
REMARK  status: ('A' for Active; 'I' for Inactive)
REMARK    1  A    between atoms: C_2  and  C_15
REMARK    2  A    between atoms: N_3  and  N_4
REMARK    3  A    between atoms: C_19  and  O_20
REMARK                            x       y       z     vdW  Elec       q    Type
REMARK                         _______ _______ _______ _____ _____    ______ ____
ROOT
ATOM      1  O   UNL     1       2.339   5.585  20.199  0.00  0.00    +0.000 OA
ATOM      2  C   UNL     1       2.658   6.296  19.247  0.00  0.00    +0.000 C 
ATOM      3  N   UNL     1       2.324   7.640  19.121  0.00  0.00    +0.000 N 
ATOM      4  H   UNL     1       2.522   8.173  18.282  0.00  0.00    +0.000 HD
ENDROOT
BRANCH   3   5
ATOM      5  N   UNL     1       1.602   8.178  20.130  0.00  0.00    +0.000 NA
ATOM      6  C   UNL     1       0.961   9.287  19.988  0.00  0.00    +0.000 C 
ATOM      7  C   UNL     1       0.844  10.209  18.804  0.00  0.00    +0.000 C 
ATOM      8  C   UNL     1       0.000  11.351  19.339  0.00  0.00    +0.000 C 
ATOM      9  O   UNL     1      -0.346  12.349  18.734  0.00  0.00    +0.000 OA
ATOM     10  C   UNL     1      -0.352  11.063  20.732  0.00  0.00    +0.000 A 
ATOM     11  C   UNL     1      -1.103  11.808  21.623  0.00  0.00    +0.000 A 
ATOM     12  C   UNL     1      -1.288  11.286  22.911  0.00  0.00    +0.000 A 
ATOM     13  C   UNL     1      -0.729  10.047  23.277  0.00  0.00    +0.000 A 
ATOM     14  C   UNL     1       0.030   9.314  22.364  0.00  0.00    +0.000 A 
ATOM     15  C   UNL     1       0.202   9.849  21.100  0.00  0.00    +0.000 A 
ENDBRANCH   3   5
BRANCH   2  16
ATOM     16  C   UNL     1       3.426   5.680  18.140  0.00  0.00    +0.000 A 
ATOM     17  C   UNL     1       3.267   4.302  17.929  0.00  0.00    +0.000 A 
ATOM     18  C   UNL     1       4.006   3.648  16.943  0.00  0.00    +0.000 A 
ATOM     19  C   UNL     1       4.920   4.366  16.175  0.00  0.00    +0.000 A 
ATOM     20  C   UNL     1       5.083   5.732  16.400  0.00  0.00    +0.000 A 
ATOM     21  C   UNL     1       4.340   6.402  17.370  0.00  0.00    +0.000 A 
BRANCH  20  22
ATOM     22  O   UNL     1       5.995   6.458  15.692  0.00  0.00    +0.000 OA
ATOM     23  H   UNL     1       6.232   7.246  16.211  0.00  0.00    +0.000 HD
ENDBRANCH  20  22
ENDBRANCH   2  16
TORSDOF 3
ENDMDL
MODEL 7
REMARK VINA RESULT:      -7.6      2.050      2.899
REMARK  Name = 
REMARK  3 active torsions:
REMARK  status: ('A' for Active; 'I' for Inactive)
REMARK    1  A    between atoms: C_2  and  C_15
REMARK    2  A    between atoms: N_3  and  N_4
REMARK    3  A    between atoms: C_19  and  O_20
REMARK                            x       y       z     vdW  Elec       q    Type
REMARK                         _______ _______ _______ _____ _____    ______ ____
ROOT
ATOM      1  O   UNL     1       2.863   6.623  18.494  0.00  0.00    +0.000 OA
ATOM      2  C   UNL     1       2.466   6.283  19.607  0.00  0.00    +0.000 C 
ATOM      3  N   UNL     1       1.807   7.122  20.500  0.00  0.00    +0.000 N 
ATOM      4  H   UNL     1       1.576   6.837  21.444  0.00  0.00    +0.000 HD
ENDROOT
BRANCH   3   5
ATOM      5  N   UNL     1       1.600   8.394  20.089  0.00  0.00    +0.000 NA
ATOM      6  C   UNL     1       0.968   9.247  20.819  0.00  0.00    +0.000 C 
ATOM      7  C   UNL     1       0.340   9.101  22.179  0.00  0.00    +0.000 C 
ATOM      8  C   UNL     1      -0.286  10.464  22.417  0.00  0.00    +0.000 C 
ATOM      9  O   UNL     1      -0.922  10.814  23.393  0.00  0.00    +0.000 OA
ATOM     10  C   UNL     1       0.004  11.322  21.265  0.00  0.00    +0.000 A 
ATOM     11  C   UNL     1      -0.357  12.636  21.032  0.00  0.00    +0.000 A 
ATOM     12  C   UNL     1       0.062  13.222  19.830  0.00  0.00    +0.000 A 
ATOM     13  C   UNL     1       0.826  12.494  18.898  0.00  0.00    +0.000 A 
ATOM     14  C   UNL     1       1.175  11.167  19.149  0.00  0.00    +0.000 A 
ATOM     15  C   UNL     1       0.748  10.608  20.341  0.00  0.00    +0.000 A 
ENDBRANCH   3   5
BRANCH   2  16
ATOM     16  C   UNL     1       2.727   4.893  20.049  0.00  0.00    +0.000 A 
ATOM     17  C   UNL     1       1.923   4.379  21.078  0.00  0.00    +0.000 A 
ATOM     18  C   UNL     1       2.154   3.100  21.583  0.00  0.00    +0.000 A 
ATOM     19  C   UNL     1       3.201   2.335  21.074  0.00  0.00    +0.000 A 
ATOM     20  C   UNL     1       4.004   2.857  20.062  0.00  0.00    +0.000 A 
ATOM     21  C   UNL     1       3.775   4.127  19.536  0.00  0.00    +0.000 A 
BRANCH  20  22
ATOM     22  O   UNL     1       5.061   2.151  19.566  0.00  0.00    +0.000 OA
ATOM     23  H   UNL     1       5.881   2.622  19.794  0.00  0.00    +0.000 HD
ENDBRANCH  20  22
ENDBRANCH   2  16
TORSDOF 3
ENDMDL
MODEL 8
REMARK VINA RESULT:      -7.5      2.056      8.092
REMARK  Name = 
REMARK  3 active torsions:
REMARK  status: ('A' for Active; 'I' for Inactive)
REMARK    1  A    between atoms: C_2  and  C_15
REMARK    2  A    between atoms: N_3  and  N_4
REMARK    3  A    between atoms: C_19  and  O_20
REMARK                            x       y       z     vdW  Elec       q    Type
REMARK                         _______ _______ _______ _____ _____    ______ ____
ROOT
ATOM      1  O   UNL     1       1.938   9.999  17.565  0.00  0.00    +0.000 OA
ATOM      2  C   UNL     1       1.592   9.417  18.591  0.00  0.00    +0.000 C 
ATOM      3  N   UNL     1       2.063   8.169  18.987  0.00  0.00    +0.000 N 
ATOM      4  H   UNL     1       1.690   7.677  19.790  0.00  0.00    +0.000 HD
ENDROOT
BRANCH   3   5
ATOM      5  N   UNL     1       2.966   7.580  18.170  0.00  0.00    +0.000 NA
ATOM      6  C   UNL     1       3.064   6.298  18.082  0.00  0.00    +0.000 C 
ATOM      7  C   UNL     1       2.303   5.205  18.783  0.00  0.00    +0.000 C 
ATOM      8  C   UNL     1       2.965   3.940  18.267  0.00  0.00    +0.000 C 
ATOM      9  O   UNL     1       2.688   2.795  18.572  0.00  0.00    +0.000 OA
ATOM     10  C   UNL     1       4.014   4.313  17.314  0.00  0.00    +0.000 A 
ATOM     11  C   UNL     1       4.877   3.508  16.594  0.00  0.00    +0.000 A 
ATOM     12  C   UNL     1       5.792   4.138  15.740  0.00  0.00    +0.000 A 
ATOM     13  C   UNL     1       5.825   5.541  15.623  0.00  0.00    +0.000 A 
ATOM     14  C   UNL     1       4.950   6.336  16.363  0.00  0.00    +0.000 A 
ATOM     15  C   UNL     1       4.056   5.693  17.201  0.00  0.00    +0.000 A 
ENDBRANCH   3   5
BRANCH   2  16
ATOM     16  C   UNL     1       0.583  10.068  19.459  0.00  0.00    +0.000 A 
ATOM     17  C   UNL     1      -0.465  10.757  18.830  0.00  0.00    +0.000 A 
ATOM     18  C   UNL     1      -1.414  11.443  19.587  0.00  0.00    +0.000 A 
ATOM     19  C   UNL     1      -1.311  11.458  20.976  0.00  0.00    +0.000 A 
ATOM     20  C   UNL     1      -0.260  10.783  21.594  0.00  0.00    +0.000 A 
ATOM     21  C   UNL     1       0.687  10.080  20.852  0.00  0.00    +0.000 A 
BRANCH  20  22
ATOM     22  O   UNL     1      -0.107  10.807  22.949  0.00  0.00    +0.000 OA
ATOM     23  H   UNL     1       0.418  11.591  23.187  0.00  0.00    +0.000 HD
ENDBRANCH  20  22
ENDBRANCH   2  16
TORSDOF 3
ENDMDL
MODEL 9
REMARK VINA RESULT:      -7.5      2.167      2.809
REMARK  Name = 
REMARK  3 active torsions:
REMARK  status: ('A' for Active; 'I' for Inactive)
REMARK    1  A    between atoms: C_2  and  C_15
REMARK    2  A    between atoms: N_3  and  N_4
REMARK    3  A    between atoms: C_19  and  O_20
REMARK                            x       y       z     vdW  Elec       q    Type
REMARK                         _______ _______ _______ _____ _____    ______ ____
ROOT
ATOM      1  O   UNL     1       2.703   8.567  17.101  0.00  0.00    +0.000 OA
ATOM      2  C   UNL     1       2.858   7.770  18.024  0.00  0.00    +0.000 C 
ATOM      3  N   UNL     1       2.179   7.827  19.237  0.00  0.00    +0.000 N 
ATOM      4  H   UNL     1       2.397   7.210  20.011  0.00  0.00    +0.000 HD
ENDROOT
BRANCH   3   5
ATOM      5  N   UNL     1       1.292   8.837  19.383  0.00  0.00    +0.000 NA
ATOM      6  C   UNL     1       0.907   9.236  20.546  0.00  0.00    +0.000 C 
ATOM      7  C   UNL     1       1.276   8.753  21.923  0.00  0.00    +0.000 C 
ATOM      8  C   UNL     1       0.415   9.612  22.831  0.00  0.00    +0.000 C 
ATOM      9  O   UNL     1       0.365   9.566  24.047  0.00  0.00    +0.000 OA
ATOM     10  C   UNL     1      -0.366  10.536  22.005  0.00  0.00    +0.000 A 
ATOM     11  C   UNL     1      -1.280  11.501  22.384  0.00  0.00    +0.000 A 
ATOM     12  C   UNL     1      -1.887  12.256  21.371  0.00  0.00    +0.000 A 
ATOM     13  C   UNL     1      -1.569  12.036  20.017  0.00  0.00    +0.000 A 
ATOM     14  C   UNL     1      -0.647  11.054  19.654  0.00  0.00    +0.000 A 
ATOM     15  C   UNL     1      -0.063  10.320  20.671  0.00  0.00    +0.000 A 
ENDBRANCH   3   5
BRANCH   2  16
ATOM     16  C   UNL     1       3.854   6.687  17.854  0.00  0.00    +0.000 A 
ATOM     17  C   UNL     1       4.565   6.645  16.644  0.00  0.00    +0.000 A 
ATOM     18  C   UNL     1       5.474   5.617  16.394  0.00  0.00    +0.000 A 
ATOM     19  C   UNL     1       5.663   4.616  17.345  0.00  0.00    +0.000 A 
ATOM     20  C   UNL     1       4.944   4.657  18.538  0.00  0.00    +0.000 A 
ATOM     21  C   UNL     1       4.045   5.686  18.809  0.00  0.00    +0.000 A 
BRANCH  20  22
ATOM     22  O   UNL     1       5.077   3.674  19.475  0.00  0.00    +0.000 OA
ATOM     23  H   UNL     1       4.253   3.158  19.500  0.00  0.00    +0.000 HD
ENDBRANCH  20  22
ENDBRANCH   2  16
TORSDOF 3
ENDMDL
