MODEL 1
REMARK VINA RESULT:      -6.4      0.000      0.000
REMARK  Name = 
REMARK  10 active torsions:
REMARK  status: ('A' for Active; 'I' for Inactive)
REMARK    1  A    between atoms: C_1  and  O_2
REMARK    2  A    between atoms: O_2  and  C_3
REMARK    3  A    between atoms: C_6  and  O_7
REMARK    4  A    between atoms: O_7  and  C_8
REMARK    5  A    between atoms: C_8  and  C_9
REMARK    6  A    between atoms: C_9  and  C_10
REMARK    7  A    between atoms: C_10  and  C_11
REMARK    8  A    between atoms: C_11  and  C_12
REMARK    9  A    between atoms: C_12  and  C_13
REMARK   10  A    between atoms: C_13  and  N_14
REMARK                            x       y       z     vdW  Elec       q    Type
REMARK                         _______ _______ _______ _____ _____    ______ ____
ROOT
ATOM      1  C   UNL     1       3.292   2.542  17.864  0.00  0.00    +0.000 C 
ENDROOT
BRANCH   1   2
ATOM      2  O   UNL     1       4.188   3.494  18.414  0.00  0.00    +0.000 OA
BRANCH   2   6
ATOM      3  C   UNL     1       6.761   5.045  15.495  0.00  0.00    +0.000 A 
ATOM      4  C   UNL     1       5.671   4.237  15.199  0.00  0.00    +0.000 A 
ATOM      5  C   UNL     1       4.860   3.760  16.236  0.00  0.00    +0.000 A 
ATOM      6  C   UNL     1       5.112   4.077  17.583  0.00  0.00    +0.000 A 
ATOM      7  C   UNL     1       6.217   4.896  17.868  0.00  0.00    +0.000 A 
ATOM      8 CL   UNL     1       6.714   5.440  19.436  0.00  0.00    +0.000 Cl
ATOM      9  C   UNL     1       7.032   5.359  16.824  0.00  0.00    +0.000 A 
BRANCH   3  11
ATOM     10  C   UNL     1       7.640   4.970  13.300  0.00  0.00    +0.000 C 
ATOM     11  O   UNL     1       7.652   5.556  14.596  0.00  0.00    +0.000 OA
ENDBRANCH   3  11
ENDBRANCH   2   6
ENDBRANCH   1   2
BRANCH   1  12
ATOM     12  C   UNL     1       1.851   2.844  18.276  0.00  0.00    +0.000 C 
BRANCH  12  13
ATOM     13  C   UNL     1       1.524   2.037  19.534  0.00  0.00    +0.000 C 
BRANCH  13  14
ATOM     14  C   UNL     1       1.363   2.899  20.782  0.00  0.00    +0.000 C 
BRANCH  14  15
ATOM     15  C   UNL     1       1.041   4.342  20.384  0.00  0.00    +0.000 C 
BRANCH  15  16
ATOM     16  C   UNL     1       2.191   5.288  20.714  0.00  0.00    +0.000 C 
BRANCH  16  17
ATOM     17  N   UNL     1       2.191   6.462  19.865  0.00  0.00    +0.000 N 
ATOM     18  C   UNL     1       2.588   6.518  18.559  0.00  0.00    +0.000 A 
ATOM     19  C   UNL     1       2.380   7.826  18.181  0.00  0.00    +0.000 A 
ATOM     20  N   UNL     1       1.872   8.558  19.224  0.00  0.00    +0.000 NA
ATOM     21  C   UNL     1       1.768   7.710  20.222  0.00  0.00    +0.000 A 
ENDBRANCH  16  17
ENDBRANCH  15  16
ENDBRANCH  14  15
ENDBRANCH  13  14
ENDBRANCH  12  13
ENDBRANCH   1  12
TORSDOF 9
ENDMDL
MODEL 2
REMARK VINA RESULT:      -6.1      5.577      7.751
REMARK  Name = 
REMARK  10 active torsions:
REMARK  status: ('A' for Active; 'I' for Inactive)
REMARK    1  A    between atoms: C_1  and  O_2
REMARK    2  A    between atoms: O_2  and  C_3
REMARK    3  A    between atoms: C_6  and  O_7
REMARK    4  A    between atoms: O_7  and  C_8
REMARK    5  A    between atoms: C_8  and  C_9
REMARK    6  A    between atoms: C_9  and  C_10
REMARK    7  A    between atoms: C_10  and  C_11
REMARK    8  A    between atoms: C_11  and  C_12
REMARK    9  A    between atoms: C_12  and  C_13
REMARK   10  A    between atoms: C_13  and  N_14
REMARK                            x       y       z     vdW  Elec       q    Type
REMARK                         _______ _______ _______ _____ _____    ______ ____
ROOT
ATOM      1  C   UNL     1       7.886   6.876  18.545  0.00  0.00    +0.000 C 
ENDROOT
BRANCH   1   2
ATOM      2  O   UNL     1       7.825   5.516  18.148  0.00  0.00    +0.000 OA
BRANCH   2   6
ATOM      3  C   UNL     1       3.971   3.971  17.598  0.00  0.00    +0.000 A 
ATOM      4  C   UNL     1       4.438   4.436  18.820  0.00  0.00    +0.000 A 
ATOM      5  C   UNL     1       5.742   4.938  18.918  0.00  0.00    +0.000 A 
ATOM      6  C   UNL     1       6.604   4.990  17.807  0.00  0.00    +0.000 A 
ATOM      7  C   UNL     1       6.117   4.517  16.578  0.00  0.00    +0.000 A 
ATOM      8 CL   UNL     1       6.975   4.500  15.073  0.00  0.00    +0.000 Cl
ATOM      9  C   UNL     1       4.814   4.004  16.491  0.00  0.00    +0.000 A 
BRANCH   3  11
ATOM     10  C   UNL     1       1.637   4.089  17.969  0.00  0.00    +0.000 C 
ATOM     11  O   UNL     1       2.740   3.429  17.361  0.00  0.00    +0.000 OA
ENDBRANCH   3  11
ENDBRANCH   2   6
ENDBRANCH   1   2
BRANCH   1  12
ATOM     12  C   UNL     1       7.499   7.801  17.391  0.00  0.00    +0.000 C 
BRANCH  12  13
ATOM     13  C   UNL     1       8.082   9.189  17.662  0.00  0.00    +0.000 C 
BRANCH  13  14
ATOM     14  C   UNL     1       8.893   9.265  18.951  0.00  0.00    +0.000 C 
BRANCH  14  15
ATOM     15  C   UNL     1       9.516  10.656  19.098  0.00  0.00    +0.000 C 
BRANCH  15  16
ATOM     16  C   UNL     1       9.034  11.608  18.008  0.00  0.00    +0.000 C 
BRANCH  16  17
ATOM     17  N   UNL     1       9.876  12.782  17.900  0.00  0.00    +0.000 N 
ATOM     18  C   UNL     1       9.658  13.993  18.495  0.00  0.00    +0.000 A 
ATOM     19  C   UNL     1      10.731  14.770  18.121  0.00  0.00    +0.000 A 
ATOM     20  N   UNL     1      11.586  14.062  17.317  0.00  0.00    +0.000 NA
ATOM     21  C   UNL     1      11.046  12.870  17.202  0.00  0.00    +0.000 A 
ENDBRANCH  16  17
ENDBRANCH  15  16
ENDBRANCH  14  15
ENDBRANCH  13  14
ENDBRANCH  12  13
ENDBRANCH   1  12
TORSDOF 9
ENDMDL
MODEL 3
REMARK VINA RESULT:      -6.0      5.592      7.891
REMARK  Name = 
REMARK  10 active torsions:
REMARK  status: ('A' for Active; 'I' for Inactive)
REMARK    1  A    between atoms: C_1  and  O_2
REMARK    2  A    between atoms: O_2  and  C_3
REMARK    3  A    between atoms: C_6  and  O_7
REMARK    4  A    between atoms: O_7  and  C_8
REMARK    5  A    between atoms: C_8  and  C_9
REMARK    6  A    between atoms: C_9  and  C_10
REMARK    7  A    between atoms: C_10  and  C_11
REMARK    8  A    between atoms: C_11  and  C_12
REMARK    9  A    between atoms: C_12  and  C_13
REMARK   10  A    between atoms: C_13  and  N_14
REMARK                            x       y       z     vdW  Elec       q    Type
REMARK                         _______ _______ _______ _____ _____    ______ ____
ROOT
ATOM      1  C   UNL     1       6.830   6.303  17.014  0.00  0.00    +0.000 C 
ENDROOT
BRANCH   1   2
ATOM      2  O   UNL     1       5.574   6.957  16.929  0.00  0.00    +0.000 OA
BRANCH   2   6
ATOM      3  C   UNL     1       2.398   4.402  17.895  0.00  0.00    +0.000 A 
ATOM      4  C   UNL     1       3.626   3.949  17.431  0.00  0.00    +0.000 A 
ATOM      5  C   UNL     1       4.637   4.871  17.131  0.00  0.00    +0.000 A 
ATOM      6  C   UNL     1       4.448   6.257  17.288  0.00  0.00    +0.000 A 
ATOM      7  C   UNL     1       3.202   6.700  17.759  0.00  0.00    +0.000 A 
ATOM      8 CL   UNL     1       2.742   8.344  18.055  0.00  0.00    +0.000 Cl
ATOM      9  C   UNL     1       2.191   5.770  18.045  0.00  0.00    +0.000 A 
BRANCH   3  11
ATOM     10  C   UNL     1       1.598   2.317  18.677  0.00  0.00    +0.000 C 
ATOM     11  O   UNL     1       1.316   3.625  18.197  0.00  0.00    +0.000 OA
ENDBRANCH   3  11
ENDBRANCH   2   6
ENDBRANCH   1   2
BRANCH   1  12
ATOM     12  C   UNL     1       7.711   6.947  18.083  0.00  0.00    +0.000 C 
BRANCH  12  13
ATOM     13  C   UNL     1       7.908   8.422  17.731  0.00  0.00    +0.000 C 
BRANCH  13  14
ATOM     14  C   UNL     1       8.782   9.173  18.729  0.00  0.00    +0.000 C 
BRANCH  14  15
ATOM     15  C   UNL     1       9.009  10.610  18.251  0.00  0.00    +0.000 C 
BRANCH  15  16
ATOM     16  C   UNL     1      10.144  11.286  19.012  0.00  0.00    +0.000 C 
BRANCH  16  17
ATOM     17  N   UNL     1      10.502  12.565  18.434  0.00  0.00    +0.000 N 
ATOM     18  C   UNL     1      10.432  13.782  19.052  0.00  0.00    +0.000 A 
ATOM     19  C   UNL     1      10.897  14.681  18.120  0.00  0.00    +0.000 A 
ATOM     20  N   UNL     1      11.243  14.040  16.957  0.00  0.00    +0.000 NA
ATOM     21  C   UNL     1      10.995  12.769  17.177  0.00  0.00    +0.000 A 
ENDBRANCH  16  17
ENDBRANCH  15  16
ENDBRANCH  14  15
ENDBRANCH  13  14
ENDBRANCH  12  13
ENDBRANCH   1  12
TORSDOF 9
ENDMDL
MODEL 4
REMARK VINA RESULT:      -6.0      1.924      3.278
REMARK  Name = 
REMARK  10 active torsions:
REMARK  status: ('A' for Active; 'I' for Inactive)
REMARK    1  A    between atoms: C_1  and  O_2
REMARK    2  A    between atoms: O_2  and  C_3
REMARK    3  A    between atoms: C_6  and  O_7
REMARK    4  A    between atoms: O_7  and  C_8
REMARK    5  A    between atoms: C_8  and  C_9
REMARK    6  A    between atoms: C_9  and  C_10
REMARK    7  A    between atoms: C_10  and  C_11
REMARK    8  A    between atoms: C_11  and  C_12
REMARK    9  A    between atoms: C_12  and  C_13
REMARK   10  A    between atoms: C_13  and  N_14
REMARK                            x       y       z     vdW  Elec       q    Type
REMARK                         _______ _______ _______ _____ _____    ______ ____
ROOT
ATOM      1  C   UNL     1       3.080   5.614  18.524  0.00  0.00    +0.000 C 
ENDROOT
BRANCH   1   2
ATOM      2  O   UNL     1       4.409   5.211  18.812  0.00  0.00    +0.000 OA
BRANCH   2   6
ATOM      3  C   UNL     1       6.863   5.256  15.417  0.00  0.00    +0.000 A 
ATOM      4  C   UNL     1       5.495   5.023  15.366  0.00  0.00    +0.000 A 
ATOM      5  C   UNL     1       4.746   5.026  16.549  0.00  0.00    +0.000 A 
ATOM      6  C   UNL     1       5.339   5.260  17.803  0.00  0.00    +0.000 A 
ATOM      7  C   UNL     1       6.723   5.495  17.840  0.00  0.00    +0.000 A 
ATOM      8 CL   UNL     1       7.670   5.831  19.252  0.00  0.00    +0.000 Cl
ATOM      9  C   UNL     1       7.468   5.478  16.651  0.00  0.00    +0.000 A 
BRANCH   3  11
ATOM     10  C   UNL     1       7.188   4.786  13.121  0.00  0.00    +0.000 C 
ATOM     11  O   UNL     1       7.720   5.253  14.354  0.00  0.00    +0.000 OA
ENDBRANCH   3  11
ENDBRANCH   2   6
ENDBRANCH   1   2
BRANCH   1  12
ATOM     12  C   UNL     1       2.640   6.748  19.449  0.00  0.00    +0.000 C 
BRANCH  12  13
ATOM     13  C   UNL     1       1.669   6.182  20.487  0.00  0.00    +0.000 C 
BRANCH  13  14
ATOM     14  C   UNL     1       2.150   4.881  21.121  0.00  0.00    +0.000 C 
BRANCH  14  15
ATOM     15  C   UNL     1       1.069   3.805  20.993  0.00  0.00    +0.000 C 
BRANCH  15  16
ATOM     16  C   UNL     1       1.673   2.415  20.828  0.00  0.00    +0.000 C 
BRANCH  16  17
ATOM     17  N   UNL     1       2.281   2.236  19.525  0.00  0.00    +0.000 N 
ATOM     18  C   UNL     1       1.650   2.331  18.317  0.00  0.00    +0.000 A 
ATOM     19  C   UNL     1       2.637   2.110  17.383  0.00  0.00    +0.000 A 
ATOM     20  N   UNL     1       3.842   1.883  17.996  0.00  0.00    +0.000 NA
ATOM     21  C   UNL     1       3.597   1.966  19.284  0.00  0.00    +0.000 A 
ENDBRANCH  16  17
ENDBRANCH  15  16
ENDBRANCH  14  15
ENDBRANCH  13  14
ENDBRANCH  12  13
ENDBRANCH   1  12
TORSDOF 9
ENDMDL
MODEL 5
REMARK VINA RESULT:      -5.9      2.746      4.661
REMARK  Name = 
REMARK  10 active torsions:
REMARK  status: ('A' for Active; 'I' for Inactive)
REMARK    1  A    between atoms: C_1  and  O_2
REMARK    2  A    between atoms: O_2  and  C_3
REMARK    3  A    between atoms: C_6  and  O_7
REMARK    4  A    between atoms: O_7  and  C_8
REMARK    5  A    between atoms: C_8  and  C_9
REMARK    6  A    between atoms: C_9  and  C_10
REMARK    7  A    between atoms: C_10  and  C_11
REMARK    8  A    between atoms: C_11  and  C_12
REMARK    9  A    between atoms: C_12  and  C_13
REMARK   10  A    between atoms: C_13  and  N_14
REMARK                            x       y       z     vdW  Elec       q    Type
REMARK                         _______ _______ _______ _____ _____    ______ ____
ROOT
ATOM      1  C   UNL     1       7.323   5.168  16.968  0.00  0.00    +0.000 C 
ENDROOT
BRANCH   1   2
ATOM      2  O   UNL     1       7.356   5.812  15.705  0.00  0.00    +0.000 OA
BRANCH   2   6
ATOM      3  C   UNL     1       5.851   3.423  12.610  0.00  0.00    +0.000 A 
ATOM      4  C   UNL     1       5.284   3.476  13.877  0.00  0.00    +0.000 A 
ATOM      5  C   UNL     1       5.850   4.302  14.856  0.00  0.00    +0.000 A 
ATOM      6  C   UNL     1       6.985   5.092  14.596  0.00  0.00    +0.000 A 
ATOM      7  C   UNL     1       7.546   5.030  13.310  0.00  0.00    +0.000 A 
ATOM      8 CL   UNL     1       8.921   5.922  12.746  0.00  0.00    +0.000 Cl
ATOM      9  C   UNL     1       6.981   4.190  12.339  0.00  0.00    +0.000 A 
BRANCH   3  11
ATOM     10  C   UNL     1       6.210   1.490  11.294  0.00  0.00    +0.000 C 
ATOM     11  O   UNL     1       5.428   2.645  11.570  0.00  0.00    +0.000 OA
ENDBRANCH   3  11
ENDBRANCH   2   6
ENDBRANCH   1   2
BRANCH   1  12
ATOM     12  C   UNL     1       6.779   6.106  18.046  0.00  0.00    +0.000 C 
BRANCH  12  13
ATOM     13  C   UNL     1       5.451   6.689  17.560  0.00  0.00    +0.000 C 
BRANCH  13  14
ATOM     14  C   UNL     1       4.238   5.870  17.987  0.00  0.00    +0.000 C 
BRANCH  14  15
ATOM     15  C   UNL     1       4.539   5.127  19.291  0.00  0.00    +0.000 C 
BRANCH  15  16
ATOM     16  C   UNL     1       4.329   3.624  19.145  0.00  0.00    +0.000 C 
BRANCH  16  17
ATOM     17  N   UNL     1       2.924   3.269  19.125  0.00  0.00    +0.000 N 
ATOM     18  C   UNL     1       2.015   3.504  20.118  0.00  0.00    +0.000 A 
ATOM     19  C   UNL     1       0.823   3.018  19.629  0.00  0.00    +0.000 A 
ATOM     20  N   UNL     1       0.991   2.495  18.373  0.00  0.00    +0.000 NA
ATOM     21  C   UNL     1       2.264   2.662  18.096  0.00  0.00    +0.000 A 
ENDBRANCH  16  17
ENDBRANCH  15  16
ENDBRANCH  14  15
ENDBRANCH  13  14
ENDBRANCH  12  13
ENDBRANCH   1  12
TORSDOF 9
ENDMDL
MODEL 6
REMARK VINA RESULT:      -5.9      1.393      1.741
REMARK  Name = 
REMARK  10 active torsions:
REMARK  status: ('A' for Active; 'I' for Inactive)
REMARK    1  A    between atoms: C_1  and  O_2
REMARK    2  A    between atoms: O_2  and  C_3
REMARK    3  A    between atoms: C_6  and  O_7
REMARK    4  A    between atoms: O_7  and  C_8
REMARK    5  A    between atoms: C_8  and  C_9
REMARK    6  A    between atoms: C_9  and  C_10
REMARK    7  A    between atoms: C_10  and  C_11
REMARK    8  A    between atoms: C_11  and  C_12
REMARK    9  A    between atoms: C_12  and  C_13
REMARK   10  A    between atoms: C_13  and  N_14
REMARK                            x       y       z     vdW  Elec       q    Type
REMARK                         _______ _______ _______ _____ _____    ______ ____
ROOT
ATOM      1  C   UNL     1       4.496   2.363  19.760  0.00  0.00    +0.000 C 
ENDROOT
BRANCH   1   2
ATOM      2  O   UNL     1       4.686   3.746  19.509  0.00  0.00    +0.000 OA
BRANCH   2   6
ATOM      3  C   UNL     1       6.784   4.998  16.106  0.00  0.00    +0.000 A 
ATOM      4  C   UNL     1       7.342   4.968  17.378  0.00  0.00    +0.000 A 
ATOM      5  C   UNL     1       6.571   4.535  18.463  0.00  0.00    +0.000 A 
ATOM      6  C   UNL     1       5.235   4.122  18.308  0.00  0.00    +0.000 A 
ATOM      7  C   UNL     1       4.684   4.157  17.016  0.00  0.00    +0.000 A 
ATOM      8 CL   UNL     1       3.079   3.679  16.572  0.00  0.00    +0.000 Cl
ATOM      9  C   UNL     1       5.460   4.605  15.937  0.00  0.00    +0.000 A 
BRANCH   3  11
ATOM     10  C   UNL     1       7.051   4.740  13.769  0.00  0.00    +0.000 C 
ATOM     11  O   UNL     1       7.403   5.424  14.966  0.00  0.00    +0.000 OA
ENDBRANCH   3  11
ENDBRANCH   2   6
ENDBRANCH   1   2
BRANCH   1  12
ATOM     12  C   UNL     1       3.109   1.910  19.306  0.00  0.00    +0.000 C 
BRANCH  12  13
ATOM     13  C   UNL     1       2.070   2.472  20.277  0.00  0.00    +0.000 C 
BRANCH  13  14
ATOM     14  C   UNL     1       1.053   3.392  19.611  0.00  0.00    +0.000 C 
BRANCH  14  15
ATOM     15  C   UNL     1       0.863   4.659  20.451  0.00  0.00    +0.000 C 
BRANCH  15  16
ATOM     16  C   UNL     1       2.162   5.444  20.589  0.00  0.00    +0.000 C 
BRANCH  16  17
ATOM     17  N   UNL     1       2.143   6.669  19.816  0.00  0.00    +0.000 N 
ATOM     18  C   UNL     1       2.559   6.818  18.523  0.00  0.00    +0.000 A 
ATOM     19  C   UNL     1       2.321   8.141  18.224  0.00  0.00    +0.000 A 
ATOM     20  N   UNL     1       1.776   8.792  19.301  0.00  0.00    +0.000 NA
ATOM     21  C   UNL     1       1.680   7.881  20.242  0.00  0.00    +0.000 A 
ENDBRANCH  16  17
ENDBRANCH  15  16
ENDBRANCH  14  15
ENDBRANCH  13  14
ENDBRANCH  12  13
ENDBRANCH   1  12
TORSDOF 9
ENDMDL
MODEL 7
REMARK VINA RESULT:      -5.9      1.726      2.260
REMARK  Name = 
REMARK  10 active torsions:
REMARK  status: ('A' for Active; 'I' for Inactive)
REMARK    1  A    between atoms: C_1  and  O_2
REMARK    2  A    between atoms: O_2  and  C_3
REMARK    3  A    between atoms: C_6  and  O_7
REMARK    4  A    between atoms: O_7  and  C_8
REMARK    5  A    between atoms: C_8  and  C_9
REMARK    6  A    between atoms: C_9  and  C_10
REMARK    7  A    between atoms: C_10  and  C_11
REMARK    8  A    between atoms: C_11  and  C_12
REMARK    9  A    between atoms: C_12  and  C_13
REMARK   10  A    between atoms: C_13  and  N_14
REMARK                            x       y       z     vdW  Elec       q    Type
REMARK                         _______ _______ _______ _____ _____    ______ ____
ROOT
ATOM      1  C   UNL     1       2.734   3.483  17.113  0.00  0.00    +0.000 C 
ENDROOT
BRANCH   1   2
ATOM      2  O   UNL     1       4.107   3.213  17.340  0.00  0.00    +0.000 OA
BRANCH   2   6
ATOM      3  C   UNL     1       6.794   6.411  17.023  0.00  0.00    +0.000 A 
ATOM      4  C   UNL     1       6.059   6.144  18.171  0.00  0.00    +0.000 A 
ATOM      5  C   UNL     1       5.181   5.053  18.194  0.00  0.00    +0.000 A 
ATOM      6  C   UNL     1       5.019   4.207  17.082  0.00  0.00    +0.000 A 
ATOM      7  C   UNL     1       5.770   4.488  15.928  0.00  0.00    +0.000 A 
ATOM      8 CL   UNL     1       5.760   3.583  14.451  0.00  0.00    +0.000 Cl
ATOM      9  C   UNL     1       6.636   5.591  15.910  0.00  0.00    +0.000 A 
BRANCH   3  11
ATOM     10  C   UNL     1       8.161   8.059  18.031  0.00  0.00    +0.000 C 
ATOM     11  O   UNL     1       7.660   7.452  16.847  0.00  0.00    +0.000 OA
ENDBRANCH   3  11
ENDBRANCH   2   6
ENDBRANCH   1   2
BRANCH   1  12
ATOM     12  C   UNL     1       1.856   2.739  18.119  0.00  0.00    +0.000 C 
BRANCH  12  13
ATOM     13  C   UNL     1       2.580   2.705  19.466  0.00  0.00    +0.000 C 
BRANCH  13  14
ATOM     14  C   UNL     1       1.677   3.037  20.649  0.00  0.00    +0.000 C 
BRANCH  14  15
ATOM     15  C   UNL     1       1.263   4.510  20.594  0.00  0.00    +0.000 C 
BRANCH  15  16
ATOM     16  C   UNL     1       2.472   5.433  20.485  0.00  0.00    +0.000 C 
BRANCH  16  17
ATOM     17  N   UNL     1       2.101   6.770  20.070  0.00  0.00    +0.000 N 
ATOM     18  C   UNL     1       2.391   7.356  18.870  0.00  0.00    +0.000 A 
ATOM     19  C   UNL     1       1.812   8.603  18.935  0.00  0.00    +0.000 A 
ATOM     20  N   UNL     1       1.184   8.785  20.140  0.00  0.00    +0.000 NA
ATOM     21  C   UNL     1       1.374   7.666  20.801  0.00  0.00    +0.000 A 
ENDBRANCH  16  17
ENDBRANCH  15  16
ENDBRANCH  14  15
ENDBRANCH  13  14
ENDBRANCH  12  13
ENDBRANCH   1  12
TORSDOF 9
ENDMDL
MODEL 8
REMARK VINA RESULT:      -5.9      3.129      6.213
REMARK  Name = 
REMARK  10 active torsions:
REMARK  status: ('A' for Active; 'I' for Inactive)
REMARK    1  A    between atoms: C_1  and  O_2
REMARK    2  A    between atoms: O_2  and  C_3
REMARK    3  A    between atoms: C_6  and  O_7
REMARK    4  A    between atoms: O_7  and  C_8
REMARK    5  A    between atoms: C_8  and  C_9
REMARK    6  A    between atoms: C_9  and  C_10
REMARK    7  A    between atoms: C_10  and  C_11
REMARK    8  A    between atoms: C_11  and  C_12
REMARK    9  A    between atoms: C_12  and  C_13
REMARK   10  A    between atoms: C_13  and  N_14
REMARK                            x       y       z     vdW  Elec       q    Type
REMARK                         _______ _______ _______ _____ _____    ______ ____
ROOT
ATOM      1  C   UNL     1       2.182   4.920  20.690  0.00  0.00    +0.000 C 
ENDROOT
BRANCH   1   2
ATOM      2  O   UNL     1       2.854   5.921  19.943  0.00  0.00    +0.000 OA
BRANCH   2   6
ATOM      3  C   UNL     1       0.767   9.553  19.911  0.00  0.00    +0.000 A 
ATOM      4  C   UNL     1       0.699   8.643  20.959  0.00  0.00    +0.000 A 
ATOM      5  C   UNL     1       1.430   7.451  20.890  0.00  0.00    +0.000 A 
ATOM      6  C   UNL     1       2.242   7.139  19.785  0.00  0.00    +0.000 A 
ATOM      7  C   UNL     1       2.302   8.068  18.733  0.00  0.00    +0.000 A 
ATOM      8 CL   UNL     1       3.245   7.921  17.287  0.00  0.00    +0.000 Cl
ATOM      9  C   UNL     1       1.557   9.255  18.804  0.00  0.00    +0.000 A 
BRANCH   3  11
ATOM     10  C   UNL     1       0.739  11.780  19.112  0.00  0.00    +0.000 C 
ATOM     11  O   UNL     1       0.090  10.735  19.826  0.00  0.00    +0.000 OA
ENDBRANCH   3  11
ENDBRANCH   2   6
ENDBRANCH   1   2
BRANCH   1  12
ATOM     12  C   UNL     1       1.219   4.130  19.803  0.00  0.00    +0.000 C 
BRANCH  12  13
ATOM     13  C   UNL     1       1.782   4.095  18.382  0.00  0.00    +0.000 C 
BRANCH  13  14
ATOM     14  C   UNL     1       2.286   2.718  17.963  0.00  0.00    +0.000 C 
BRANCH  14  15
ATOM     15  C   UNL     1       3.754   2.805  17.537  0.00  0.00    +0.000 C 
BRANCH  15  16
ATOM     16  C   UNL     1       4.141   4.222  17.128  0.00  0.00    +0.000 C 
BRANCH  16  17
ATOM     17  N   UNL     1       5.539   4.502  17.386  0.00  0.00    +0.000 N 
ATOM     18  C   UNL     1       6.063   5.017  18.539  0.00  0.00    +0.000 A 
ATOM     19  C   UNL     1       7.420   5.074  18.316  0.00  0.00    +0.000 A 
ATOM     20  N   UNL     1       7.727   4.611  17.062  0.00  0.00    +0.000 NA
ATOM     21  C   UNL     1       6.575   4.273  16.528  0.00  0.00    +0.000 A 
ENDBRANCH  16  17
ENDBRANCH  15  16
ENDBRANCH  14  15
ENDBRANCH  13  14
ENDBRANCH  12  13
ENDBRANCH   1  12
TORSDOF 9
ENDMDL
MODEL 9
REMARK VINA RESULT:      -5.9      2.508      4.439
REMARK  Name = 
REMARK  10 active torsions:
REMARK  status: ('A' for Active; 'I' for Inactive)
REMARK    1  A    between atoms: C_1  and  O_2
REMARK    2  A    between atoms: O_2  and  C_3
REMARK    3  A    between atoms: C_6  and  O_7
REMARK    4  A    between atoms: O_7  and  C_8
REMARK    5  A    between atoms: C_8  and  C_9
REMARK    6  A    between atoms: C_9  and  C_10
REMARK    7  A    between atoms: C_10  and  C_11
REMARK    8  A    between atoms: C_11  and  C_12
REMARK    9  A    between atoms: C_12  and  C_13
REMARK   10  A    between atoms: C_13  and  N_14
REMARK                            x       y       z     vdW  Elec       q    Type
REMARK                         _______ _______ _______ _____ _____    ______ ____
ROOT
ATOM      1  C   UNL     1       7.512   4.947  17.054  0.00  0.00    +0.000 C 
ENDROOT
BRANCH   1   2
ATOM      2  O   UNL     1       7.419   5.695  15.853  0.00  0.00    +0.000 OA
BRANCH   2   6
ATOM      3  C   UNL     1       5.821   3.522  12.648  0.00  0.00    +0.000 A 
ATOM      4  C   UNL     1       5.272   3.514  13.924  0.00  0.00    +0.000 A 
ATOM      5  C   UNL     1       5.869   4.270  14.940  0.00  0.00    +0.000 A 
ATOM      6  C   UNL     1       7.018   5.049  14.710  0.00  0.00    +0.000 A 
ATOM      7  C   UNL     1       7.562   5.048  13.415  0.00  0.00    +0.000 A 
ATOM      8 CL   UNL     1       8.948   5.941  12.884  0.00  0.00    +0.000 Cl
ATOM      9  C   UNL     1       6.965   4.278  12.406  0.00  0.00    +0.000 A 
BRANCH   3  11
ATOM     10  C   UNL     1       4.035   3.089  11.157  0.00  0.00    +0.000 C 
ATOM     11  O   UNL     1       5.368   2.814  11.572  0.00  0.00    +0.000 OA
ENDBRANCH   3  11
ENDBRANCH   2   6
ENDBRANCH   1   2
BRANCH   1  12
ATOM     12  C   UNL     1       6.946   5.735  18.235  0.00  0.00    +0.000 C 
BRANCH  12  13
ATOM     13  C   UNL     1       5.494   5.307  18.456  0.00  0.00    +0.000 C 
BRANCH  13  14
ATOM     14  C   UNL     1       4.484   6.186  17.726  0.00  0.00    +0.000 C 
BRANCH  14  15
ATOM     15  C   UNL     1       3.176   6.252  18.519  0.00  0.00    +0.000 C 
BRANCH  15  16
ATOM     16  C   UNL     1       2.226   5.123  18.136  0.00  0.00    +0.000 C 
BRANCH  16  17
ATOM     17  N   UNL     1       2.001   4.203  19.233  0.00  0.00    +0.000 N 
ATOM     18  C   UNL     1       2.463   2.920  19.323  0.00  0.00    +0.000 A 
ATOM     19  C   UNL     1       2.019   2.468  20.545  0.00  0.00    +0.000 A 
ATOM     20  N   UNL     1       1.302   3.442  21.191  0.00  0.00    +0.000 NA
ATOM     21  C   UNL     1       1.309   4.474  20.378  0.00  0.00    +0.000 A 
ENDBRANCH  16  17
ENDBRANCH  15  16
ENDBRANCH  14  15
ENDBRANCH  13  14
ENDBRANCH  12  13
ENDBRANCH   1  12
TORSDOF 9
ENDMDL
