MODEL 1
REMARK VINA RESULT:      -8.2      0.000      0.000
REMARK  Name = 
REMARK  6 active torsions:
REMARK  status: ('A' for Active; 'I' for Inactive)
REMARK    1  A    between atoms: C_6  and  C_7
REMARK    2  A    between atoms: C_7  and  N_8
REMARK    3  A    between atoms: N_8  and  C_9
REMARK    4  A    between atoms: C_14  and  N_15
REMARK    5  A    between atoms: N_15  and  C_16
REMARK    6  A    between atoms: C_16  and  C_17
REMARK                            x       y       z     vdW  Elec       q    Type
REMARK                         _______ _______ _______ _____ _____    ______ ____
ROOT
ATOM      1  C   UNL     1       1.964   5.044  20.167  0.00  0.00    +0.000 C 
ATOM      2  C   UNL     1       2.319   4.077  21.314  0.00  0.00    +0.000 C 
ATOM      3  C   UNL     1       1.354   2.884  21.332  0.00  0.00    +0.000 C 
ATOM      4  C   UNL     1       1.160   2.214  19.970  0.00  0.00    +0.000 C 
ATOM      5  C   UNL     1       0.944   3.220  18.840  0.00  0.00    +0.000 C 
ATOM      6  C   UNL     1       2.069   4.282  18.784  0.00  0.00    +0.000 C 
ENDROOT
BRANCH   1   7
ATOM      7  N   UNL     1       2.687   6.324  20.312  0.00  0.00    +0.000 NA
ATOM      8  H   UNL     1       2.337   6.786  21.154  0.00  0.00    +0.000 HD
BRANCH   7   9
ATOM      9  C   UNL     1       2.418   7.224  19.179  0.00  0.00    +0.000 C 
BRANCH   9  15
ATOM     10 BR   UNL     1      -0.443   9.836  22.930  0.00  0.00    +0.000 Br
ATOM     11  C   UNL     1       0.285   9.686  21.189  0.00  0.00    +0.000 A 
ATOM     12  C   UNL     1       0.002  10.664  20.239  0.00  0.00    +0.000 A 
ATOM     13  C   UNL     1       0.529  10.543  18.955  0.00  0.00    +0.000 A 
ATOM     14  C   UNL     1       1.327   9.445  18.624  0.00  0.00    +0.000 A 
ATOM     15  C   UNL     1       1.618   8.453  19.569  0.00  0.00    +0.000 A 
ATOM     16  C   UNL     1       1.087   8.586  20.863  0.00  0.00    +0.000 A 
ENDBRANCH   9  15
ENDBRANCH   7   9
ENDBRANCH   1   7
BRANCH   6  17
ATOM     17  N   UNL     1       3.404   3.694  18.481  0.00  0.00    +0.000 NA
ATOM     18  H   UNL     1       3.470   2.757  18.876  0.00  0.00    +0.000 HD
BRANCH  17  19
ATOM     19  C   UNL     1       3.672   3.617  17.038  0.00  0.00    +0.000 C 
BRANCH  19  20
ATOM     20  C   UNL     1       4.970   4.247  16.567  0.00  0.00    +0.000 A 
ATOM     21  C   UNL     1       5.535   3.802  15.353  0.00  0.00    +0.000 A 
ATOM     22  C   UNL     1       6.681   4.395  14.823  0.00  0.00    +0.000 A 
ATOM     23  C   UNL     1       7.282   5.452  15.497  0.00  0.00    +0.000 A 
ATOM     24  C   UNL     1       6.733   5.909  16.694  0.00  0.00    +0.000 A 
ATOM     25 BR   UNL     1       7.549   7.357  17.597  0.00  0.00    +0.000 Br
ATOM     26  C   UNL     1       5.580   5.319  17.230  0.00  0.00    +0.000 A 
ENDBRANCH  19  20
ENDBRANCH  17  19
ENDBRANCH   6  17
TORSDOF 6
ENDMDL
MODEL 2
REMARK VINA RESULT:      -8.0      0.958      6.597
REMARK  Name = 
REMARK  6 active torsions:
REMARK  status: ('A' for Active; 'I' for Inactive)
REMARK    1  A    between atoms: C_6  and  C_7
REMARK    2  A    between atoms: C_7  and  N_8
REMARK    3  A    between atoms: N_8  and  C_9
REMARK    4  A    between atoms: C_14  and  N_15
REMARK    5  A    between atoms: N_15  and  C_16
REMARK    6  A    between atoms: C_16  and  C_17
REMARK                            x       y       z     vdW  Elec       q    Type
REMARK                         _______ _______ _______ _____ _____    ______ ____
ROOT
ATOM      1  C   UNL     1       3.145   2.940  18.991  0.00  0.00    +0.000 C 
ATOM      2  C   UNL     1       1.763   2.498  18.469  0.00  0.00    +0.000 C 
ATOM      3  C   UNL     1       0.718   2.564  19.591  0.00  0.00    +0.000 C 
ATOM      4  C   UNL     1       0.714   3.881  20.369  0.00  0.00    +0.000 C 
ATOM      5  C   UNL     1       2.119   4.349  20.748  0.00  0.00    +0.000 C 
ATOM      6  C   UNL     1       3.057   4.428  19.519  0.00  0.00    +0.000 C 
ENDROOT
BRANCH   1   7
ATOM      7  N   UNL     1       4.206   2.609  18.018  0.00  0.00    +0.000 NA
ATOM      8  H   UNL     1       5.092   2.958  18.391  0.00  0.00    +0.000 HD
BRANCH   7   9
ATOM      9  C   UNL     1       3.983   3.283  16.729  0.00  0.00    +0.000 C 
BRANCH   9  15
ATOM     10 BR   UNL     1       7.618   7.189  17.505  0.00  0.00    +0.000 Br
ATOM     11  C   UNL     1       6.864   5.791  16.476  0.00  0.00    +0.000 A 
ATOM     12  C   UNL     1       7.377   5.513  15.212  0.00  0.00    +0.000 A 
ATOM     13  C   UNL     1       6.811   4.491  14.454  0.00  0.00    +0.000 A 
ATOM     14  C   UNL     1       5.733   3.759  14.955  0.00  0.00    +0.000 A 
ATOM     15  C   UNL     1       5.204   4.028  16.224  0.00  0.00    +0.000 A 
ATOM     16  C   UNL     1       5.785   5.057  16.985  0.00  0.00    +0.000 A 
ENDBRANCH   9  15
ENDBRANCH   7   9
ENDBRANCH   1   7
BRANCH   6  17
ATOM     17  N   UNL     1       2.611   5.436  18.516  0.00  0.00    +0.000 NA
ATOM     18  H   UNL     1       1.596   5.528  18.542  0.00  0.00    +0.000 HD
BRANCH  17  19
ATOM     19  C   UNL     1       3.210   6.759  18.739  0.00  0.00    +0.000 C 
BRANCH  19  20
ATOM     20  C   UNL     1       2.242   7.880  19.071  0.00  0.00    +0.000 A 
ATOM     21  C   UNL     1       1.809   8.727  18.029  0.00  0.00    +0.000 A 
ATOM     22  C   UNL     1       0.858   9.725  18.249  0.00  0.00    +0.000 A 
ATOM     23  C   UNL     1       0.318   9.890  19.520  0.00  0.00    +0.000 A 
ATOM     24  C   UNL     1       0.730   9.057  20.559  0.00  0.00    +0.000 A 
ATOM     25 BR   UNL     1      -0.021   9.280  22.281  0.00  0.00    +0.000 Br
ATOM     26  C   UNL     1       1.682   8.052  20.344  0.00  0.00    +0.000 A 
ENDBRANCH  19  20
ENDBRANCH  17  19
ENDBRANCH   6  17
TORSDOF 6
ENDMDL
MODEL 3
REMARK VINA RESULT:      -8.0      1.705      7.135
REMARK  Name = 
REMARK  6 active torsions:
REMARK  status: ('A' for Active; 'I' for Inactive)
REMARK    1  A    between atoms: C_6  and  C_7
REMARK    2  A    between atoms: C_7  and  N_8
REMARK    3  A    between atoms: N_8  and  C_9
REMARK    4  A    between atoms: C_14  and  N_15
REMARK    5  A    between atoms: N_15  and  C_16
REMARK    6  A    between atoms: C_16  and  C_17
REMARK                            x       y       z     vdW  Elec       q    Type
REMARK                         _______ _______ _______ _____ _____    ______ ____
ROOT
ATOM      1  C   UNL     1       3.505   3.424  19.298  0.00  0.00    +0.000 C 
ATOM      2  C   UNL     1       2.272   2.673  18.760  0.00  0.00    +0.000 C 
ATOM      3  C   UNL     1       1.166   2.622  19.824  0.00  0.00    +0.000 C 
ATOM      4  C   UNL     1       0.857   3.973  20.472  0.00  0.00    +0.000 C 
ATOM      5  C   UNL     1       2.118   4.742  20.866  0.00  0.00    +0.000 C 
ATOM      6  C   UNL     1       3.096   4.904  19.679  0.00  0.00    +0.000 C 
ENDROOT
BRANCH   1   7
ATOM      7  N   UNL     1       4.670   3.231  18.408  0.00  0.00    +0.000 NA
ATOM      8  H   UNL     1       5.301   4.024  18.544  0.00  0.00    +0.000 HD
BRANCH   7   9
ATOM      9  C   UNL     1       4.269   3.233  16.992  0.00  0.00    +0.000 C 
BRANCH   9  15
ATOM     10 BR   UNL     1       6.550   3.605  12.120  0.00  0.00    +0.000 Br
ATOM     11  C   UNL     1       6.381   4.134  13.930  0.00  0.00    +0.000 A 
ATOM     12  C   UNL     1       7.249   5.091  14.450  0.00  0.00    +0.000 A 
ATOM     13  C   UNL     1       7.129   5.469  15.786  0.00  0.00    +0.000 A 
ATOM     14  C   UNL     1       6.152   4.885  16.595  0.00  0.00    +0.000 A 
ATOM     15  C   UNL     1       5.274   3.920  16.086  0.00  0.00    +0.000 A 
ATOM     16  C   UNL     1       5.398   3.549  14.736  0.00  0.00    +0.000 A 
ENDBRANCH   9  15
ENDBRANCH   7   9
ENDBRANCH   1   7
BRANCH   6  17
ATOM     17  N   UNL     1       2.525   5.714  18.565  0.00  0.00    +0.000 NA
ATOM     18  H   UNL     1       1.509   5.745  18.643  0.00  0.00    +0.000 HD
BRANCH  17  19
ATOM     19  C   UNL     1       3.038   7.091  18.548  0.00  0.00    +0.000 C 
BRANCH  19  20
ATOM     20  C   UNL     1       2.057   8.172  18.965  0.00  0.00    +0.000 A 
ATOM     21  C   UNL     1       1.554   9.043  17.976  0.00  0.00    +0.000 A 
ATOM     22  C   UNL     1       0.589  10.005  18.277  0.00  0.00    +0.000 A 
ATOM     23  C   UNL     1       0.104  10.110  19.576  0.00  0.00    +0.000 A 
ATOM     24  C   UNL     1       0.586   9.251  20.563  0.00  0.00    +0.000 A 
ATOM     25 BR   UNL     1      -0.089   9.391  22.325  0.00  0.00    +0.000 Br
ATOM     26  C   UNL     1       1.553   8.281  20.267  0.00  0.00    +0.000 A 
ENDBRANCH  19  20
ENDBRANCH  17  19
ENDBRANCH   6  17
TORSDOF 6
ENDMDL
MODEL 4
REMARK VINA RESULT:      -8.0      1.622      6.479
REMARK  Name = 
REMARK  6 active torsions:
REMARK  status: ('A' for Active; 'I' for Inactive)
REMARK    1  A    between atoms: C_6  and  C_7
REMARK    2  A    between atoms: C_7  and  N_8
REMARK    3  A    between atoms: N_8  and  C_9
REMARK    4  A    between atoms: C_14  and  N_15
REMARK    5  A    between atoms: N_15  and  C_16
REMARK    6  A    between atoms: C_16  and  C_17
REMARK                            x       y       z     vdW  Elec       q    Type
REMARK                         _______ _______ _______ _____ _____    ______ ____
ROOT
ATOM      1  C   UNL     1       3.461   3.031  19.655  0.00  0.00    +0.000 C 
ATOM      2  C   UNL     1       2.472   2.185  18.830  0.00  0.00    +0.000 C 
ATOM      3  C   UNL     1       1.125   2.071  19.556  0.00  0.00    +0.000 C 
ATOM      4  C   UNL     1       0.564   3.406  20.051  0.00  0.00    +0.000 C 
ATOM      5  C   UNL     1       1.617   4.269  20.745  0.00  0.00    +0.000 C 
ATOM      6  C   UNL     1       2.869   4.483  19.861  0.00  0.00    +0.000 C 
ENDROOT
BRANCH   1   7
ATOM      7  N   UNL     1       4.834   2.908  19.121  0.00  0.00    +0.000 NA
ATOM      8  H   UNL     1       5.284   2.121  19.593  0.00  0.00    +0.000 HD
BRANCH   7   9
ATOM      9  C   UNL     1       5.634   4.107  19.416  0.00  0.00    +0.000 C 
BRANCH   9  15
ATOM     10 BR   UNL     1       6.180   4.109  14.052  0.00  0.00    +0.000 Br
ATOM     11  C   UNL     1       6.462   4.877  15.759  0.00  0.00    +0.000 A 
ATOM     12  C   UNL     1       7.218   6.040  15.874  0.00  0.00    +0.000 A 
ATOM     13  C   UNL     1       7.432   6.595  17.133  0.00  0.00    +0.000 A 
ATOM     14  C   UNL     1       6.901   5.982  18.270  0.00  0.00    +0.000 A 
ATOM     15  C   UNL     1       6.140   4.810  18.171  0.00  0.00    +0.000 A 
ATOM     16  C   UNL     1       5.923   4.261  16.895  0.00  0.00    +0.000 A 
ENDBRANCH   9  15
ENDBRANCH   7   9
ENDBRANCH   1   7
BRANCH   6  17
ATOM     17  N   UNL     1       2.571   5.233  18.609  0.00  0.00    +0.000 NA
ATOM     18  H   UNL     1       1.564   5.349  18.503  0.00  0.00    +0.000 HD
BRANCH  17  19
ATOM     19  C   UNL     1       3.203   6.559  18.581  0.00  0.00    +0.000 C 
BRANCH  19  20
ATOM     20  C   UNL     1       2.304   7.732  18.926  0.00  0.00    +0.000 A 
ATOM     21  C   UNL     1       1.851   8.565  17.881  0.00  0.00    +0.000 A 
ATOM     22  C   UNL     1       0.958   9.611  18.119  0.00  0.00    +0.000 A 
ATOM     23  C   UNL     1       0.497   9.840  19.411  0.00  0.00    +0.000 A 
ATOM     24  C   UNL     1       0.930   9.022  20.454  0.00  0.00    +0.000 A 
ATOM     25 BR   UNL     1       0.286   9.332  22.205  0.00  0.00    +0.000 Br
ATOM     26  C   UNL     1       1.824   7.968  20.221  0.00  0.00    +0.000 A 
ENDBRANCH  19  20
ENDBRANCH  17  19
ENDBRANCH   6  17
TORSDOF 6
ENDMDL
MODEL 5
REMARK VINA RESULT:      -7.9      1.333      1.623
REMARK  Name = 
REMARK  6 active torsions:
REMARK  status: ('A' for Active; 'I' for Inactive)
REMARK    1  A    between atoms: C_6  and  C_7
REMARK    2  A    between atoms: C_7  and  N_8
REMARK    3  A    between atoms: N_8  and  C_9
REMARK    4  A    between atoms: C_14  and  N_15
REMARK    5  A    between atoms: N_15  and  C_16
REMARK    6  A    between atoms: C_16  and  C_17
REMARK                            x       y       z     vdW  Elec       q    Type
REMARK                         _______ _______ _______ _____ _____    ______ ____
ROOT
ATOM      1  C   UNL     1       1.675   5.033  20.523  0.00  0.00    +0.000 C 
ATOM      2  C   UNL     1       2.236   3.967  21.483  0.00  0.00    +0.000 C 
ATOM      3  C   UNL     1       1.542   2.617  21.255  0.00  0.00    +0.000 C 
ATOM      4  C   UNL     1       1.479   2.184  19.789  0.00  0.00    +0.000 C 
ATOM      5  C   UNL     1       1.047   3.316  18.856  0.00  0.00    +0.000 C 
ATOM      6  C   UNL     1       1.923   4.579  19.028  0.00  0.00    +0.000 C 
ENDROOT
BRANCH   1   7
ATOM      7  N   UNL     1       2.116   6.386  20.921  0.00  0.00    +0.000 NA
ATOM      8  H   UNL     1       1.405   6.776  21.544  0.00  0.00    +0.000 HD
BRANCH   7   9
ATOM      9  C   UNL     1       2.213   7.283  19.758  0.00  0.00    +0.000 C 
BRANCH   9  15
ATOM     10 BR   UNL     1      -0.801  10.431  22.934  0.00  0.00    +0.000 Br
ATOM     11  C   UNL     1       0.038  10.040  21.283  0.00  0.00    +0.000 A 
ATOM     12  C   UNL     1      -0.143  10.896  20.200  0.00  0.00    +0.000 A 
ATOM     13  C   UNL     1       0.466  10.598  18.983  0.00  0.00    +0.000 A 
ATOM     14  C   UNL     1       1.243   9.445  18.851  0.00  0.00    +0.000 A 
ATOM     15  C   UNL     1       1.433   8.574  19.931  0.00  0.00    +0.000 A 
ATOM     16  C   UNL     1       0.820   8.885  21.157  0.00  0.00    +0.000 A 
ENDBRANCH   9  15
ENDBRANCH   7   9
ENDBRANCH   1   7
BRANCH   6  17
ATOM     17  N   UNL     1       3.349   4.348  18.661  0.00  0.00    +0.000 NA
ATOM     18  H   UNL     1       3.777   3.699  19.320  0.00  0.00    +0.000 HD
BRANCH  17  19
ATOM     19  C   UNL     1       3.502   3.808  17.303  0.00  0.00    +0.000 C 
BRANCH  19  20
ATOM     20  C   UNL     1       4.791   4.166  16.586  0.00  0.00    +0.000 A 
ATOM     21  C   UNL     1       5.868   4.670  17.345  0.00  0.00    +0.000 A 
ATOM     22  C   UNL     1       7.106   4.942  16.762  0.00  0.00    +0.000 A 
ATOM     23  C   UNL     1       7.291   4.710  15.404  0.00  0.00    +0.000 A 
ATOM     24  C   UNL     1       6.239   4.206  14.640  0.00  0.00    +0.000 A 
ATOM     25 BR   UNL     1       6.505   3.879  12.795  0.00  0.00    +0.000 Br
ATOM     26  C   UNL     1       4.994   3.928  15.220  0.00  0.00    +0.000 A 
ENDBRANCH  19  20
ENDBRANCH  17  19
ENDBRANCH   6  17
TORSDOF 6
ENDMDL
MODEL 6
REMARK VINA RESULT:      -7.9      1.213      1.342
REMARK  Name = 
REMARK  6 active torsions:
REMARK  status: ('A' for Active; 'I' for Inactive)
REMARK    1  A    between atoms: C_6  and  C_7
REMARK    2  A    between atoms: C_7  and  N_8
REMARK    3  A    between atoms: N_8  and  C_9
REMARK    4  A    between atoms: C_14  and  N_15
REMARK    5  A    between atoms: N_15  and  C_16
REMARK    6  A    between atoms: C_16  and  C_17
REMARK                            x       y       z     vdW  Elec       q    Type
REMARK                         _______ _______ _______ _____ _____    ______ ____
ROOT
ATOM      1  C   UNL     1       1.698   4.696  18.791  0.00  0.00    +0.000 C 
ATOM      2  C   UNL     1       2.195   4.707  20.250  0.00  0.00    +0.000 C 
ATOM      3  C   UNL     1       1.463   3.642  21.076  0.00  0.00    +0.000 C 
ATOM      4  C   UNL     1       1.428   2.257  20.426  0.00  0.00    +0.000 C 
ATOM      5  C   UNL     1       1.061   2.310  18.943  0.00  0.00    +0.000 C 
ATOM      6  C   UNL     1       1.974   3.277  18.151  0.00  0.00    +0.000 C 
ENDROOT
BRANCH   1   7
ATOM      7  N   UNL     1       2.172   5.892  18.063  0.00  0.00    +0.000 NA
ATOM      8  H   UNL     1       2.865   5.585  17.377  0.00  0.00    +0.000 HD
BRANCH   7   9
ATOM      9  C   UNL     1       2.844   6.839  18.967  0.00  0.00    +0.000 C 
BRANCH   9  15
ATOM     10 BR   UNL     1      -0.083   9.703  22.475  0.00  0.00    +0.000 Br
ATOM     11  C   UNL     1       0.659   9.423  20.756  0.00  0.00    +0.000 A 
ATOM     12  C   UNL     1       0.367  10.314  19.727  0.00  0.00    +0.000 A 
ATOM     13  C   UNL     1       0.905  10.097  18.461  0.00  0.00    +0.000 A 
ATOM     14  C   UNL     1       1.721   8.989  18.225  0.00  0.00    +0.000 A 
ATOM     15  C   UNL     1       2.022   8.082  19.250  0.00  0.00    +0.000 A 
ATOM     16  C   UNL     1       1.480   8.312  20.526  0.00  0.00    +0.000 A 
ENDBRANCH   9  15
ENDBRANCH   7   9
ENDBRANCH   1   7
BRANCH   6  17
ATOM     17  N   UNL     1       3.401   2.848  18.144  0.00  0.00    +0.000 NA
ATOM     18  H   UNL     1       3.462   1.837  18.257  0.00  0.00    +0.000 HD
BRANCH  17  19
ATOM     19  C   UNL     1       4.098   3.225  16.907  0.00  0.00    +0.000 C 
BRANCH  19  20
ATOM     20  C   UNL     1       5.055   4.398  17.013  0.00  0.00    +0.000 A 
ATOM     21  C   UNL     1       4.938   5.451  16.081  0.00  0.00    +0.000 A 
ATOM     22  C   UNL     1       5.732   6.595  16.172  0.00  0.00    +0.000 A 
ATOM     23  C   UNL     1       6.657   6.710  17.204  0.00  0.00    +0.000 A 
ATOM     24  C   UNL     1       6.781   5.681  18.137  0.00  0.00    +0.000 A 
ATOM     25 BR   UNL     1       8.032   5.852  19.546  0.00  0.00    +0.000 Br
ATOM     26  C   UNL     1       5.985   4.531  18.053  0.00  0.00    +0.000 A 
ENDBRANCH  19  20
ENDBRANCH  17  19
ENDBRANCH   6  17
TORSDOF 6
ENDMDL
MODEL 7
REMARK VINA RESULT:      -7.9      2.410      6.519
REMARK  Name = 
REMARK  6 active torsions:
REMARK  status: ('A' for Active; 'I' for Inactive)
REMARK    1  A    between atoms: C_6  and  C_7
REMARK    2  A    between atoms: C_7  and  N_8
REMARK    3  A    between atoms: N_8  and  C_9
REMARK    4  A    between atoms: C_14  and  N_15
REMARK    5  A    between atoms: N_15  and  C_16
REMARK    6  A    between atoms: C_16  and  C_17
REMARK                            x       y       z     vdW  Elec       q    Type
REMARK                         _______ _______ _______ _____ _____    ______ ____
ROOT
ATOM      1  C   UNL     1       6.035   4.934  16.647  0.00  0.00    +0.000 C 
ATOM      2  C   UNL     1       6.656   4.469  17.978  0.00  0.00    +0.000 C 
ATOM      3  C   UNL     1       7.864   5.342  18.344  0.00  0.00    +0.000 C 
ATOM      4  C   UNL     1       7.601   6.846  18.255  0.00  0.00    +0.000 C 
ATOM      5  C   UNL     1       6.862   7.243  16.977  0.00  0.00    +0.000 C 
ATOM      6  C   UNL     1       5.556   6.435  16.785  0.00  0.00    +0.000 C 
ENDROOT
BRANCH   1   7
ATOM      7  N   UNL     1       5.068   3.939  16.139  0.00  0.00    +0.000 NA
ATOM      8  H   UNL     1       4.207   4.434  15.899  0.00  0.00    +0.000 HD
BRANCH   7   9
ATOM      9  C   UNL     1       4.725   2.949  17.173  0.00  0.00    +0.000 C 
BRANCH   9  15
ATOM     10 BR   UNL     1       1.931   2.701  21.778  0.00  0.00    +0.000 Br
ATOM     11  C   UNL     1       2.115   3.199  19.962  0.00  0.00    +0.000 A 
ATOM     12  C   UNL     1       1.045   3.799  19.302  0.00  0.00    +0.000 A 
ATOM     13  C   UNL     1       1.181   4.153  17.961  0.00  0.00    +0.000 A 
ATOM     14  C   UNL     1       2.376   3.899  17.285  0.00  0.00    +0.000 A 
ATOM     15  C   UNL     1       3.459   3.294  17.935  0.00  0.00    +0.000 A 
ATOM     16  C   UNL     1       3.316   2.946  19.289  0.00  0.00    +0.000 A 
ENDBRANCH   9  15
ENDBRANCH   7   9
ENDBRANCH   1   7
BRANCH   6  17
ATOM     17  N   UNL     1       4.556   6.688  17.861  0.00  0.00    +0.000 NA
ATOM     18  H   UNL     1       5.002   7.163  18.645  0.00  0.00    +0.000 HD
BRANCH  17  19
ATOM     19  C   UNL     1       3.423   7.502  17.399  0.00  0.00    +0.000 C 
BRANCH  19  20
ATOM     20  C   UNL     1       2.447   7.952  18.470  0.00  0.00    +0.000 A 
ATOM     21  C   UNL     1       2.414   7.247  19.692  0.00  0.00    +0.000 A 
ATOM     22  C   UNL     1       1.600   7.658  20.748  0.00  0.00    +0.000 A 
ATOM     23  C   UNL     1       0.803   8.788  20.602  0.00  0.00    +0.000 A 
ATOM     24  C   UNL     1       0.828   9.500  19.403  0.00  0.00    +0.000 A 
ATOM     25 BR   UNL     1      -0.248  11.044  19.218  0.00  0.00    +0.000 Br
ATOM     26  C   UNL     1       1.646   9.094  18.340  0.00  0.00    +0.000 A 
ENDBRANCH  19  20
ENDBRANCH  17  19
ENDBRANCH   6  17
TORSDOF 6
ENDMDL
MODEL 8
REMARK VINA RESULT:      -7.8      1.531      1.831
REMARK  Name = 
REMARK  6 active torsions:
REMARK  status: ('A' for Active; 'I' for Inactive)
REMARK    1  A    between atoms: C_6  and  C_7
REMARK    2  A    between atoms: C_7  and  N_8
REMARK    3  A    between atoms: N_8  and  C_9
REMARK    4  A    between atoms: C_14  and  N_15
REMARK    5  A    between atoms: N_15  and  C_16
REMARK    6  A    between atoms: C_16  and  C_17
REMARK                            x       y       z     vdW  Elec       q    Type
REMARK                         _______ _______ _______ _____ _____    ______ ____
ROOT
ATOM      1  C   UNL     1       2.126   5.182  19.505  0.00  0.00    +0.000 C 
ATOM      2  C   UNL     1       1.560   4.398  20.705  0.00  0.00    +0.000 C 
ATOM      3  C   UNL     1       0.744   3.191  20.223  0.00  0.00    +0.000 C 
ATOM      4  C   UNL     1       1.455   2.330  19.177  0.00  0.00    +0.000 C 
ATOM      5  C   UNL     1       2.116   3.161  18.078  0.00  0.00    +0.000 C 
ATOM      6  C   UNL     1       3.066   4.238  18.654  0.00  0.00    +0.000 C 
ENDROOT
BRANCH   1   7
ATOM      7  N   UNL     1       2.659   6.492  19.935  0.00  0.00    +0.000 NA
ATOM      8  H   UNL     1       2.151   6.775  20.775  0.00  0.00    +0.000 HD
BRANCH   7   9
ATOM      9  C   UNL     1       2.426   7.527  18.916  0.00  0.00    +0.000 C 
BRANCH   9  15
ATOM     10 BR   UNL     1      -0.396   9.742  22.941  0.00  0.00    +0.000 Br
ATOM     11  C   UNL     1       0.166   9.677  21.135  0.00  0.00    +0.000 A 
ATOM     12  C   UNL     1      -0.351  10.590  20.220  0.00  0.00    +0.000 A 
ATOM     13  C   UNL     1       0.057  10.531  18.889  0.00  0.00    +0.000 A 
ATOM     14  C   UNL     1       0.970   9.557  18.477  0.00  0.00    +0.000 A 
ATOM     15  C   UNL     1       1.497   8.631  19.386  0.00  0.00    +0.000 A 
ATOM     16  C   UNL     1       1.085   8.701  20.728  0.00  0.00    +0.000 A 
ENDBRANCH   9  15
ENDBRANCH   7   9
ENDBRANCH   1   7
BRANCH   6  17
ATOM     17  N   UNL     1       4.220   3.653  19.394  0.00  0.00    +0.000 NA
ATOM     18  H   UNL     1       4.059   2.661  19.563  0.00  0.00    +0.000 HD
BRANCH  17  19
ATOM     19  C   UNL     1       5.491   3.807  18.671  0.00  0.00    +0.000 C 
BRANCH  19  20
ATOM     20  C   UNL     1       5.415   4.526  17.337  0.00  0.00    +0.000 A 
ATOM     21  C   UNL     1       5.129   5.907  17.330  0.00  0.00    +0.000 A 
ATOM     22  C   UNL     1       5.125   6.644  16.145  0.00  0.00    +0.000 A 
ATOM     23  C   UNL     1       5.413   6.011  14.941  0.00  0.00    +0.000 A 
ATOM     24  C   UNL     1       5.704   4.647  14.931  0.00  0.00    +0.000 A 
ATOM     25 BR   UNL     1       6.109   3.796  13.291  0.00  0.00    +0.000 Br
ATOM     26  C   UNL     1       5.713   3.902  16.118  0.00  0.00    +0.000 A 
ENDBRANCH  19  20
ENDBRANCH  17  19
ENDBRANCH   6  17
TORSDOF 6
ENDMDL
MODEL 9
REMARK VINA RESULT:      -7.8      1.762      2.361
REMARK  Name = 
REMARK  6 active torsions:
REMARK  status: ('A' for Active; 'I' for Inactive)
REMARK    1  A    between atoms: C_6  and  C_7
REMARK    2  A    between atoms: C_7  and  N_8
REMARK    3  A    between atoms: N_8  and  C_9
REMARK    4  A    between atoms: C_14  and  N_15
REMARK    5  A    between atoms: N_15  and  C_16
REMARK    6  A    between atoms: C_16  and  C_17
REMARK                            x       y       z     vdW  Elec       q    Type
REMARK                         _______ _______ _______ _____ _____    ______ ____
ROOT
ATOM      1  C   UNL     1       1.630   5.453  19.962  0.00  0.00    +0.000 C 
ATOM      2  C   UNL     1       1.405   4.164  20.776  0.00  0.00    +0.000 C 
ATOM      3  C   UNL     1       0.698   3.104  19.920  0.00  0.00    +0.000 C 
ATOM      4  C   UNL     1       1.328   2.887  18.543  0.00  0.00    +0.000 C 
ATOM      5  C   UNL     1       1.658   4.198  17.830  0.00  0.00    +0.000 C 
ATOM      6  C   UNL     1       2.531   5.131  18.703  0.00  0.00    +0.000 C 
ENDROOT
BRANCH   1   7
ATOM      7  N   UNL     1       2.038   6.568  20.843  0.00  0.00    +0.000 NA
ATOM      8  H   UNL     1       1.405   6.580  21.645  0.00  0.00    +0.000 HD
BRANCH   7   9
ATOM      9  C   UNL     1       1.903   7.866  20.163  0.00  0.00    +0.000 C 
BRANCH   9  15
ATOM     10 BR   UNL     1      -1.487  12.048  19.856  0.00  0.00    +0.000 Br
ATOM     11  C   UNL     1      -0.558  10.720  20.834  0.00  0.00    +0.000 A 
ATOM     12  C   UNL     1      -0.672  10.683  22.221  0.00  0.00    +0.000 A 
ATOM     13  C   UNL     1       0.023   9.711  22.938  0.00  0.00    +0.000 A 
ATOM     14  C   UNL     1       0.834   8.791  22.269  0.00  0.00    +0.000 A 
ATOM     15  C   UNL     1       0.959   8.818  20.875  0.00  0.00    +0.000 A 
ATOM     16  C   UNL     1       0.250   9.797  20.158  0.00  0.00    +0.000 A 
ENDBRANCH   9  15
ENDBRANCH   7   9
ENDBRANCH   1   7
BRANCH   6  17
ATOM     17  N   UNL     1       3.869   4.552  19.008  0.00  0.00    +0.000 NA
ATOM     18  H   UNL     1       3.844   4.072  19.907  0.00  0.00    +0.000 HD
BRANCH  17  19
ATOM     19  C   UNL     1       4.322   3.604  17.980  0.00  0.00    +0.000 C 
BRANCH  19  20
ATOM     20  C   UNL     1       5.238   4.169  16.910  0.00  0.00    +0.000 A 
ATOM     21  C   UNL     1       6.213   5.116  17.288  0.00  0.00    +0.000 A 
ATOM     22  C   UNL     1       7.138   5.614  16.370  0.00  0.00    +0.000 A 
ATOM     23  C   UNL     1       7.108   5.168  15.053  0.00  0.00    +0.000 A 
ATOM     24  C   UNL     1       6.155   4.227  14.665  0.00  0.00    +0.000 A 
ATOM     25 BR   UNL     1       6.130   3.615  12.875  0.00  0.00    +0.000 Br
ATOM     26  C   UNL     1       5.225   3.721  15.582  0.00  0.00    +0.000 A 
ENDBRANCH  19  20
ENDBRANCH  17  19
ENDBRANCH   6  17
TORSDOF 6
ENDMDL
