MODEL 1
REMARK VINA RESULT:      -8.1      0.000      0.000
REMARK  Name = 
REMARK  7 active torsions:
REMARK  status: ('A' for Active; 'I' for Inactive)
REMARK    1  A    between atoms: C_1  and  C_2
REMARK    2  A    between atoms: C_5  and  C_6
REMARK    3  A    between atoms: N_8  and  C_9
REMARK    4  A    between atoms: C_9  and  C_10
REMARK    5  A    between atoms: N_12  and  C_13
REMARK    6  A    between atoms: C_13  and  C_14
REMARK    7  A    between atoms: C_19  and  C_20
REMARK                            x       y       z     vdW  Elec       q    Type
REMARK                         _______ _______ _______ _____ _____    ______ ____
ROOT
ATOM      1  C   UNL     1       8.218   8.374  18.236  0.00  0.00    +0.000 A 
ATOM      2  C   UNL     1       7.469   7.968  17.209  0.00  0.00    +0.000 A 
ATOM      3  N   UNL     1       7.238   6.650  17.403  0.00  0.00    +0.000 N 
ATOM      4  C   UNL     1       7.884   6.247  18.566  0.00  0.00    +0.000 A 
ATOM      5  O   UNL     1       7.908   5.134  19.029  0.00  0.00    +0.000 OA
ATOM      6  O   UNL     1       8.543   7.345  19.134  0.00  0.00    +0.000 OA
ENDROOT
BRANCH   1  11
ATOM      7  C   UNL     1      10.129  13.766  19.052  0.00  0.00    +0.000 C 
ATOM      8  C   UNL     1       9.621  12.366  18.866  0.00  0.00    +0.000 A 
ATOM      9  C   UNL     1       9.977  11.344  19.750  0.00  0.00    +0.000 A 
ATOM     10  C   UNL     1       9.497  10.045  19.562  0.00  0.00    +0.000 A 
ATOM     11  C   UNL     1       8.663   9.741  18.474  0.00  0.00    +0.000 A 
ATOM     12  C   UNL     1       8.309  10.768  17.593  0.00  0.00    +0.000 A 
ATOM     13  C   UNL     1       8.783  12.069  17.786  0.00  0.00    +0.000 A 
ENDBRANCH   1  11
BRANCH   3  14
ATOM     14  C   UNL     1       6.418   5.779  16.577  0.00  0.00    +0.000 C 
BRANCH  14  15
ATOM     15  C   UNL     1       4.892   5.818  16.876  0.00  0.00    +0.000 C 
ATOM     16  O   UNL     1       4.274   6.884  16.927  0.00  0.00    +0.000 OA
ATOM     17  N   UNL     1       4.255   4.617  17.155  0.00  0.00    +0.000 N 
ATOM     18  H   UNL     1       4.716   3.748  16.913  0.00  0.00    +0.000 HD
BRANCH  17  19
ATOM     19  C   UNL     1       2.809   4.616  17.374  0.00  0.00    +0.000 C 
BRANCH  19  20
ATOM     20  C   UNL     1       2.369   4.200  18.770  0.00  0.00    +0.000 A 
ATOM     21  C   UNL     1       2.168   2.824  18.997  0.00  0.00    +0.000 A 
ATOM     22  C   UNL     1       1.824   2.329  20.258  0.00  0.00    +0.000 A 
ATOM     23  C   UNL     1       1.696   3.191  21.340  0.00  0.00    +0.000 A 
ATOM     24  C   UNL     1       1.907   4.547  21.150  0.00  0.00    +0.000 A 
ATOM     25  C   UNL     1       2.229   5.069  19.880  0.00  0.00    +0.000 A 
ATOM     26  C   UNL     1       2.460   6.555  19.852  0.00  0.00    +0.000 C 
ENDBRANCH  19  20
ENDBRANCH  17  19
ENDBRANCH  14  15
ENDBRANCH   3  14
TORSDOF 5
ENDMDL
MODEL 2
REMARK VINA RESULT:      -8.1      0.794      1.345
REMARK  Name = 
REMARK  7 active torsions:
REMARK  status: ('A' for Active; 'I' for Inactive)
REMARK    1  A    between atoms: C_1  and  C_2
REMARK    2  A    between atoms: C_5  and  C_6
REMARK    3  A    between atoms: N_8  and  C_9
REMARK    4  A    between atoms: C_9  and  C_10
REMARK    5  A    between atoms: N_12  and  C_13
REMARK    6  A    between atoms: C_13  and  C_14
REMARK    7  A    between atoms: C_19  and  C_20
REMARK                            x       y       z     vdW  Elec       q    Type
REMARK                         _______ _______ _______ _____ _____    ______ ____
ROOT
ATOM      1  C   UNL     1       8.396   8.609  18.336  0.00  0.00    +0.000 A 
ATOM      2  C   UNL     1       7.667   8.141  17.322  0.00  0.00    +0.000 A 
ATOM      3  N   UNL     1       7.436   6.836  17.588  0.00  0.00    +0.000 N 
ATOM      4  C   UNL     1       8.062   6.503  18.784  0.00  0.00    +0.000 A 
ATOM      5  O   UNL     1       8.081   5.419  19.311  0.00  0.00    +0.000 OA
ATOM      6  O   UNL     1       8.709   7.635  19.298  0.00  0.00    +0.000 OA
ENDROOT
BRANCH   1  11
ATOM      7  C   UNL     1       9.992  14.104  19.134  0.00  0.00    +0.000 C 
ATOM      8  C   UNL     1       9.587  12.679  18.900  0.00  0.00    +0.000 A 
ATOM      9  C   UNL     1       8.720  12.334  17.860  0.00  0.00    +0.000 A 
ATOM     10  C   UNL     1       8.352  11.001  17.657  0.00  0.00    +0.000 A 
ATOM     11  C   UNL     1       8.834   9.989  18.503  0.00  0.00    +0.000 A 
ATOM     12  C   UNL     1       9.702  10.340  19.541  0.00  0.00    +0.000 A 
ATOM     13  C   UNL     1      10.077  11.672  19.739  0.00  0.00    +0.000 A 
ENDBRANCH   1  11
BRANCH   3  14
ATOM     14  C   UNL     1       6.632   5.916  16.800  0.00  0.00    +0.000 C 
BRANCH  14  15
ATOM     15  C   UNL     1       5.102   6.194  16.803  0.00  0.00    +0.000 C 
ATOM     16  O   UNL     1       4.562   6.821  15.888  0.00  0.00    +0.000 OA
ATOM     17  N   UNL     1       4.369   5.778  17.904  0.00  0.00    +0.000 N 
ATOM     18  H   UNL     1       4.776   5.100  18.537  0.00  0.00    +0.000 HD
BRANCH  17  19
ATOM     19  C   UNL     1       2.918   5.968  17.903  0.00  0.00    +0.000 C 
BRANCH  19  20
ATOM     20  C   UNL     1       2.121   4.847  18.554  0.00  0.00    +0.000 A 
ATOM     21  C   UNL     1       1.968   3.656  17.818  0.00  0.00    +0.000 A 
ATOM     22  C   UNL     1       1.308   2.543  18.348  0.00  0.00    +0.000 A 
ATOM     23  C   UNL     1       0.804   2.576  19.641  0.00  0.00    +0.000 A 
ATOM     24  C   UNL     1       0.957   3.728  20.396  0.00  0.00    +0.000 A 
ATOM     25  C   UNL     1       1.597   4.870  19.871  0.00  0.00    +0.000 A 
ATOM     26  C   UNL     1       1.712   6.022  20.830  0.00  0.00    +0.000 C 
ENDBRANCH  19  20
ENDBRANCH  17  19
ENDBRANCH  14  15
ENDBRANCH   3  14
TORSDOF 5
ENDMDL
MODEL 3
REMARK VINA RESULT:      -8.0      1.604      2.377
REMARK  Name = 
REMARK  7 active torsions:
REMARK  status: ('A' for Active; 'I' for Inactive)
REMARK    1  A    between atoms: C_1  and  C_2
REMARK    2  A    between atoms: C_5  and  C_6
REMARK    3  A    between atoms: N_8  and  C_9
REMARK    4  A    between atoms: C_9  and  C_10
REMARK    5  A    between atoms: N_12  and  C_13
REMARK    6  A    between atoms: C_13  and  C_14
REMARK    7  A    between atoms: C_19  and  C_20
REMARK                            x       y       z     vdW  Elec       q    Type
REMARK                         _______ _______ _______ _____ _____    ______ ____
ROOT
ATOM      1  C   UNL     1       8.274   8.888  18.255  0.00  0.00    +0.000 A 
ATOM      2  C   UNL     1       8.495   7.635  18.658  0.00  0.00    +0.000 A 
ATOM      3  N   UNL     1       7.668   6.849  17.931  0.00  0.00    +0.000 N 
ATOM      4  C   UNL     1       6.914   7.653  17.083  0.00  0.00    +0.000 A 
ATOM      5  O   UNL     1       6.064   7.287  16.310  0.00  0.00    +0.000 OA
ATOM      6  O   UNL     1       7.276   8.993  17.273  0.00  0.00    +0.000 OA
ENDROOT
BRANCH   1  11
ATOM      7  C   UNL     1      11.261  13.478  20.095  0.00  0.00    +0.000 C 
ATOM      8  C   UNL     1      10.463  12.294  19.633  0.00  0.00    +0.000 A 
ATOM      9  C   UNL     1       9.929  11.381  20.546  0.00  0.00    +0.000 A 
ATOM     10  C   UNL     1       9.189  10.283  20.099  0.00  0.00    +0.000 A 
ATOM     11  C   UNL     1       8.984  10.069  18.726  0.00  0.00    +0.000 A 
ATOM     12  C   UNL     1       9.521  10.987  17.818  0.00  0.00    +0.000 A 
ATOM     13  C   UNL     1      10.253  12.090  18.265  0.00  0.00    +0.000 A 
ENDBRANCH   1  11
BRANCH   3  14
ATOM     14  C   UNL     1       7.589   5.398  17.972  0.00  0.00    +0.000 C 
BRANCH  14  15
ATOM     15  C   UNL     1       6.674   4.809  19.083  0.00  0.00    +0.000 C 
ATOM     16  O   UNL     1       6.815   5.129  20.266  0.00  0.00    +0.000 OA
ATOM     17  N   UNL     1       5.738   3.855  18.715  0.00  0.00    +0.000 N 
ATOM     18  H   UNL     1       5.497   3.755  17.736  0.00  0.00    +0.000 HD
BRANCH  17  19
ATOM     19  C   UNL     1       4.820   3.334  19.728  0.00  0.00    +0.000 C 
BRANCH  19  20
ATOM     20  C   UNL     1       3.345   3.412  19.364  0.00  0.00    +0.000 A 
ATOM     21  C   UNL     1       3.030   3.718  18.026  0.00  0.00    +0.000 A 
ATOM     22  C   UNL     1       1.708   3.753  17.571  0.00  0.00    +0.000 A 
ATOM     23  C   UNL     1       0.661   3.458  18.434  0.00  0.00    +0.000 A 
ATOM     24  C   UNL     1       0.943   3.135  19.752  0.00  0.00    +0.000 A 
ATOM     25  C   UNL     1       2.268   3.119  20.236  0.00  0.00    +0.000 A 
ATOM     26  C   UNL     1       2.404   2.714  21.678  0.00  0.00    +0.000 C 
ENDBRANCH  19  20
ENDBRANCH  17  19
ENDBRANCH  14  15
ENDBRANCH   3  14
TORSDOF 5
ENDMDL
MODEL 4
REMARK VINA RESULT:      -7.8      1.637      9.063
REMARK  Name = 
REMARK  7 active torsions:
REMARK  status: ('A' for Active; 'I' for Inactive)
REMARK    1  A    between atoms: C_1  and  C_2
REMARK    2  A    between atoms: C_5  and  C_6
REMARK    3  A    between atoms: N_8  and  C_9
REMARK    4  A    between atoms: C_9  and  C_10
REMARK    5  A    between atoms: N_12  and  C_13
REMARK    6  A    between atoms: C_13  and  C_14
REMARK    7  A    between atoms: C_19  and  C_20
REMARK                            x       y       z     vdW  Elec       q    Type
REMARK                         _______ _______ _______ _____ _____    ______ ____
ROOT
ATOM      1  C   UNL     1       5.208   5.124  17.777  0.00  0.00    +0.000 A 
ATOM      2  C   UNL     1       5.753   6.319  18.014  0.00  0.00    +0.000 A 
ATOM      3  N   UNL     1       6.659   6.526  17.032  0.00  0.00    +0.000 N 
ATOM      4  C   UNL     1       6.676   5.417  16.194  0.00  0.00    +0.000 A 
ATOM      5  O   UNL     1       7.379   5.253  15.228  0.00  0.00    +0.000 OA
ATOM      6  O   UNL     1       5.747   4.475  16.655  0.00  0.00    +0.000 OA
ENDROOT
BRANCH   1  11
ATOM      7  C   UNL     1       1.078   2.699  21.009  0.00  0.00    +0.000 C 
ATOM      8  C   UNL     1       2.140   3.316  20.147  0.00  0.00    +0.000 A 
ATOM      9  C   UNL     1       2.994   2.525  19.372  0.00  0.00    +0.000 A 
ATOM     10  C   UNL     1       3.978   3.116  18.576  0.00  0.00    +0.000 A 
ATOM     11  C   UNL     1       4.138   4.510  18.552  0.00  0.00    +0.000 A 
ATOM     12  C   UNL     1       3.280   5.296  19.328  0.00  0.00    +0.000 A 
ATOM     13  C   UNL     1       2.290   4.707  20.118  0.00  0.00    +0.000 A 
ENDBRANCH   1  11
BRANCH   3  14
ATOM     14  C   UNL     1       7.465   7.719  16.830  0.00  0.00    +0.000 C 
BRANCH  14  15
ATOM     15  C   UNL     1       8.226   8.232  18.085  0.00  0.00    +0.000 C 
ATOM     16  O   UNL     1       8.567   7.464  18.987  0.00  0.00    +0.000 OA
ATOM     17  N   UNL     1       8.449   9.597  18.196  0.00  0.00    +0.000 N 
ATOM     18  H   UNL     1       8.351  10.179  17.373  0.00  0.00    +0.000 HD
BRANCH  17  19
ATOM     19  C   UNL     1       9.220  10.100  19.333  0.00  0.00    +0.000 C 
BRANCH  19  20
ATOM     20  C   UNL     1      10.075  11.323  19.041  0.00  0.00    +0.000 A 
ATOM     21  C   UNL     1      10.491  11.514  17.709  0.00  0.00    +0.000 A 
ATOM     22  C   UNL     1      11.227  12.638  17.321  0.00  0.00    +0.000 A 
ATOM     23  C   UNL     1      11.548  13.621  18.248  0.00  0.00    +0.000 A 
ATOM     24  C   UNL     1      11.135  13.469  19.563  0.00  0.00    +0.000 A 
ATOM     25  C   UNL     1      10.414  12.331  19.979  0.00  0.00    +0.000 A 
ATOM     26  C   UNL     1      10.012  12.338  21.428  0.00  0.00    +0.000 C 
ENDBRANCH  19  20
ENDBRANCH  17  19
ENDBRANCH  14  15
ENDBRANCH   3  14
TORSDOF 5
ENDMDL
MODEL 5
REMARK VINA RESULT:      -7.8      1.495      2.098
REMARK  Name = 
REMARK  7 active torsions:
REMARK  status: ('A' for Active; 'I' for Inactive)
REMARK    1  A    between atoms: C_1  and  C_2
REMARK    2  A    between atoms: C_5  and  C_6
REMARK    3  A    between atoms: N_8  and  C_9
REMARK    4  A    between atoms: C_9  and  C_10
REMARK    5  A    between atoms: N_12  and  C_13
REMARK    6  A    between atoms: C_13  and  C_14
REMARK    7  A    between atoms: C_19  and  C_20
REMARK                            x       y       z     vdW  Elec       q    Type
REMARK                         _______ _______ _______ _____ _____    ______ ____
ROOT
ATOM      1  C   UNL     1       8.390   8.802  18.326  0.00  0.00    +0.000 A 
ATOM      2  C   UNL     1       8.551   7.580  18.837  0.00  0.00    +0.000 A 
ATOM      3  N   UNL     1       7.783   6.751  18.094  0.00  0.00    +0.000 N 
ATOM      4  C   UNL     1       7.125   7.498  17.123  0.00  0.00    +0.000 A 
ATOM      5  O   UNL     1       6.345   7.085  16.302  0.00  0.00    +0.000 OA
ATOM      6  O   UNL     1       7.489   8.845  17.250  0.00  0.00    +0.000 OA
ENDROOT
BRANCH   1  11
ATOM      7  C   UNL     1      11.268  13.485  20.103  0.00  0.00    +0.000 C 
ATOM      8  C   UNL     1      10.498  12.278  19.655  0.00  0.00    +0.000 A 
ATOM      9  C   UNL     1       9.881  11.429  20.579  0.00  0.00    +0.000 A 
ATOM     10  C   UNL     1       9.168  10.309  20.145  0.00  0.00    +0.000 A 
ATOM     11  C   UNL     1       9.072  10.007  18.777  0.00  0.00    +0.000 A 
ATOM     12  C   UNL     1       9.691  10.861  17.857  0.00  0.00    +0.000 A 
ATOM     13  C   UNL     1      10.397  11.986  18.291  0.00  0.00    +0.000 A 
ENDBRANCH   1  11
BRANCH   3  14
ATOM     14  C   UNL     1       7.676   5.307  18.231  0.00  0.00    +0.000 C 
BRANCH  14  15
ATOM     15  C   UNL     1       6.328   4.689  17.762  0.00  0.00    +0.000 C 
ATOM     16  O   UNL     1       6.249   4.038  16.718  0.00  0.00    +0.000 OA
ATOM     17  N   UNL     1       5.196   4.953  18.519  0.00  0.00    +0.000 N 
ATOM     18  H   UNL     1       5.306   5.307  19.462  0.00  0.00    +0.000 HD
BRANCH  17  19
ATOM     19  C   UNL     1       3.928   4.331  18.139  0.00  0.00    +0.000 C 
BRANCH  19  20
ATOM     20  C   UNL     1       3.051   3.891  19.302  0.00  0.00    +0.000 A 
ATOM     21  C   UNL     1       1.791   4.509  19.426  0.00  0.00    +0.000 A 
ATOM     22  C   UNL     1       0.883   4.135  20.421  0.00  0.00    +0.000 A 
ATOM     23  C   UNL     1       1.194   3.112  21.307  0.00  0.00    +0.000 A 
ATOM     24  C   UNL     1       2.419   2.473  21.197  0.00  0.00    +0.000 A 
ATOM     25  C   UNL     1       3.359   2.854  20.216  0.00  0.00    +0.000 A 
ATOM     26  C   UNL     1       4.622   2.037  20.208  0.00  0.00    +0.000 C 
ENDBRANCH  19  20
ENDBRANCH  17  19
ENDBRANCH  14  15
ENDBRANCH   3  14
TORSDOF 5
ENDMDL
MODEL 6
REMARK VINA RESULT:      -7.8      1.669      9.066
REMARK  Name = 
REMARK  7 active torsions:
REMARK  status: ('A' for Active; 'I' for Inactive)
REMARK    1  A    between atoms: C_1  and  C_2
REMARK    2  A    between atoms: C_5  and  C_6
REMARK    3  A    between atoms: N_8  and  C_9
REMARK    4  A    between atoms: C_9  and  C_10
REMARK    5  A    between atoms: N_12  and  C_13
REMARK    6  A    between atoms: C_13  and  C_14
REMARK    7  A    between atoms: C_19  and  C_20
REMARK                            x       y       z     vdW  Elec       q    Type
REMARK                         _______ _______ _______ _____ _____    ______ ____
ROOT
ATOM      1  C   UNL     1       5.426   5.133  18.687  0.00  0.00    +0.000 A 
ATOM      2  C   UNL     1       5.841   6.064  17.826  0.00  0.00    +0.000 A 
ATOM      3  N   UNL     1       7.116   6.359  18.167  0.00  0.00    +0.000 N 
ATOM      4  C   UNL     1       7.471   5.601  19.277  0.00  0.00    +0.000 A 
ATOM      5  O   UNL     1       8.527   5.624  19.859  0.00  0.00    +0.000 OA
ATOM      6  O   UNL     1       6.388   4.794  19.652  0.00  0.00    +0.000 OA
ENDROOT
BRANCH   1  11
ATOM      7  C   UNL     1       0.339   2.396  18.737  0.00  0.00    +0.000 C 
ATOM      8  C   UNL     1       1.655   3.114  18.697  0.00  0.00    +0.000 A 
ATOM      9  C   UNL     1       2.620   2.804  17.734  0.00  0.00    +0.000 A 
ATOM     10  C   UNL     1       3.842   3.483  17.712  0.00  0.00    +0.000 A 
ATOM     11  C   UNL     1       4.127   4.474  18.665  0.00  0.00    +0.000 A 
ATOM     12  C   UNL     1       3.157   4.781  19.625  0.00  0.00    +0.000 A 
ATOM     13  C   UNL     1       1.932   4.109  19.642  0.00  0.00    +0.000 A 
ENDBRANCH   1  11
BRANCH   3  14
ATOM     14  C   UNL     1       8.011   7.277  17.481  0.00  0.00    +0.000 C 
BRANCH  14  15
ATOM     15  C   UNL     1       8.011   8.737  18.018  0.00  0.00    +0.000 C 
ATOM     16  O   UNL     1       7.202   9.571  17.608  0.00  0.00    +0.000 OA
ATOM     17  N   UNL     1       8.998   9.094  18.924  0.00  0.00    +0.000 N 
ATOM     18  H   UNL     1       9.518   8.365  19.398  0.00  0.00    +0.000 HD
BRANCH  17  19
ATOM     19  C   UNL     1       8.983  10.441  19.496  0.00  0.00    +0.000 C 
BRANCH  19  20
ATOM     20  C   UNL     1       9.916  11.437  18.825  0.00  0.00    +0.000 A 
ATOM     21  C   UNL     1      11.291  11.321  19.109  0.00  0.00    +0.000 A 
ATOM     22  C   UNL     1      12.241  12.146  18.498  0.00  0.00    +0.000 A 
ATOM     23  C   UNL     1      11.849  13.093  17.562  0.00  0.00    +0.000 A 
ATOM     24  C   UNL     1      10.505  13.216  17.248  0.00  0.00    +0.000 A 
ATOM     25  C   UNL     1       9.529  12.412  17.872  0.00  0.00    +0.000 A 
ATOM     26  C   UNL     1       8.123  12.646  17.393  0.00  0.00    +0.000 C 
ENDBRANCH  19  20
ENDBRANCH  17  19
ENDBRANCH  14  15
ENDBRANCH   3  14
TORSDOF 5
ENDMDL
MODEL 7
REMARK VINA RESULT:      -7.8      1.497      1.863
REMARK  Name = 
REMARK  7 active torsions:
REMARK  status: ('A' for Active; 'I' for Inactive)
REMARK    1  A    between atoms: C_1  and  C_2
REMARK    2  A    between atoms: C_5  and  C_6
REMARK    3  A    between atoms: N_8  and  C_9
REMARK    4  A    between atoms: C_9  and  C_10
REMARK    5  A    between atoms: N_12  and  C_13
REMARK    6  A    between atoms: C_13  and  C_14
REMARK    7  A    between atoms: C_19  and  C_20
REMARK                            x       y       z     vdW  Elec       q    Type
REMARK                         _______ _______ _______ _____ _____    ______ ____
ROOT
ATOM      1  C   UNL     1       8.169   8.827  18.207  0.00  0.00    +0.000 A 
ATOM      2  C   UNL     1       8.505   7.661  18.763  0.00  0.00    +0.000 A 
ATOM      3  N   UNL     1       7.758   6.716  18.148  0.00  0.00    +0.000 N 
ATOM      4  C   UNL     1       6.935   7.332  17.212  0.00  0.00    +0.000 A 
ATOM      5  O   UNL     1       6.126   6.794  16.498  0.00  0.00    +0.000 OA
ATOM      6  O   UNL     1       7.169   8.713  17.228  0.00  0.00    +0.000 OA
ENDROOT
BRANCH   1  11
ATOM      7  C   UNL     1      10.677  13.910  19.327  0.00  0.00    +0.000 C 
ATOM      8  C   UNL     1      10.013  12.590  19.061  0.00  0.00    +0.000 A 
ATOM      9  C   UNL     1      10.194  11.503  19.921  0.00  0.00    +0.000 A 
ATOM     10  C   UNL     1       9.570  10.281  19.659  0.00  0.00    +0.000 A 
ATOM     11  C   UNL     1       8.764  10.119  18.520  0.00  0.00    +0.000 A 
ATOM     12  C   UNL     1       8.586  11.211  17.664  0.00  0.00    +0.000 A 
ATOM     13  C   UNL     1       9.203  12.436  17.931  0.00  0.00    +0.000 A 
ENDBRANCH   1  11
BRANCH   3  14
ATOM     14  C   UNL     1       7.815   5.280  18.371  0.00  0.00    +0.000 C 
BRANCH  14  15
ATOM     15  C   UNL     1       6.611   4.469  17.813  0.00  0.00    +0.000 C 
ATOM     16  O   UNL     1       6.599   4.056  16.651  0.00  0.00    +0.000 OA
ATOM     17  N   UNL     1       5.515   4.282  18.641  0.00  0.00    +0.000 N 
ATOM     18  H   UNL     1       5.617   4.443  19.636  0.00  0.00    +0.000 HD
BRANCH  17  19
ATOM     19  C   UNL     1       4.397   3.467  18.165  0.00  0.00    +0.000 C 
BRANCH  19  20
ATOM     20  C   UNL     1       3.246   3.314  19.148  0.00  0.00    +0.000 A 
ATOM     21  C   UNL     1       3.548   2.765  20.410  0.00  0.00    +0.000 A 
ATOM     22  C   UNL     1       2.577   2.639  21.409  0.00  0.00    +0.000 A 
ATOM     23  C   UNL     1       1.280   3.083  21.186  0.00  0.00    +0.000 A 
ATOM     24  C   UNL     1       0.959   3.645  19.961  0.00  0.00    +0.000 A 
ATOM     25  C   UNL     1       1.918   3.757  18.932  0.00  0.00    +0.000 A 
ATOM     26  C   UNL     1       1.418   4.422  17.679  0.00  0.00    +0.000 C 
ENDBRANCH  19  20
ENDBRANCH  17  19
ENDBRANCH  14  15
ENDBRANCH   3  14
TORSDOF 5
ENDMDL
MODEL 8
REMARK VINA RESULT:      -7.8      1.523      1.972
REMARK  Name = 
REMARK  7 active torsions:
REMARK  status: ('A' for Active; 'I' for Inactive)
REMARK    1  A    between atoms: C_1  and  C_2
REMARK    2  A    between atoms: C_5  and  C_6
REMARK    3  A    between atoms: N_8  and  C_9
REMARK    4  A    between atoms: C_9  and  C_10
REMARK    5  A    between atoms: N_12  and  C_13
REMARK    6  A    between atoms: C_13  and  C_14
REMARK    7  A    between atoms: C_19  and  C_20
REMARK                            x       y       z     vdW  Elec       q    Type
REMARK                         _______ _______ _______ _____ _____    ______ ____
ROOT
ATOM      1  C   UNL     1       8.434   8.715  18.322  0.00  0.00    +0.000 A 
ATOM      2  C   UNL     1       8.161   7.714  19.160  0.00  0.00    +0.000 A 
ATOM      3  N   UNL     1       7.683   6.701  18.402  0.00  0.00    +0.000 N 
ATOM      4  C   UNL     1       7.646   7.111  17.075  0.00  0.00    +0.000 A 
ATOM      5  O   UNL     1       7.255   6.469  16.132  0.00  0.00    +0.000 OA
ATOM      6  O   UNL     1       8.121   8.426  16.984  0.00  0.00    +0.000 OA
ENDROOT
BRANCH   1  11
ATOM      7  C   UNL     1      10.604  13.846  19.854  0.00  0.00    +0.000 C 
ATOM      8  C   UNL     1      10.060  12.511  19.436  0.00  0.00    +0.000 A 
ATOM      9  C   UNL     1       9.645  12.278  18.121  0.00  0.00    +0.000 A 
ATOM     10  C   UNL     1       9.140  11.029  17.749  0.00  0.00    +0.000 A 
ATOM     11  C   UNL     1       9.026   9.994  18.690  0.00  0.00    +0.000 A 
ATOM     12  C   UNL     1       9.443  10.233  20.004  0.00  0.00    +0.000 A 
ATOM     13  C   UNL     1       9.956  11.479  20.374  0.00  0.00    +0.000 A 
ENDBRANCH   1  11
BRANCH   3  14
ATOM     14  C   UNL     1       7.304   5.374  18.862  0.00  0.00    +0.000 C 
BRANCH  14  15
ATOM     15  C   UNL     1       5.860   4.928  18.497  0.00  0.00    +0.000 C 
ATOM     16  O   UNL     1       4.951   5.748  18.354  0.00  0.00    +0.000 OA
ATOM     17  N   UNL     1       5.606   3.567  18.405  0.00  0.00    +0.000 N 
ATOM     18  H   UNL     1       6.385   2.926  18.323  0.00  0.00    +0.000 HD
BRANCH  17  19
ATOM     19  C   UNL     1       4.273   3.121  17.998  0.00  0.00    +0.000 C 
BRANCH  19  20
ATOM     20  C   UNL     1       3.219   3.155  19.095  0.00  0.00    +0.000 A 
ATOM     21  C   UNL     1       3.574   2.611  20.344  0.00  0.00    +0.000 A 
ATOM     22  C   UNL     1       2.703   2.648  21.438  0.00  0.00    +0.000 A 
ATOM     23  C   UNL     1       1.459   3.255  21.323  0.00  0.00    +0.000 A 
ATOM     24  C   UNL     1       1.090   3.816  20.111  0.00  0.00    +0.000 A 
ATOM     25  C   UNL     1       1.944   3.766  18.990  0.00  0.00    +0.000 A 
ATOM     26  C   UNL     1       1.410   4.452  17.763  0.00  0.00    +0.000 C 
ENDBRANCH  19  20
ENDBRANCH  17  19
ENDBRANCH  14  15
ENDBRANCH   3  14
TORSDOF 5
ENDMDL
MODEL 9
REMARK VINA RESULT:      -7.8      1.233      1.405
REMARK  Name = 
REMARK  7 active torsions:
REMARK  status: ('A' for Active; 'I' for Inactive)
REMARK    1  A    between atoms: C_1  and  C_2
REMARK    2  A    between atoms: C_5  and  C_6
REMARK    3  A    between atoms: N_8  and  C_9
REMARK    4  A    between atoms: C_9  and  C_10
REMARK    5  A    between atoms: N_12  and  C_13
REMARK    6  A    between atoms: C_13  and  C_14
REMARK    7  A    between atoms: C_19  and  C_20
REMARK                            x       y       z     vdW  Elec       q    Type
REMARK                         _______ _______ _______ _____ _____    ______ ____
ROOT
ATOM      1  C   UNL     1       8.245   8.780  18.276  0.00  0.00    +0.000 A 
ATOM      2  C   UNL     1       7.314   8.586  17.340  0.00  0.00    +0.000 A 
ATOM      3  N   UNL     1       7.006   7.270  17.374  0.00  0.00    +0.000 N 
ATOM      4  C   UNL     1       7.789   6.650  18.341  0.00  0.00    +0.000 A 
ATOM      5  O   UNL     1       7.791   5.478  18.626  0.00  0.00    +0.000 OA
ATOM      6  O   UNL     1       8.619   7.604  18.946  0.00  0.00    +0.000 OA
ENDROOT
BRANCH   1  11
ATOM      7  C   UNL     1      10.747  13.817  19.598  0.00  0.00    +0.000 C 
ATOM      8  C   UNL     1      10.082  12.510  19.278  0.00  0.00    +0.000 A 
ATOM      9  C   UNL     1      10.109  11.444  20.181  0.00  0.00    +0.000 A 
ATOM     10  C   UNL     1       9.485  10.233  19.867  0.00  0.00    +0.000 A 
ATOM     11  C   UNL     1       8.835  10.062  18.634  0.00  0.00    +0.000 A 
ATOM     12  C   UNL     1       8.810  11.133  17.735  0.00  0.00    +0.000 A 
ATOM     13  C   UNL     1       9.426  12.347  18.052  0.00  0.00    +0.000 A 
ENDBRANCH   1  11
BRANCH   3  14
ATOM     14  C   UNL     1       5.996   6.591  16.578  0.00  0.00    +0.000 C 
BRANCH  14  15
ATOM     15  C   UNL     1       5.701   5.120  16.986  0.00  0.00    +0.000 C 
ATOM     16  O   UNL     1       6.208   4.172  16.381  0.00  0.00    +0.000 OA
ATOM     17  N   UNL     1       4.791   4.901  18.008  0.00  0.00    +0.000 N 
ATOM     18  H   UNL     1       4.543   5.669  18.620  0.00  0.00    +0.000 HD
BRANCH  17  19
ATOM     19  C   UNL     1       4.544   3.530  18.457  0.00  0.00    +0.000 C 
BRANCH  19  20
ATOM     20  C   UNL     1       3.316   3.350  19.337  0.00  0.00    +0.000 A 
ATOM     21  C   UNL     1       3.525   2.845  20.635  0.00  0.00    +0.000 A 
ATOM     22  C   UNL     1       2.474   2.701  21.546  0.00  0.00    +0.000 A 
ATOM     23  C   UNL     1       1.185   3.082  21.197  0.00  0.00    +0.000 A 
ATOM     24  C   UNL     1       0.954   3.600  19.933  0.00  0.00    +0.000 A 
ATOM     25  C   UNL     1       1.996   3.730  18.991  0.00  0.00    +0.000 A 
ATOM     26  C   UNL     1       1.584   4.342  17.680  0.00  0.00    +0.000 C 
ENDBRANCH  19  20
ENDBRANCH  17  19
ENDBRANCH  14  15
ENDBRANCH   3  14
TORSDOF 5
ENDMDL
