MODEL 1
REMARK VINA RESULT:      -7.8      0.000      0.000
REMARK  Name = 
REMARK  17 active torsions:
REMARK  status: ('A' for Active; 'I' for Inactive)
REMARK    1  A    between atoms: C_1  and  C_2
REMARK    2  A    between atoms: C_2  and  C_3
REMARK    3  A    between atoms: C_3  and  C_4
REMARK    4  A    between atoms: C_4  and  O_5
REMARK    5  A    between atoms: O_5  and  C_6
REMARK    6  A    between atoms: C_8  and  C_9
REMARK    7  A    between atoms: C_9  and  C_10
REMARK    8  A    between atoms: C_9  and  C_11
REMARK    9  A    between atoms: C_9  and  C_12
REMARK   10  A    between atoms: C_15  and  C_16
REMARK   11  A    between atoms: C_16  and  N_17
REMARK   12  A    between atoms: C_18  and  C_20
REMARK   13  A    between atoms: C_20  and  C_21
REMARK   14  A    between atoms: C_20  and  C_22
REMARK   15  A    between atoms: C_25  and  N_26
REMARK   16  A    between atoms: N_26  and  S_27
REMARK   17  A    between atoms: S_27  and  C_28
REMARK                            x       y       z     vdW  Elec       q    Type
REMARK                         _______ _______ _______ _____ _____    ______ ____
ROOT
ATOM      1  N   UNL     1       0.929   8.809  17.907  0.00  0.00    +0.000 N 
ATOM      2  C   UNL     1       0.378  10.031  18.229  0.00  0.00    +0.000 C 
ATOM      3  O   UNL     1      -0.702  10.362  17.737  0.00  0.00    +0.000 OA
ATOM      4  H   UNL     1       0.458   8.325  17.150  0.00  0.00    +0.000 HD
ENDROOT
BRANCH   2   5
ATOM      5  C   UNL     1       1.147  10.886  19.249  0.00  0.00    +0.000 C 
ATOM      6  C   UNL     1       1.939  11.998  18.573  0.00  0.00    +0.000 C 
BRANCH   5   7
ATOM      7  C   UNL     1       0.269  11.411  20.377  0.00  0.00    +0.000 A 
ATOM      8  C   UNL     1      -0.167  12.745  20.436  0.00  0.00    +0.000 A 
ATOM      9  C   UNL     1      -0.958  13.194  21.501  0.00  0.00    +0.000 A 
ATOM     10  C   UNL     1      -1.295  12.320  22.531  0.00  0.00    +0.000 A 
ATOM     11  C   UNL     1      -0.889  10.987  22.465  0.00  0.00    +0.000 A 
ATOM     12  F   UNL     1      -1.215  10.134  23.447  0.00  0.00    +0.000 F 
ATOM     13  C   UNL     1      -0.118  10.530  21.401  0.00  0.00    +0.000 A 
BRANCH  10  14
ATOM     14  N   UNL     1      -2.089  12.797  23.624  0.00  0.00    +0.000 N 
ATOM     15  H   UNL     1      -1.863  12.337  24.511  0.00  0.00    +0.000 HD
BRANCH  14  16
ATOM     16  S   UNL     1      -3.770  12.692  23.423  0.00  0.00    +0.000 S 
ATOM     17  C   UNL     1      -4.251  14.392  23.665  0.00  0.00    +0.000 C 
ATOM     18  O   UNL     1      -4.092  12.309  22.070  0.00  0.00    +0.000 OA
ATOM     19  O   UNL     1      -4.249  11.941  24.562  0.00  0.00    +0.000 OA
ENDBRANCH  14  16
ENDBRANCH  10  14
ENDBRANCH   5   7
ENDBRANCH   2   5
BRANCH   1  20
ATOM     20  C   UNL     1       2.313   8.509  18.180  0.00  0.00    +0.000 C 
BRANCH  20  26
ATOM     21  C   UNL     1       3.317   6.163  18.084  0.00  0.00    +0.000 A 
ATOM     22  C   UNL     1       3.304   4.856  18.599  0.00  0.00    +0.000 A 
ATOM     23  C   UNL     1       2.605   4.516  19.776  0.00  0.00    +0.000 A 
ATOM     24  C   UNL     1       2.017   5.563  20.494  0.00  0.00    +0.000 A 
ATOM     25  C   UNL     1       1.976   6.849  19.971  0.00  0.00    +0.000 A 
ATOM     26  C   UNL     1       2.555   7.144  18.727  0.00  0.00    +0.000 A 
BRANCH  23  27
ATOM     27  C   UNL     1       2.470   3.064  20.262  0.00  0.00    +0.000 C 
ATOM     28  C   UNL     1       1.644   2.261  19.246  0.00  0.00    +0.000 C 
ATOM     29  C   UNL     1       3.856   2.386  20.424  0.00  0.00    +0.000 C 
ATOM     30  C   UNL     1       1.791   2.978  21.647  0.00  0.00    +0.000 C 
ENDBRANCH  23  27
BRANCH  21  31
ATOM     31  O   UNL     1       4.041   6.291  16.923  0.00  0.00    +0.000 OA
BRANCH  31  32
ATOM     32  C   UNL     1       5.444   5.996  16.943  0.00  0.00    +0.000 C 
BRANCH  32  33
ATOM     33  C   UNL     1       5.949   5.721  15.532  0.00  0.00    +0.000 C 
BRANCH  33  35
ATOM     34  C   UNL     1       6.216   3.873  13.769  0.00  0.00    +0.000 C 
ATOM     35  C   UNL     1       5.386   4.434  14.917  0.00  0.00    +0.000 C 
ENDBRANCH  33  35
ENDBRANCH  32  33
ENDBRANCH  31  32
ENDBRANCH  21  31
ENDBRANCH  20  26
ENDBRANCH   1  20
TORSDOF 11
ENDMDL
MODEL 2
REMARK VINA RESULT:      -7.7      3.495      5.687
REMARK  Name = 
REMARK  17 active torsions:
REMARK  status: ('A' for Active; 'I' for Inactive)
REMARK    1  A    between atoms: C_1  and  C_2
REMARK    2  A    between atoms: C_2  and  C_3
REMARK    3  A    between atoms: C_3  and  C_4
REMARK    4  A    between atoms: C_4  and  O_5
REMARK    5  A    between atoms: O_5  and  C_6
REMARK    6  A    between atoms: C_8  and  C_9
REMARK    7  A    between atoms: C_9  and  C_10
REMARK    8  A    between atoms: C_9  and  C_11
REMARK    9  A    between atoms: C_9  and  C_12
REMARK   10  A    between atoms: C_15  and  C_16
REMARK   11  A    between atoms: C_16  and  N_17
REMARK   12  A    between atoms: C_18  and  C_20
REMARK   13  A    between atoms: C_20  and  C_21
REMARK   14  A    between atoms: C_20  and  C_22
REMARK   15  A    between atoms: C_25  and  N_26
REMARK   16  A    between atoms: N_26  and  S_27
REMARK   17  A    between atoms: S_27  and  C_28
REMARK                            x       y       z     vdW  Elec       q    Type
REMARK                         _______ _______ _______ _____ _____    ______ ____
ROOT
ATOM      1  N   UNL     1       1.651   8.353  21.237  0.00  0.00    +0.000 N 
ATOM      2  C   UNL     1       1.135   9.631  21.200  0.00  0.00    +0.000 C 
ATOM      3  O   UNL     1       1.276  10.373  22.173  0.00  0.00    +0.000 OA
ATOM      4  H   UNL     1       1.989   8.065  22.149  0.00  0.00    +0.000 HD
ENDROOT
BRANCH   2   5
ATOM      5  C   UNL     1       0.454  10.061  19.891  0.00  0.00    +0.000 C 
ATOM      6  C   UNL     1      -1.045  10.255  20.069  0.00  0.00    +0.000 C 
BRANCH   5   7
ATOM      7  C   UNL     1       1.116  11.267  19.238  0.00  0.00    +0.000 A 
ATOM      8  C   UNL     1       2.226  11.150  18.384  0.00  0.00    +0.000 A 
ATOM      9  C   UNL     1       2.818  12.286  17.819  0.00  0.00    +0.000 A 
ATOM     10  C   UNL     1       2.324  13.551  18.125  0.00  0.00    +0.000 A 
ATOM     11  C   UNL     1       1.206  13.674  18.951  0.00  0.00    +0.000 A 
ATOM     12  F   UNL     1       0.716  14.887  19.246  0.00  0.00    +0.000 F 
ATOM     13  C   UNL     1       0.601  12.548  19.501  0.00  0.00    +0.000 A 
BRANCH  10  14
ATOM     14  N   UNL     1       2.950  14.706  17.555  0.00  0.00    +0.000 N 
ATOM     15  H   UNL     1       3.385  14.517  16.647  0.00  0.00    +0.000 HD
BRANCH  14  16
ATOM     16  S   UNL     1       4.121  15.468  18.517  0.00  0.00    +0.000 S 
ATOM     17  C   UNL     1       5.619  14.755  17.865  0.00  0.00    +0.000 C 
ATOM     18  O   UNL     1       4.137  16.888  18.259  0.00  0.00    +0.000 OA
ATOM     19  O   UNL     1       3.934  14.937  19.849  0.00  0.00    +0.000 OA
ENDBRANCH  14  16
ENDBRANCH  10  14
ENDBRANCH   5   7
ENDBRANCH   2   5
BRANCH   1  20
ATOM     20  C   UNL     1       1.244   7.346  20.288  0.00  0.00    +0.000 C 
BRANCH  20  26
ATOM     21  C   UNL     1       3.039   5.610  19.754  0.00  0.00    +0.000 A 
ATOM     22  C   UNL     1       4.193   5.300  19.013  0.00  0.00    +0.000 A 
ATOM     23  C   UNL     1       4.640   6.102  17.942  0.00  0.00    +0.000 A 
ATOM     24  C   UNL     1       3.817   7.166  17.555  0.00  0.00    +0.000 A 
ATOM     25  C   UNL     1       2.706   7.516  18.310  0.00  0.00    +0.000 A 
ATOM     26  C   UNL     1       2.352   6.792  19.459  0.00  0.00    +0.000 A 
BRANCH  23  27
ATOM     27  C   UNL     1       5.975   5.846  17.225  0.00  0.00    +0.000 C 
ATOM     28  C   UNL     1       5.715   5.636  15.725  0.00  0.00    +0.000 C 
ATOM     29  C   UNL     1       6.954   7.035  17.400  0.00  0.00    +0.000 C 
ATOM     30  C   UNL     1       6.706   4.607  17.789  0.00  0.00    +0.000 C 
ENDBRANCH  23  27
BRANCH  21  31
ATOM     31  O   UNL     1       2.777   4.717  20.764  0.00  0.00    +0.000 OA
BRANCH  31  32
ATOM     32  C   UNL     1       2.778   3.314  20.469  0.00  0.00    +0.000 C 
BRANCH  32  33
ATOM     33  C   UNL     1       1.355   2.821  20.230  0.00  0.00    +0.000 C 
BRANCH  33  35
ATOM     34  C   UNL     1       2.260   2.371  17.869  0.00  0.00    +0.000 C 
ATOM     35  C   UNL     1       1.034   2.562  18.753  0.00  0.00    +0.000 C 
ENDBRANCH  33  35
ENDBRANCH  32  33
ENDBRANCH  31  32
ENDBRANCH  21  31
ENDBRANCH  20  26
ENDBRANCH   1  20
TORSDOF 11
ENDMDL
MODEL 3
REMARK VINA RESULT:      -7.6      2.864      4.465
REMARK  Name = 
REMARK  17 active torsions:
REMARK  status: ('A' for Active; 'I' for Inactive)
REMARK    1  A    between atoms: C_1  and  C_2
REMARK    2  A    between atoms: C_2  and  C_3
REMARK    3  A    between atoms: C_3  and  C_4
REMARK    4  A    between atoms: C_4  and  O_5
REMARK    5  A    between atoms: O_5  and  C_6
REMARK    6  A    between atoms: C_8  and  C_9
REMARK    7  A    between atoms: C_9  and  C_10
REMARK    8  A    between atoms: C_9  and  C_11
REMARK    9  A    between atoms: C_9  and  C_12
REMARK   10  A    between atoms: C_15  and  C_16
REMARK   11  A    between atoms: C_16  and  N_17
REMARK   12  A    between atoms: C_18  and  C_20
REMARK   13  A    between atoms: C_20  and  C_21
REMARK   14  A    between atoms: C_20  and  C_22
REMARK   15  A    between atoms: C_25  and  N_26
REMARK   16  A    between atoms: N_26  and  S_27
REMARK   17  A    between atoms: S_27  and  C_28
REMARK                            x       y       z     vdW  Elec       q    Type
REMARK                         _______ _______ _______ _____ _____    ______ ____
ROOT
ATOM      1  N   UNL     1       2.187   9.427  18.125  0.00  0.00    +0.000 N 
ATOM      2  C   UNL     1       1.493  10.462  18.716  0.00  0.00    +0.000 C 
ATOM      3  O   UNL     1       1.777  11.627  18.432  0.00  0.00    +0.000 OA
ATOM      4  H   UNL     1       3.003   9.718  17.597  0.00  0.00    +0.000 HD
ENDROOT
BRANCH   2   5
ATOM      5  C   UNL     1       0.352  10.071  19.668  0.00  0.00    +0.000 C 
ATOM      6  C   UNL     1       0.716  10.323  21.124  0.00  0.00    +0.000 C 
BRANCH   5   7
ATOM      7  C   UNL     1      -0.984  10.699  19.293  0.00  0.00    +0.000 A 
ATOM      8  C   UNL     1      -1.543  11.770  20.012  0.00  0.00    +0.000 A 
ATOM      9  C   UNL     1      -2.783  12.309  19.648  0.00  0.00    +0.000 A 
ATOM     10  C   UNL     1      -3.490  11.761  18.580  0.00  0.00    +0.000 A 
ATOM     11  C   UNL     1      -2.930  10.715  17.846  0.00  0.00    +0.000 A 
ATOM     12  F   UNL     1      -3.598  10.186  16.810  0.00  0.00    +0.000 F 
ATOM     13  C   UNL     1      -1.689  10.189  18.191  0.00  0.00    +0.000 A 
BRANCH  10  14
ATOM     14  N   UNL     1      -4.766  12.308  18.230  0.00  0.00    +0.000 N 
ATOM     15  H   UNL     1      -4.810  13.325  18.347  0.00  0.00    +0.000 HD
BRANCH  14  16
ATOM     16  S   UNL     1      -6.104  11.655  19.043  0.00  0.00    +0.000 S 
ATOM     17  C   UNL     1      -7.423  12.670  18.403  0.00  0.00    +0.000 C 
ATOM     18  O   UNL     1      -6.328  10.292  18.628  0.00  0.00    +0.000 OA
ATOM     19  O   UNL     1      -5.923  12.010  20.433  0.00  0.00    +0.000 OA
ENDBRANCH  14  16
ENDBRANCH  10  14
ENDBRANCH   5   7
ENDBRANCH   2   5
BRANCH   1  20
ATOM     20  C   UNL     1       2.132   8.084  18.649  0.00  0.00    +0.000 C 
BRANCH  20  26
ATOM     21  C   UNL     1       2.888   5.716  18.066  0.00  0.00    +0.000 A 
ATOM     22  C   UNL     1       3.887   4.906  17.501  0.00  0.00    +0.000 A 
ATOM     23  C   UNL     1       4.957   5.439  16.753  0.00  0.00    +0.000 A 
ATOM     24  C   UNL     1       4.924   6.812  16.481  0.00  0.00    +0.000 A 
ATOM     25  C   UNL     1       3.975   7.631  17.076  0.00  0.00    +0.000 A 
ATOM     26  C   UNL     1       2.997   7.104  17.934  0.00  0.00    +0.000 A 
BRANCH  23  27
ATOM     27  C   UNL     1       6.126   4.573  16.257  0.00  0.00    +0.000 C 
ATOM     28  C   UNL     1       5.642   3.127  16.062  0.00  0.00    +0.000 C 
ATOM     29  C   UNL     1       6.693   5.095  14.911  0.00  0.00    +0.000 C 
ATOM     30  C   UNL     1       7.311   4.579  17.248  0.00  0.00    +0.000 C 
ENDBRANCH  23  27
BRANCH  21  31
ATOM     31  O   UNL     1       1.940   5.013  18.769  0.00  0.00    +0.000 OA
BRANCH  31  32
ATOM     32  C   UNL     1       2.122   4.820  20.178  0.00  0.00    +0.000 C 
BRANCH  32  33
ATOM     33  C   UNL     1       2.293   3.338  20.493  0.00  0.00    +0.000 C 
BRANCH  33  35
ATOM     34  C   UNL     1       2.871   1.674  18.624  0.00  0.00    +0.000 C 
ATOM     35  C   UNL     1       1.776   2.410  19.386  0.00  0.00    +0.000 C 
ENDBRANCH  33  35
ENDBRANCH  32  33
ENDBRANCH  31  32
ENDBRANCH  21  31
ENDBRANCH  20  26
ENDBRANCH   1  20
TORSDOF 11
ENDMDL
MODEL 4
REMARK VINA RESULT:      -7.5      2.178      4.063
REMARK  Name = 
REMARK  17 active torsions:
REMARK  status: ('A' for Active; 'I' for Inactive)
REMARK    1  A    between atoms: C_1  and  C_2
REMARK    2  A    between atoms: C_2  and  C_3
REMARK    3  A    between atoms: C_3  and  C_4
REMARK    4  A    between atoms: C_4  and  O_5
REMARK    5  A    between atoms: O_5  and  C_6
REMARK    6  A    between atoms: C_8  and  C_9
REMARK    7  A    between atoms: C_9  and  C_10
REMARK    8  A    between atoms: C_9  and  C_11
REMARK    9  A    between atoms: C_9  and  C_12
REMARK   10  A    between atoms: C_15  and  C_16
REMARK   11  A    between atoms: C_16  and  N_17
REMARK   12  A    between atoms: C_18  and  C_20
REMARK   13  A    between atoms: C_20  and  C_21
REMARK   14  A    between atoms: C_20  and  C_22
REMARK   15  A    between atoms: C_25  and  N_26
REMARK   16  A    between atoms: N_26  and  S_27
REMARK   17  A    between atoms: S_27  and  C_28
REMARK                            x       y       z     vdW  Elec       q    Type
REMARK                         _______ _______ _______ _____ _____    ______ ____
ROOT
ATOM      1  N   UNL     1       1.388   9.903  20.253  0.00  0.00    +0.000 N 
ATOM      2  C   UNL     1       0.840  10.775  21.170  0.00  0.00    +0.000 C 
ATOM      3  O   UNL     1       1.323  11.900  21.306  0.00  0.00    +0.000 OA
ATOM      4  H   UNL     1       2.267  10.215  19.855  0.00  0.00    +0.000 HD
ENDROOT
BRANCH   2   5
ATOM      5  C   UNL     1      -0.400  10.282  21.933  0.00  0.00    +0.000 C 
ATOM      6  C   UNL     1      -0.037   9.717  23.300  0.00  0.00    +0.000 C 
BRANCH   5   7
ATOM      7  C   UNL     1      -1.507  11.326  22.019  0.00  0.00    +0.000 A 
ATOM      8  C   UNL     1      -1.957  12.043  20.897  0.00  0.00    +0.000 A 
ATOM      9  C   UNL     1      -2.964  13.008  21.020  0.00  0.00    +0.000 A 
ATOM     10  C   UNL     1      -3.508  13.286  22.272  0.00  0.00    +0.000 A 
ATOM     11  C   UNL     1      -3.085  12.560  23.385  0.00  0.00    +0.000 A 
ATOM     12  F   UNL     1      -3.608  12.813  24.593  0.00  0.00    +0.000 F 
ATOM     13  C   UNL     1      -2.098  11.586  23.266  0.00  0.00    +0.000 A 
BRANCH  10  14
ATOM     14  N   UNL     1      -4.524  14.289  22.387  0.00  0.00    +0.000 N 
ATOM     15  H   UNL     1      -4.452  14.832  23.253  0.00  0.00    +0.000 HD
BRANCH  14  16
ATOM     16  S   UNL     1      -6.126  13.742  22.274  0.00  0.00    +0.000 S 
ATOM     17  C   UNL     1      -6.590  14.370  20.671  0.00  0.00    +0.000 C 
ATOM     18  O   UNL     1      -6.163  12.301  22.233  0.00  0.00    +0.000 OA
ATOM     19  O   UNL     1      -6.862  14.497  23.263  0.00  0.00    +0.000 OA
ENDBRANCH  14  16
ENDBRANCH  10  14
ENDBRANCH   5   7
ENDBRANCH   2   5
BRANCH   1  20
ATOM     20  C   UNL     1       1.088   8.493  20.279  0.00  0.00    +0.000 C 
BRANCH  20  26
ATOM     21  C   UNL     1       2.362   6.345  19.747  0.00  0.00    +0.000 A 
ATOM     22  C   UNL     1       3.365   5.732  18.977  0.00  0.00    +0.000 A 
ATOM     23  C   UNL     1       3.952   6.366  17.861  0.00  0.00    +0.000 A 
ATOM     24  C   UNL     1       3.408   7.592  17.464  0.00  0.00    +0.000 A 
ATOM     25  C   UNL     1       2.455   8.233  18.245  0.00  0.00    +0.000 A 
ATOM     26  C   UNL     1       1.982   7.654  19.432  0.00  0.00    +0.000 A 
BRANCH  23  27
ATOM     27  C   UNL     1       5.146   5.760  17.106  0.00  0.00    +0.000 C 
ATOM     28  C   UNL     1       4.973   4.235  17.019  0.00  0.00    +0.000 C 
ATOM     29  C   UNL     1       5.261   6.331  15.669  0.00  0.00    +0.000 C 
ATOM     30  C   UNL     1       6.490   6.078  17.798  0.00  0.00    +0.000 C 
ENDBRANCH  23  27
BRANCH  21  31
ATOM     31  O   UNL     1       1.928   5.576  20.798  0.00  0.00    +0.000 OA
BRANCH  31  32
ATOM     32  C   UNL     1       2.349   4.208  20.880  0.00  0.00    +0.000 C 
BRANCH  32  33
ATOM     33  C   UNL     1       1.143   3.277  20.843  0.00  0.00    +0.000 C 
BRANCH  33  35
ATOM     34  C   UNL     1       1.954   2.339  18.595  0.00  0.00    +0.000 C 
ATOM     35  C   UNL     1       0.770   2.808  19.432  0.00  0.00    +0.000 C 
ENDBRANCH  33  35
ENDBRANCH  32  33
ENDBRANCH  31  32
ENDBRANCH  21  31
ENDBRANCH  20  26
ENDBRANCH   1  20
TORSDOF 11
ENDMDL
MODEL 5
REMARK VINA RESULT:      -7.4      3.378      4.433
REMARK  Name = 
REMARK  17 active torsions:
REMARK  status: ('A' for Active; 'I' for Inactive)
REMARK    1  A    between atoms: C_1  and  C_2
REMARK    2  A    between atoms: C_2  and  C_3
REMARK    3  A    between atoms: C_3  and  C_4
REMARK    4  A    between atoms: C_4  and  O_5
REMARK    5  A    between atoms: O_5  and  C_6
REMARK    6  A    between atoms: C_8  and  C_9
REMARK    7  A    between atoms: C_9  and  C_10
REMARK    8  A    between atoms: C_9  and  C_11
REMARK    9  A    between atoms: C_9  and  C_12
REMARK   10  A    between atoms: C_15  and  C_16
REMARK   11  A    between atoms: C_16  and  N_17
REMARK   12  A    between atoms: C_18  and  C_20
REMARK   13  A    between atoms: C_20  and  C_21
REMARK   14  A    between atoms: C_20  and  C_22
REMARK   15  A    between atoms: C_25  and  N_26
REMARK   16  A    between atoms: N_26  and  S_27
REMARK   17  A    between atoms: S_27  and  C_28
REMARK                            x       y       z     vdW  Elec       q    Type
REMARK                         _______ _______ _______ _____ _____    ______ ____
ROOT
ATOM      1  N   UNL     1       1.265   8.885  20.244  0.00  0.00    +0.000 N 
ATOM      2  C   UNL     1       0.204   9.760  20.154  0.00  0.00    +0.000 C 
ATOM      3  O   UNL     1      -0.546   9.909  21.120  0.00  0.00    +0.000 OA
ATOM      4  H   UNL     1       1.259   8.303  21.075  0.00  0.00    +0.000 HD
ENDROOT
BRANCH   2   5
ATOM      5  C   UNL     1       0.067  10.544  18.840  0.00  0.00    +0.000 C 
ATOM      6  C   UNL     1      -1.331  10.420  18.249  0.00  0.00    +0.000 C 
BRANCH   5   7
ATOM      7  C   UNL     1       0.514  11.996  18.957  0.00  0.00    +0.000 A 
ATOM      8  C   UNL     1      -0.240  13.062  18.439  0.00  0.00    +0.000 A 
ATOM      9  C   UNL     1       0.215  14.382  18.550  0.00  0.00    +0.000 A 
ATOM     10  C   UNL     1       1.442  14.643  19.152  0.00  0.00    +0.000 A 
ATOM     11  C   UNL     1       2.184  13.592  19.692  0.00  0.00    +0.000 A 
ATOM     12  F   UNL     1       3.364  13.834  20.282  0.00  0.00    +0.000 F 
ATOM     13  C   UNL     1       1.729  12.281  19.602  0.00  0.00    +0.000 A 
BRANCH  10  14
ATOM     14  N   UNL     1       1.905  15.996  19.242  0.00  0.00    +0.000 N 
ATOM     15  H   UNL     1       1.144  16.681  19.215  0.00  0.00    +0.000 HD
BRANCH  14  16
ATOM     16  S   UNL     1       3.044  16.471  18.079  0.00  0.00    +0.000 S 
ATOM     17  C   UNL     1       4.463  16.809  19.105  0.00  0.00    +0.000 C 
ATOM     18  O   UNL     1       3.360  15.368  17.204  0.00  0.00    +0.000 OA
ATOM     19  O   UNL     1       2.570  17.738  17.568  0.00  0.00    +0.000 OA
ENDBRANCH  14  16
ENDBRANCH  10  14
ENDBRANCH   5   7
ENDBRANCH   2   5
BRANCH   1  20
ATOM     20  C   UNL     1       1.967   8.426  19.070  0.00  0.00    +0.000 C 
BRANCH  20  26
ATOM     21  C   UNL     1       3.402   6.467  18.281  0.00  0.00    +0.000 A 
ATOM     22  C   UNL     1       3.632   5.081  18.332  0.00  0.00    +0.000 A 
ATOM     23  C   UNL     1       2.994   4.245  19.273  0.00  0.00    +0.000 A 
ATOM     24  C   UNL     1       2.208   4.866  20.249  0.00  0.00    +0.000 A 
ATOM     25  C   UNL     1       1.928   6.224  20.179  0.00  0.00    +0.000 A 
ATOM     26  C   UNL     1       2.458   7.021  19.151  0.00  0.00    +0.000 A 
BRANCH  23  27
ATOM     27  C   UNL     1       3.133   2.714  19.239  0.00  0.00    +0.000 C 
ATOM     28  C   UNL     1       4.272   2.285  20.177  0.00  0.00    +0.000 C 
ATOM     29  C   UNL     1       1.825   2.013  19.689  0.00  0.00    +0.000 C 
ATOM     30  C   UNL     1       3.427   2.192  17.815  0.00  0.00    +0.000 C 
ENDBRANCH  23  27
BRANCH  21  31
ATOM     31  O   UNL     1       4.104   7.105  17.288  0.00  0.00    +0.000 OA
BRANCH  31  32
ATOM     32  C   UNL     1       5.359   6.558  16.862  0.00  0.00    +0.000 C 
BRANCH  32  33
ATOM     33  C   UNL     1       5.268   6.085  15.416  0.00  0.00    +0.000 C 
BRANCH  33  35
ATOM     34  C   UNL     1       6.392   4.174  14.120  0.00  0.00    +0.000 C 
ATOM     35  C   UNL     1       5.453   4.571  15.252  0.00  0.00    +0.000 C 
ENDBRANCH  33  35
ENDBRANCH  32  33
ENDBRANCH  31  32
ENDBRANCH  21  31
ENDBRANCH  20  26
ENDBRANCH   1  20
TORSDOF 11
ENDMDL
MODEL 6
REMARK VINA RESULT:      -7.4      0.970      1.579
REMARK  Name = 
REMARK  17 active torsions:
REMARK  status: ('A' for Active; 'I' for Inactive)
REMARK    1  A    between atoms: C_1  and  C_2
REMARK    2  A    between atoms: C_2  and  C_3
REMARK    3  A    between atoms: C_3  and  C_4
REMARK    4  A    between atoms: C_4  and  O_5
REMARK    5  A    between atoms: O_5  and  C_6
REMARK    6  A    between atoms: C_8  and  C_9
REMARK    7  A    between atoms: C_9  and  C_10
REMARK    8  A    between atoms: C_9  and  C_11
REMARK    9  A    between atoms: C_9  and  C_12
REMARK   10  A    between atoms: C_15  and  C_16
REMARK   11  A    between atoms: C_16  and  N_17
REMARK   12  A    between atoms: C_18  and  C_20
REMARK   13  A    between atoms: C_20  and  C_21
REMARK   14  A    between atoms: C_20  and  C_22
REMARK   15  A    between atoms: C_25  and  N_26
REMARK   16  A    between atoms: N_26  and  S_27
REMARK   17  A    between atoms: S_27  and  C_28
REMARK                            x       y       z     vdW  Elec       q    Type
REMARK                         _______ _______ _______ _____ _____    ______ ____
ROOT
ATOM      1  N   UNL     1       0.950   8.953  18.083  0.00  0.00    +0.000 N 
ATOM      2  C   UNL     1       0.419  10.192  18.369  0.00  0.00    +0.000 C 
ATOM      3  O   UNL     1      -0.696  10.492  17.938  0.00  0.00    +0.000 OA
ATOM      4  H   UNL     1       0.427   8.423  17.393  0.00  0.00    +0.000 HD
ENDROOT
BRANCH   2   5
ATOM      5  C   UNL     1       1.256  11.107  19.276  0.00  0.00    +0.000 C 
ATOM      6  C   UNL     1       2.018  12.155  18.476  0.00  0.00    +0.000 C 
BRANCH   5   7
ATOM      7  C   UNL     1       0.453  11.726  20.413  0.00  0.00    +0.000 A 
ATOM      8  C   UNL     1       0.188  13.104  20.488  0.00  0.00    +0.000 A 
ATOM      9  C   UNL     1      -0.539  13.636  21.560  0.00  0.00    +0.000 A 
ATOM     10  C   UNL     1      -0.981  12.800  22.581  0.00  0.00    +0.000 A 
ATOM     11  C   UNL     1      -0.745  11.427  22.500  0.00  0.00    +0.000 A 
ATOM     12  F   UNL     1      -1.174  10.611  23.474  0.00  0.00    +0.000 F 
ATOM     13  C   UNL     1      -0.040  10.889  21.428  0.00  0.00    +0.000 A 
BRANCH  10  14
ATOM     14  N   UNL     1      -1.707  13.360  23.682  0.00  0.00    +0.000 N 
ATOM     15  H   UNL     1      -1.398  12.998  24.589  0.00  0.00    +0.000 HD
BRANCH  14  16
ATOM     16  S   UNL     1      -3.394  13.186  23.626  0.00  0.00    +0.000 S 
ATOM     17  C   UNL     1      -3.696  13.338  21.875  0.00  0.00    +0.000 C 
ATOM     18  O   UNL     1      -3.776  11.861  24.047  0.00  0.00    +0.000 OA
ATOM     19  O   UNL     1      -3.926  14.371  24.260  0.00  0.00    +0.000 OA
ENDBRANCH  14  16
ENDBRANCH  10  14
ENDBRANCH   5   7
ENDBRANCH   2   5
BRANCH   1  20
ATOM     20  C   UNL     1       2.351   8.669  18.272  0.00  0.00    +0.000 C 
BRANCH  20  26
ATOM     21  C   UNL     1       3.578   6.431  18.203  0.00  0.00    +0.000 A 
ATOM     22  C   UNL     1       3.618   5.097  18.645  0.00  0.00    +0.000 A 
ATOM     23  C   UNL     1       2.797   4.623  19.689  0.00  0.00    +0.000 A 
ATOM     24  C   UNL     1       2.018   5.567  20.367  0.00  0.00    +0.000 A 
ATOM     25  C   UNL     1       1.927   6.875  19.909  0.00  0.00    +0.000 A 
ATOM     26  C   UNL     1       2.644   7.298  18.778  0.00  0.00    +0.000 A 
BRANCH  23  27
ATOM     27  C   UNL     1       2.735   3.137  20.076  0.00  0.00    +0.000 C 
ATOM     28  C   UNL     1       4.145   2.531  19.998  0.00  0.00    +0.000 C 
ATOM     29  C   UNL     1       2.189   2.944  21.515  0.00  0.00    +0.000 C 
ATOM     30  C   UNL     1       1.790   2.338  19.152  0.00  0.00    +0.000 C 
ENDBRANCH  23  27
BRANCH  21  31
ATOM     31  O   UNL     1       4.441   6.695  17.168  0.00  0.00    +0.000 OA
BRANCH  31  32
ATOM     32  C   UNL     1       5.086   5.600  16.504  0.00  0.00    +0.000 C 
BRANCH  32  33
ATOM     33  C   UNL     1       6.601   5.762  16.561  0.00  0.00    +0.000 C 
BRANCH  33  35
ATOM     34  C   UNL     1       7.511   5.783  18.961  0.00  0.00    +0.000 C 
ATOM     35  C   UNL     1       7.262   4.972  17.697  0.00  0.00    +0.000 C 
ENDBRANCH  33  35
ENDBRANCH  32  33
ENDBRANCH  31  32
ENDBRANCH  21  31
ENDBRANCH  20  26
ENDBRANCH   1  20
TORSDOF 11
ENDMDL
MODEL 7
REMARK VINA RESULT:      -7.4      2.727      4.554
REMARK  Name = 
REMARK  17 active torsions:
REMARK  status: ('A' for Active; 'I' for Inactive)
REMARK    1  A    between atoms: C_1  and  C_2
REMARK    2  A    between atoms: C_2  and  C_3
REMARK    3  A    between atoms: C_3  and  C_4
REMARK    4  A    between atoms: C_4  and  O_5
REMARK    5  A    between atoms: O_5  and  C_6
REMARK    6  A    between atoms: C_8  and  C_9
REMARK    7  A    between atoms: C_9  and  C_10
REMARK    8  A    between atoms: C_9  and  C_11
REMARK    9  A    between atoms: C_9  and  C_12
REMARK   10  A    between atoms: C_15  and  C_16
REMARK   11  A    between atoms: C_16  and  N_17
REMARK   12  A    between atoms: C_18  and  C_20
REMARK   13  A    between atoms: C_20  and  C_21
REMARK   14  A    between atoms: C_20  and  C_22
REMARK   15  A    between atoms: C_25  and  N_26
REMARK   16  A    between atoms: N_26  and  S_27
REMARK   17  A    between atoms: S_27  and  C_28
REMARK                            x       y       z     vdW  Elec       q    Type
REMARK                         _______ _______ _______ _____ _____    ______ ____
ROOT
ATOM      1  N   UNL     1       2.180   9.508  18.085  0.00  0.00    +0.000 N 
ATOM      2  C   UNL     1       1.465  10.550  18.637  0.00  0.00    +0.000 C 
ATOM      3  O   UNL     1       1.690  11.705  18.270  0.00  0.00    +0.000 OA
ATOM      4  H   UNL     1       2.963   9.797  17.509  0.00  0.00    +0.000 HD
ENDROOT
BRANCH   2   5
ATOM      5  C   UNL     1       0.375  10.176  19.653  0.00  0.00    +0.000 C 
ATOM      6  C   UNL     1       0.771  10.553  21.074  0.00  0.00    +0.000 C 
BRANCH   5   7
ATOM      7  C   UNL     1      -1.002  10.710  19.280  0.00  0.00    +0.000 A 
ATOM      8  C   UNL     1      -1.769  10.160  18.239  0.00  0.00    +0.000 A 
ATOM      9  C   UNL     1      -3.023  10.691  17.914  0.00  0.00    +0.000 A 
ATOM     10  C   UNL     1      -3.508  11.796  18.608  0.00  0.00    +0.000 A 
ATOM     11  C   UNL     1      -2.765  12.331  19.660  0.00  0.00    +0.000 A 
ATOM     12  F   UNL     1      -3.227  13.390  20.341  0.00  0.00    +0.000 F 
ATOM     13  C   UNL     1      -1.527  11.796  20.000  0.00  0.00    +0.000 A 
BRANCH  10  14
ATOM     14  N   UNL     1      -4.784  12.342  18.253  0.00  0.00    +0.000 N 
ATOM     15  H   UNL     1      -4.841  13.354  18.403  0.00  0.00    +0.000 HD
BRANCH  14  16
ATOM     16  S   UNL     1      -6.129  11.649  19.021  0.00  0.00    +0.000 S 
ATOM     17  C   UNL     1      -7.441  12.706  18.435  0.00  0.00    +0.000 C 
ATOM     18  O   UNL     1      -6.357  10.314  18.526  0.00  0.00    +0.000 OA
ATOM     19  O   UNL     1      -5.953  11.921  20.430  0.00  0.00    +0.000 OA
ENDBRANCH  14  16
ENDBRANCH  10  14
ENDBRANCH   5   7
ENDBRANCH   2   5
BRANCH   1  20
ATOM     20  C   UNL     1       2.199   8.200  18.693  0.00  0.00    +0.000 C 
BRANCH  20  26
ATOM     21  C   UNL     1       2.995   5.820  18.224  0.00  0.00    +0.000 A 
ATOM     22  C   UNL     1       3.971   5.001  17.630  0.00  0.00    +0.000 A 
ATOM     23  C   UNL     1       4.945   5.509  16.746  0.00  0.00    +0.000 A 
ATOM     24  C   UNL     1       4.831   6.854  16.374  0.00  0.00    +0.000 A 
ATOM     25  C   UNL     1       3.907   7.686  16.992  0.00  0.00    +0.000 A 
ATOM     26  C   UNL     1       3.035   7.196  17.977  0.00  0.00    +0.000 A 
BRANCH  23  27
ATOM     27  C   UNL     1       6.098   4.646  16.209  0.00  0.00    +0.000 C 
ATOM     28  C   UNL     1       7.239   4.625  17.238  0.00  0.00    +0.000 C 
ATOM     29  C   UNL     1       5.642   3.188  15.940  0.00  0.00    +0.000 C 
ATOM     30  C   UNL     1       6.640   5.177  14.864  0.00  0.00    +0.000 C 
ENDBRANCH  23  27
BRANCH  21  31
ATOM     31  O   UNL     1       2.146   5.144  19.065  0.00  0.00    +0.000 OA
BRANCH  31  32
ATOM     32  C   UNL     1       2.600   4.800  20.381  0.00  0.00    +0.000 C 
BRANCH  32  33
ATOM     33  C   UNL     1       2.296   3.336  20.682  0.00  0.00    +0.000 C 
BRANCH  33  35
ATOM     34  C   UNL     1       0.945   2.105  18.878  0.00  0.00    +0.000 C 
ATOM     35  C   UNL     1       0.917   2.881  20.189  0.00  0.00    +0.000 C 
ENDBRANCH  33  35
ENDBRANCH  32  33
ENDBRANCH  31  32
ENDBRANCH  21  31
ENDBRANCH  20  26
ENDBRANCH   1  20
TORSDOF 11
ENDMDL
MODEL 8
REMARK VINA RESULT:      -7.4      3.593      5.490
REMARK  Name = 
REMARK  17 active torsions:
REMARK  status: ('A' for Active; 'I' for Inactive)
REMARK    1  A    between atoms: C_1  and  C_2
REMARK    2  A    between atoms: C_2  and  C_3
REMARK    3  A    between atoms: C_3  and  C_4
REMARK    4  A    between atoms: C_4  and  O_5
REMARK    5  A    between atoms: O_5  and  C_6
REMARK    6  A    between atoms: C_8  and  C_9
REMARK    7  A    between atoms: C_9  and  C_10
REMARK    8  A    between atoms: C_9  and  C_11
REMARK    9  A    between atoms: C_9  and  C_12
REMARK   10  A    between atoms: C_15  and  C_16
REMARK   11  A    between atoms: C_16  and  N_17
REMARK   12  A    between atoms: C_18  and  C_20
REMARK   13  A    between atoms: C_20  and  C_21
REMARK   14  A    between atoms: C_20  and  C_22
REMARK   15  A    between atoms: C_25  and  N_26
REMARK   16  A    between atoms: N_26  and  S_27
REMARK   17  A    between atoms: S_27  and  C_28
REMARK                            x       y       z     vdW  Elec       q    Type
REMARK                         _______ _______ _______ _____ _____    ______ ____
ROOT
ATOM      1  N   UNL     1       1.317   9.013  21.097  0.00  0.00    +0.000 N 
ATOM      2  C   UNL     1       0.621  10.016  21.737  0.00  0.00    +0.000 C 
ATOM      3  O   UNL     1       0.634  10.077  22.968  0.00  0.00    +0.000 OA
ATOM      4  H   UNL     1       1.676   8.292  21.715  0.00  0.00    +0.000 HD
ENDROOT
BRANCH   2   5
ATOM      5  C   UNL     1      -0.091  11.041  20.841  0.00  0.00    +0.000 C 
ATOM      6  C   UNL     1      -1.265  11.699  21.553  0.00  0.00    +0.000 C 
BRANCH   5   7
ATOM      7  C   UNL     1       0.856  12.065  20.229  0.00  0.00    +0.000 A 
ATOM      8  C   UNL     1       0.967  12.257  18.842  0.00  0.00    +0.000 A 
ATOM      9  C   UNL     1       1.865  13.195  18.318  0.00  0.00    +0.000 A 
ATOM     10  C   UNL     1       2.680  13.929  19.176  0.00  0.00    +0.000 A 
ATOM     11  C   UNL     1       2.557  13.763  20.555  0.00  0.00    +0.000 A 
ATOM     12  F   UNL     1       3.331  14.470  21.391  0.00  0.00    +0.000 F 
ATOM     13  C   UNL     1       1.654  12.845  21.083  0.00  0.00    +0.000 A 
BRANCH  10  14
ATOM     14  N   UNL     1       3.608  14.872  18.626  0.00  0.00    +0.000 N 
ATOM     15  H   UNL     1       4.526  14.840  19.080  0.00  0.00    +0.000 HD
BRANCH  14  16
ATOM     16  S   UNL     1       3.108  16.493  18.626  0.00  0.00    +0.000 S 
ATOM     17  C   UNL     1       3.002  16.820  16.877  0.00  0.00    +0.000 C 
ATOM     18  O   UNL     1       1.789  16.612  19.199  0.00  0.00    +0.000 OA
ATOM     19  O   UNL     1       4.232  17.244  19.138  0.00  0.00    +0.000 OA
ENDBRANCH  14  16
ENDBRANCH  10  14
ENDBRANCH   5   7
ENDBRANCH   2   5
BRANCH   1  20
ATOM     20  C   UNL     1       1.078   8.694  19.710  0.00  0.00    +0.000 C 
BRANCH  20  26
ATOM     21  C   UNL     1       2.456   6.545  19.648  0.00  0.00    +0.000 A 
ATOM     22  C   UNL     1       3.556   5.869  19.095  0.00  0.00    +0.000 A 
ATOM     23  C   UNL     1       4.255   6.357  17.971  0.00  0.00    +0.000 A 
ATOM     24  C   UNL     1       3.732   7.490  17.338  0.00  0.00    +0.000 A 
ATOM     25  C   UNL     1       2.680   8.199  17.903  0.00  0.00    +0.000 A 
ATOM     26  C   UNL     1       2.084   7.778  19.103  0.00  0.00    +0.000 A 
BRANCH  23  27
ATOM     27  C   UNL     1       5.542   5.697  17.453  0.00  0.00    +0.000 C 
ATOM     28  C   UNL     1       5.255   5.002  16.113  0.00  0.00    +0.000 C 
ATOM     29  C   UNL     1       6.672   6.739  17.242  0.00  0.00    +0.000 C 
ATOM     30  C   UNL     1       6.102   4.660  18.450  0.00  0.00    +0.000 C 
ENDBRANCH  23  27
BRANCH  21  31
ATOM     31  O   UNL     1       1.920   5.919  20.747  0.00  0.00    +0.000 OA
BRANCH  31  32
ATOM     32  C   UNL     1       2.178   4.523  20.946  0.00  0.00    +0.000 C 
BRANCH  32  33
ATOM     33  C   UNL     1       0.961   3.696  20.547  0.00  0.00    +0.000 C 
BRANCH  33  35
ATOM     34  C   UNL     1       1.422   3.342  18.046  0.00  0.00    +0.000 C 
ATOM     35  C   UNL     1       1.238   2.700  19.415  0.00  0.00    +0.000 C 
ENDBRANCH  33  35
ENDBRANCH  32  33
ENDBRANCH  31  32
ENDBRANCH  21  31
ENDBRANCH  20  26
ENDBRANCH   1  20
TORSDOF 11
ENDMDL
MODEL 9
REMARK VINA RESULT:      -7.4      1.114      1.463
REMARK  Name = 
REMARK  17 active torsions:
REMARK  status: ('A' for Active; 'I' for Inactive)
REMARK    1  A    between atoms: C_1  and  C_2
REMARK    2  A    between atoms: C_2  and  C_3
REMARK    3  A    between atoms: C_3  and  C_4
REMARK    4  A    between atoms: C_4  and  O_5
REMARK    5  A    between atoms: O_5  and  C_6
REMARK    6  A    between atoms: C_8  and  C_9
REMARK    7  A    between atoms: C_9  and  C_10
REMARK    8  A    between atoms: C_9  and  C_11
REMARK    9  A    between atoms: C_9  and  C_12
REMARK   10  A    between atoms: C_15  and  C_16
REMARK   11  A    between atoms: C_16  and  N_17
REMARK   12  A    between atoms: C_18  and  C_20
REMARK   13  A    between atoms: C_20  and  C_21
REMARK   14  A    between atoms: C_20  and  C_22
REMARK   15  A    between atoms: C_25  and  N_26
REMARK   16  A    between atoms: N_26  and  S_27
REMARK   17  A    between atoms: S_27  and  C_28
REMARK                            x       y       z     vdW  Elec       q    Type
REMARK                         _______ _______ _______ _____ _____    ______ ____
ROOT
ATOM      1  N   UNL     1       0.900   8.999  17.946  0.00  0.00    +0.000 N 
ATOM      2  C   UNL     1       0.362  10.218  18.301  0.00  0.00    +0.000 C 
ATOM      3  O   UNL     1      -0.732  10.556  17.847  0.00  0.00    +0.000 OA
ATOM      4  H   UNL     1       0.405   8.525  17.198  0.00  0.00    +0.000 HD
ENDROOT
BRANCH   2   5
ATOM      5  C   UNL     1       1.165  11.059  19.306  0.00  0.00    +0.000 C 
ATOM      6  C   UNL     1       1.892  12.212  18.627  0.00  0.00    +0.000 C 
BRANCH   5   7
ATOM      7  C   UNL     1       0.337  11.524  20.497  0.00  0.00    +0.000 A 
ATOM      8  C   UNL     1      -0.087  10.647  21.510  0.00  0.00    +0.000 A 
ATOM      9  C   UNL     1      -0.864  11.110  22.580  0.00  0.00    +0.000 A 
ATOM     10  C   UNL     1      -1.249  12.447  22.629  0.00  0.00    +0.000 A 
ATOM     11  C   UNL     1      -0.810  13.328  21.641  0.00  0.00    +0.000 A 
ATOM     12  F   UNL     1      -1.167  14.620  21.683  0.00  0.00    +0.000 F 
ATOM     13  C   UNL     1      -0.022  12.879  20.586  0.00  0.00    +0.000 A 
BRANCH  10  14
ATOM     14  N   UNL     1      -2.059  12.904  23.718  0.00  0.00    +0.000 N 
ATOM     15  H   UNL     1      -2.010  12.290  24.537  0.00  0.00    +0.000 HD
BRANCH  14  16
ATOM     16  S   UNL     1      -3.703  13.141  23.373  0.00  0.00    +0.000 S 
ATOM     17  C   UNL     1      -4.464  12.420  24.816  0.00  0.00    +0.000 C 
ATOM     18  O   UNL     1      -4.012  14.549  23.344  0.00  0.00    +0.000 OA
ATOM     19  O   UNL     1      -3.993  12.273  22.254  0.00  0.00    +0.000 OA
ENDBRANCH  14  16
ENDBRANCH  10  14
ENDBRANCH   5   7
ENDBRANCH   2   5
BRANCH   1  20
ATOM     20  C   UNL     1       2.292   8.693  18.172  0.00  0.00    +0.000 C 
BRANCH  20  26
ATOM     21  C   UNL     1       3.381   6.384  18.130  0.00  0.00    +0.000 A 
ATOM     22  C   UNL     1       3.381   5.074  18.637  0.00  0.00    +0.000 A 
ATOM     23  C   UNL     1       2.619   4.702  19.765  0.00  0.00    +0.000 A 
ATOM     24  C   UNL     1       1.951   5.723  20.448  0.00  0.00    +0.000 A 
ATOM     25  C   UNL     1       1.898   7.010  19.929  0.00  0.00    +0.000 A 
ATOM     26  C   UNL     1       2.546   7.334  18.726  0.00  0.00    +0.000 A 
BRANCH  23  27
ATOM     27  C   UNL     1       2.505   3.243  20.235  0.00  0.00    +0.000 C 
ATOM     28  C   UNL     1       1.455   2.514  19.382  0.00  0.00    +0.000 C 
ATOM     29  C   UNL     1       3.857   2.495  20.107  0.00  0.00    +0.000 C 
ATOM     30  C   UNL     1       2.104   3.144  21.723  0.00  0.00    +0.000 C 
ENDBRANCH  23  27
BRANCH  21  31
ATOM     31  O   UNL     1       4.174   6.545  17.019  0.00  0.00    +0.000 OA
BRANCH  31  32
ATOM     32  C   UNL     1       4.846   5.402  16.474  0.00  0.00    +0.000 C 
BRANCH  32  33
ATOM     33  C   UNL     1       6.342   5.673  16.354  0.00  0.00    +0.000 C 
BRANCH  33  35
ATOM     34  C   UNL     1       6.091   3.955  14.463  0.00  0.00    +0.000 C 
ATOM     35  C   UNL     1       7.035   4.831  15.276  0.00  0.00    +0.000 C 
ENDBRANCH  33  35
ENDBRANCH  32  33
ENDBRANCH  31  32
ENDBRANCH  21  31
ENDBRANCH  20  26
ENDBRANCH   1  20
TORSDOF 11
ENDMDL
