MODEL 1
REMARK VINA RESULT:      -8.4      0.000      0.000
REMARK  Name = 
REMARK  8 active torsions:
REMARK  status: ('A' for Active; 'I' for Inactive)
REMARK    1  A    between atoms: C_1  and  O_2
REMARK    2  A    between atoms: O_2  and  C_3
REMARK    3  A    between atoms: C_6  and  C_7
REMARK    4  A    between atoms: C_9  and  O_10
REMARK    5  A    between atoms: O_10  and  C_11
REMARK    6  A    between atoms: C_11  and  C_12
REMARK    7  A    between atoms: N_14  and  O_15
REMARK    8  A    between atoms: C_20  and  C_21
REMARK                            x       y       z     vdW  Elec       q    Type
REMARK                         _______ _______ _______ _____ _____    ______ ____
ROOT
ATOM      1  C   UNL     1       2.165   7.103  19.693  0.00  0.00    +0.000 A 
ATOM      2  C   UNL     1       2.924   7.181  18.526  0.00  0.00    +0.000 A 
ATOM      3  C   UNL     1       3.583   6.065  17.995  0.00  0.00    +0.000 A 
ATOM      4  C   UNL     1       3.445   4.790  18.575  0.00  0.00    +0.000 A 
ATOM      5  N   UNL     1       4.045   3.708  18.045  0.00  0.00    +0.000 NA
ATOM      6  C   UNL     1       3.871   2.533  18.671  0.00  0.00    +0.000 A 
ATOM      7  N   UNL     1       3.170   2.332  19.791  0.00  0.00    +0.000 NA
ATOM      8  C   UNL     1       2.579   3.418  20.325  0.00  0.00    +0.000 A 
ATOM      9  C   UNL     1       1.823   3.182  21.605  0.00  0.00    +0.000 C 
ATOM     10  C   UNL     1       2.672   4.693  19.746  0.00  0.00    +0.000 A 
ATOM     11  C   UNL     1       2.049   5.842  20.286  0.00  0.00    +0.000 A 
ENDROOT
BRANCH   1  15
ATOM     12  C   UNL     1       0.546  10.564  21.513  0.00  0.00    +0.000 A 
ATOM     13  C   UNL     1       0.592  10.528  20.132  0.00  0.00    +0.000 A 
ATOM     14  C   UNL     1       1.098   9.383  19.518  0.00  0.00    +0.000 A 
ATOM     15  C   UNL     1       1.565   8.308  20.291  0.00  0.00    +0.000 A 
ATOM     16  C   UNL     1       1.473   8.471  21.674  0.00  0.00    +0.000 A 
ATOM     17  N   UNL     1       0.971   9.556  22.299  0.00  0.00    +0.000 NA
BRANCH  12  19
ATOM     18  C   UNL     1      -0.417  12.645  21.122  0.00  0.00    +0.000 C 
ATOM     19  O   UNL     1       0.053  11.714  22.092  0.00  0.00    +0.000 OA
ENDBRANCH  12  19
ENDBRANCH   1  15
BRANCH   3  20
ATOM     20  O   UNL     1       4.397   6.164  16.880  0.00  0.00    +0.000 OA
BRANCH  20  21
ATOM     21  C   UNL     1       5.666   6.779  17.108  0.00  0.00    +0.000 C 
BRANCH  21  22
ATOM     22  C   UNL     1       6.837   5.851  16.839  0.00  0.00    +0.000 C 
ATOM     23  O   UNL     1       7.556   5.959  15.845  0.00  0.00    +0.000 OA
ATOM     24  N   UNL     1       7.028   4.875  17.778  0.00  0.00    +0.000 N 
ATOM     25  H   UNL     1       6.553   4.879  18.678  0.00  0.00    +0.000 HD
BRANCH  24  26
ATOM     26  O   UNL     1       8.168   4.058  17.620  0.00  0.00    +0.000 OA
ATOM     27  H   UNL     1       8.623   4.477  16.857  0.00  0.00    +0.000 HD
ENDBRANCH  24  26
ENDBRANCH  21  22
ENDBRANCH  20  21
ENDBRANCH   3  20
TORSDOF 6
ENDMDL
MODEL 2
REMARK VINA RESULT:      -8.4      1.792      2.154
REMARK  Name = 
REMARK  8 active torsions:
REMARK  status: ('A' for Active; 'I' for Inactive)
REMARK    1  A    between atoms: C_1  and  O_2
REMARK    2  A    between atoms: O_2  and  C_3
REMARK    3  A    between atoms: C_6  and  C_7
REMARK    4  A    between atoms: C_9  and  O_10
REMARK    5  A    between atoms: O_10  and  C_11
REMARK    6  A    between atoms: C_11  and  C_12
REMARK    7  A    between atoms: N_14  and  O_15
REMARK    8  A    between atoms: C_20  and  C_21
REMARK                            x       y       z     vdW  Elec       q    Type
REMARK                         _______ _______ _______ _____ _____    ______ ____
ROOT
ATOM      1  C   UNL     1       2.932   6.368  19.000  0.00  0.00    +0.000 A 
ATOM      2  C   UNL     1       4.310   6.282  19.190  0.00  0.00    +0.000 A 
ATOM      3  C   UNL     1       4.963   5.051  19.331  0.00  0.00    +0.000 A 
ATOM      4  C   UNL     1       4.265   3.835  19.209  0.00  0.00    +0.000 A 
ATOM      5  N   UNL     1       4.895   2.649  19.305  0.00  0.00    +0.000 NA
ATOM      6  C   UNL     1       4.149   1.540  19.190  0.00  0.00    +0.000 A 
ATOM      7  N   UNL     1       2.826   1.493  19.007  0.00  0.00    +0.000 NA
ATOM      8  C   UNL     1       2.195   2.680  18.922  0.00  0.00    +0.000 A 
ATOM      9  C   UNL     1       0.701   2.612  18.753  0.00  0.00    +0.000 C 
ATOM     10  C   UNL     1       2.875   3.906  19.005  0.00  0.00    +0.000 A 
ATOM     11  C   UNL     1       2.231   5.162  18.906  0.00  0.00    +0.000 A 
ENDROOT
BRANCH   1  15
ATOM     12  C   UNL     1       1.027  10.148  19.010  0.00  0.00    +0.000 A 
ATOM     13  C   UNL     1       1.644   9.745  17.841  0.00  0.00    +0.000 A 
ATOM     14  C   UNL     1       2.253   8.491  17.815  0.00  0.00    +0.000 A 
ATOM     15  C   UNL     1       2.251   7.674  18.957  0.00  0.00    +0.000 A 
ATOM     16  C   UNL     1       1.604   8.199  20.077  0.00  0.00    +0.000 A 
ATOM     17  N   UNL     1       0.989   9.399  20.129  0.00  0.00    +0.000 NA
BRANCH  12  19
ATOM     18  C   UNL     1      -0.975  11.329  19.075  0.00  0.00    +0.000 C 
ATOM     19  O   UNL     1       0.446  11.398  19.011  0.00  0.00    +0.000 OA
ENDBRANCH  12  19
ENDBRANCH   1  15
BRANCH   3  20
ATOM     20  O   UNL     1       6.320   4.974  19.596  0.00  0.00    +0.000 OA
BRANCH  20  21
ATOM     21  C   UNL     1       7.139   5.861  18.834  0.00  0.00    +0.000 C 
BRANCH  21  22
ATOM     22  C   UNL     1       7.549   5.290  17.488  0.00  0.00    +0.000 C 
ATOM     23  O   UNL     1       8.092   4.191  17.371  0.00  0.00    +0.000 OA
ATOM     24  N   UNL     1       7.283   6.093  16.414  0.00  0.00    +0.000 N 
ATOM     25  H   UNL     1       6.690   6.918  16.479  0.00  0.00    +0.000 HD
BRANCH  24  26
ATOM     26  O   UNL     1       7.553   5.555  15.138  0.00  0.00    +0.000 OA
ATOM     27  H   UNL     1       6.715   5.729  14.656  0.00  0.00    +0.000 HD
ENDBRANCH  24  26
ENDBRANCH  21  22
ENDBRANCH  20  21
ENDBRANCH   3  20
TORSDOF 6
ENDMDL
MODEL 3
REMARK VINA RESULT:      -8.4      1.438      1.706
REMARK  Name = 
REMARK  8 active torsions:
REMARK  status: ('A' for Active; 'I' for Inactive)
REMARK    1  A    between atoms: C_1  and  O_2
REMARK    2  A    between atoms: O_2  and  C_3
REMARK    3  A    between atoms: C_6  and  C_7
REMARK    4  A    between atoms: C_9  and  O_10
REMARK    5  A    between atoms: O_10  and  C_11
REMARK    6  A    between atoms: C_11  and  C_12
REMARK    7  A    between atoms: N_14  and  O_15
REMARK    8  A    between atoms: C_20  and  C_21
REMARK                            x       y       z     vdW  Elec       q    Type
REMARK                         _______ _______ _______ _____ _____    ______ ____
ROOT
ATOM      1  C   UNL     1       2.595   6.739  18.438  0.00  0.00    +0.000 A 
ATOM      2  C   UNL     1       3.748   6.606  17.667  0.00  0.00    +0.000 A 
ATOM      3  C   UNL     1       4.335   5.358  17.419  0.00  0.00    +0.000 A 
ATOM      4  C   UNL     1       3.740   4.167  17.877  0.00  0.00    +0.000 A 
ATOM      5  N   UNL     1       4.280   2.963  17.608  0.00  0.00    +0.000 NA
ATOM      6  C   UNL     1       3.654   1.881  18.095  0.00  0.00    +0.000 A 
ATOM      7  N   UNL     1       2.547   1.879  18.844  0.00  0.00    +0.000 NA
ATOM      8  C   UNL     1       2.014   3.085  19.121  0.00  0.00    +0.000 A 
ATOM      9  C   UNL     1       0.790   3.069  19.995  0.00  0.00    +0.000 C 
ATOM     10  C   UNL     1       2.569   4.284  18.646  0.00  0.00    +0.000 A 
ATOM     11  C   UNL     1       2.017   5.559  18.917  0.00  0.00    +0.000 A 
ENDROOT
BRANCH   1  15
ATOM     12  C   UNL     1       1.099  10.544  19.529  0.00  0.00    +0.000 A 
ATOM     13  C   UNL     1       1.609  10.399  18.253  0.00  0.00    +0.000 A 
ATOM     14  C   UNL     1       2.081   9.143  17.871  0.00  0.00    +0.000 A 
ATOM     15  C   UNL     1       2.053   8.067  18.772  0.00  0.00    +0.000 A 
ATOM     16  C   UNL     1       1.523   8.346  20.032  0.00  0.00    +0.000 A 
ATOM     17  N   UNL     1       1.040   9.543  20.427  0.00  0.00    +0.000 NA
BRANCH  12  19
ATOM     18  C   UNL     1      -0.236  11.759  20.996  0.00  0.00    +0.000 C 
ATOM     19  O   UNL     1       0.652  11.800  19.883  0.00  0.00    +0.000 OA
ENDBRANCH  12  19
ENDBRANCH   1  15
BRANCH   3  20
ATOM     20  O   UNL     1       5.523   5.239  16.717  0.00  0.00    +0.000 OA
BRANCH  20  21
ATOM     21  C   UNL     1       6.605   6.023  17.219  0.00  0.00    +0.000 C 
BRANCH  21  22
ATOM     22  C   UNL     1       7.443   5.293  18.255  0.00  0.00    +0.000 C 
ATOM     23  O   UNL     1       8.173   4.344  17.968  0.00  0.00    +0.000 OA
ATOM     24  N   UNL     1       7.315   5.758  19.534  0.00  0.00    +0.000 N 
ATOM     25  H   UNL     1       6.852   6.638  19.754  0.00  0.00    +0.000 HD
BRANCH  24  26
ATOM     26  O   UNL     1       8.154   5.176  20.507  0.00  0.00    +0.000 OA
ATOM     27  H   UNL     1       7.748   5.483  21.347  0.00  0.00    +0.000 HD
ENDBRANCH  24  26
ENDBRANCH  21  22
ENDBRANCH  20  21
ENDBRANCH   3  20
TORSDOF 6
ENDMDL
MODEL 4
REMARK VINA RESULT:      -8.3      0.643      1.009
REMARK  Name = 
REMARK  8 active torsions:
REMARK  status: ('A' for Active; 'I' for Inactive)
REMARK    1  A    between atoms: C_1  and  O_2
REMARK    2  A    between atoms: O_2  and  C_3
REMARK    3  A    between atoms: C_6  and  C_7
REMARK    4  A    between atoms: C_9  and  O_10
REMARK    5  A    between atoms: O_10  and  C_11
REMARK    6  A    between atoms: C_11  and  C_12
REMARK    7  A    between atoms: N_14  and  O_15
REMARK    8  A    between atoms: C_20  and  C_21
REMARK                            x       y       z     vdW  Elec       q    Type
REMARK                         _______ _______ _______ _____ _____    ______ ____
ROOT
ATOM      1  C   UNL     1       2.223   7.022  19.605  0.00  0.00    +0.000 A 
ATOM      2  C   UNL     1       2.988   7.118  18.444  0.00  0.00    +0.000 A 
ATOM      3  C   UNL     1       3.597   5.998  17.863  0.00  0.00    +0.000 A 
ATOM      4  C   UNL     1       3.400   4.706  18.384  0.00  0.00    +0.000 A 
ATOM      5  N   UNL     1       3.952   3.623  17.806  0.00  0.00    +0.000 NA
ATOM      6  C   UNL     1       3.723   2.431  18.377  0.00  0.00    +0.000 A 
ATOM      7  N   UNL     1       3.010   2.211  19.487  0.00  0.00    +0.000 NA
ATOM      8  C   UNL     1       2.467   3.297  20.070  0.00  0.00    +0.000 A 
ATOM      9  C   UNL     1       1.698   3.037  21.337  0.00  0.00    +0.000 C 
ATOM     10  C   UNL     1       2.620   4.591  19.549  0.00  0.00    +0.000 A 
ATOM     11  C   UNL     1       2.048   5.742  20.141  0.00  0.00    +0.000 A 
ENDROOT
BRANCH   1  15
ATOM     12  C   UNL     1       0.563  10.493  21.369  0.00  0.00    +0.000 A 
ATOM     13  C   UNL     1       0.850   9.427  22.200  0.00  0.00    +0.000 A 
ATOM     14  C   UNL     1       1.422   8.287  21.637  0.00  0.00    +0.000 A 
ATOM     15  C   UNL     1       1.677   8.225  20.258  0.00  0.00    +0.000 A 
ATOM     16  C   UNL     1       1.334   9.362  19.526  0.00  0.00    +0.000 A 
ATOM     17  N   UNL     1       0.797  10.487  20.042  0.00  0.00    +0.000 NA
BRANCH  12  19
ATOM     18  C   UNL     1      -1.363  11.787  21.531  0.00  0.00    +0.000 C 
ATOM     19  O   UNL     1      -0.015  11.601  21.951  0.00  0.00    +0.000 OA
ENDBRANCH  12  19
ENDBRANCH   1  15
BRANCH   3  20
ATOM     20  O   UNL     1       4.418   6.112  16.754  0.00  0.00    +0.000 OA
BRANCH  20  21
ATOM     21  C   UNL     1       5.692   6.709  17.000  0.00  0.00    +0.000 C 
BRANCH  21  22
ATOM     22  C   UNL     1       6.853   5.760  16.762  0.00  0.00    +0.000 C 
ATOM     23  O   UNL     1       7.535   5.789  15.737  0.00  0.00    +0.000 OA
ATOM     24  N   UNL     1       7.079   4.859  17.766  0.00  0.00    +0.000 N 
ATOM     25  H   UNL     1       6.637   4.934  18.680  0.00  0.00    +0.000 HD
BRANCH  24  26
ATOM     26  O   UNL     1       8.212   4.030  17.630  0.00  0.00    +0.000 OA
ATOM     27  H   UNL     1       7.970   3.466  16.863  0.00  0.00    +0.000 HD
ENDBRANCH  24  26
ENDBRANCH  21  22
ENDBRANCH  20  21
ENDBRANCH   3  20
TORSDOF 6
ENDMDL
MODEL 5
REMARK VINA RESULT:      -8.3      1.681      2.034
REMARK  Name = 
REMARK  8 active torsions:
REMARK  status: ('A' for Active; 'I' for Inactive)
REMARK    1  A    between atoms: C_1  and  O_2
REMARK    2  A    between atoms: O_2  and  C_3
REMARK    3  A    between atoms: C_6  and  C_7
REMARK    4  A    between atoms: C_9  and  O_10
REMARK    5  A    between atoms: O_10  and  C_11
REMARK    6  A    between atoms: C_11  and  C_12
REMARK    7  A    between atoms: N_14  and  O_15
REMARK    8  A    between atoms: C_20  and  C_21
REMARK                            x       y       z     vdW  Elec       q    Type
REMARK                         _______ _______ _______ _____ _____    ______ ____
ROOT
ATOM      1  C   UNL     1       2.656   6.685  18.405  0.00  0.00    +0.000 A 
ATOM      2  C   UNL     1       3.805   6.518  17.634  0.00  0.00    +0.000 A 
ATOM      3  C   UNL     1       4.362   5.254  17.398  0.00  0.00    +0.000 A 
ATOM      4  C   UNL     1       3.740   4.082  17.868  0.00  0.00    +0.000 A 
ATOM      5  N   UNL     1       4.251   2.864  17.611  0.00  0.00    +0.000 NA
ATOM      6  C   UNL     1       3.599   1.801  18.108  0.00  0.00    +0.000 A 
ATOM      7  N   UNL     1       2.494   1.832  18.858  0.00  0.00    +0.000 NA
ATOM      8  C   UNL     1       1.990   3.053  19.123  0.00  0.00    +0.000 A 
ATOM      9  C   UNL     1       0.766   3.074  19.999  0.00  0.00    +0.000 C 
ATOM     10  C   UNL     1       2.572   4.234  18.637  0.00  0.00    +0.000 A 
ATOM     11  C   UNL     1       2.051   5.524  18.896  0.00  0.00    +0.000 A 
ENDROOT
BRANCH   1  15
ATOM     12  C   UNL     1       1.136  10.556  19.194  0.00  0.00    +0.000 A 
ATOM     13  C   UNL     1       1.002   9.601  20.184  0.00  0.00    +0.000 A 
ATOM     14  C   UNL     1       1.521   8.329  19.948  0.00  0.00    +0.000 A 
ATOM     15  C   UNL     1       2.145   8.029  18.727  0.00  0.00    +0.000 A 
ATOM     16  C   UNL     1       2.209   9.076  17.806  0.00  0.00    +0.000 A 
ATOM     17  N   UNL     1       1.734  10.322  18.010  0.00  0.00    +0.000 NA
BRANCH  12  19
ATOM     18  C   UNL     1       1.043  12.329  20.696  0.00  0.00    +0.000 C 
ATOM     19  O   UNL     1       0.601  11.800  19.450  0.00  0.00    +0.000 OA
ENDBRANCH  12  19
ENDBRANCH   1  15
BRANCH   3  20
ATOM     20  O   UNL     1       5.546   5.101  16.697  0.00  0.00    +0.000 OA
BRANCH  20  21
ATOM     21  C   UNL     1       6.632   5.906  17.156  0.00  0.00    +0.000 C 
BRANCH  21  22
ATOM     22  C   UNL     1       7.470   5.228  18.224  0.00  0.00    +0.000 C 
ATOM     23  O   UNL     1       8.241   4.301  17.974  0.00  0.00    +0.000 OA
ATOM     24  N   UNL     1       7.296   5.713  19.491  0.00  0.00    +0.000 N 
ATOM     25  H   UNL     1       6.796   6.578  19.683  0.00  0.00    +0.000 HD
BRANCH  24  26
ATOM     26  O   UNL     1       8.133   5.180  20.494  0.00  0.00    +0.000 OA
ATOM     27  H   UNL     1       8.422   5.986  20.976  0.00  0.00    +0.000 HD
ENDBRANCH  24  26
ENDBRANCH  21  22
ENDBRANCH  20  21
ENDBRANCH   3  20
TORSDOF 6
ENDMDL
MODEL 6
REMARK VINA RESULT:      -8.3      2.117      3.960
REMARK  Name = 
REMARK  8 active torsions:
REMARK  status: ('A' for Active; 'I' for Inactive)
REMARK    1  A    between atoms: C_1  and  O_2
REMARK    2  A    between atoms: O_2  and  C_3
REMARK    3  A    between atoms: C_6  and  C_7
REMARK    4  A    between atoms: C_9  and  O_10
REMARK    5  A    between atoms: O_10  and  C_11
REMARK    6  A    between atoms: C_11  and  C_12
REMARK    7  A    between atoms: N_14  and  O_15
REMARK    8  A    between atoms: C_20  and  C_21
REMARK                            x       y       z     vdW  Elec       q    Type
REMARK                         _______ _______ _______ _____ _____    ______ ____
ROOT
ATOM      1  C   UNL     1       3.101   6.821  18.200  0.00  0.00    +0.000 A 
ATOM      2  C   UNL     1       2.625   5.543  17.916  0.00  0.00    +0.000 A 
ATOM      3  C   UNL     1       3.434   4.564  17.322  0.00  0.00    +0.000 A 
ATOM      4  C   UNL     1       4.794   4.806  17.055  0.00  0.00    +0.000 A 
ATOM      5  N   UNL     1       5.585   3.856  16.520  0.00  0.00    +0.000 NA
ATOM      6  C   UNL     1       6.867   4.176  16.286  0.00  0.00    +0.000 A 
ATOM      7  N   UNL     1       7.438   5.363  16.514  0.00  0.00    +0.000 NA
ATOM      8  C   UNL     1       6.643   6.315  17.039  0.00  0.00    +0.000 A 
ATOM      9  C   UNL     1       7.292   7.656  17.256  0.00  0.00    +0.000 C 
ATOM     10  C   UNL     1       5.293   6.088  17.347  0.00  0.00    +0.000 A 
ATOM     11  C   UNL     1       4.446   7.072  17.909  0.00  0.00    +0.000 A 
ENDROOT
BRANCH   1  15
ATOM     12  C   UNL     1       0.611   9.826  19.838  0.00  0.00    +0.000 A 
ATOM     13  C   UNL     1       0.936   9.924  18.499  0.00  0.00    +0.000 A 
ATOM     14  C   UNL     1       1.734   8.927  17.939  0.00  0.00    +0.000 A 
ATOM     15  C   UNL     1       2.206   7.865  18.728  0.00  0.00    +0.000 A 
ATOM     16  C   UNL     1       1.816   7.886  20.067  0.00  0.00    +0.000 A 
ATOM     17  N   UNL     1       1.030   8.825  20.635  0.00  0.00    +0.000 NA
BRANCH  12  19
ATOM     18  C   UNL     1       0.505  12.089  20.366  0.00  0.00    +0.000 C 
ATOM     19  O   UNL     1      -0.167  10.833  20.367  0.00  0.00    +0.000 OA
ENDBRANCH  12  19
ENDBRANCH   1  15
BRANCH   3  20
ATOM     20  O   UNL     1       2.934   3.322  16.973  0.00  0.00    +0.000 OA
BRANCH  20  21
ATOM     21  C   UNL     1       2.315   2.595  18.035  0.00  0.00    +0.000 C 
BRANCH  21  22
ATOM     22  C   UNL     1       3.233   2.378  19.225  0.00  0.00    +0.000 C 
ATOM     23  O   UNL     1       2.960   2.782  20.356  0.00  0.00    +0.000 OA
ATOM     24  N   UNL     1       4.395   1.713  18.946  0.00  0.00    +0.000 N 
ATOM     25  H   UNL     1       4.553   1.232  18.063  0.00  0.00    +0.000 HD
BRANCH  24  26
ATOM     26  O   UNL     1       5.225   1.400  20.043  0.00  0.00    +0.000 OA
ATOM     27  H   UNL     1       5.131   0.424  20.105  0.00  0.00    +0.000 HD
ENDBRANCH  24  26
ENDBRANCH  21  22
ENDBRANCH  20  21
ENDBRANCH   3  20
TORSDOF 6
ENDMDL
MODEL 7
REMARK VINA RESULT:      -8.3      4.497      6.528
REMARK  Name = 
REMARK  8 active torsions:
REMARK  status: ('A' for Active; 'I' for Inactive)
REMARK    1  A    between atoms: C_1  and  O_2
REMARK    2  A    between atoms: O_2  and  C_3
REMARK    3  A    between atoms: C_6  and  C_7
REMARK    4  A    between atoms: C_9  and  O_10
REMARK    5  A    between atoms: O_10  and  C_11
REMARK    6  A    between atoms: C_11  and  C_12
REMARK    7  A    between atoms: N_14  and  O_15
REMARK    8  A    between atoms: C_20  and  C_21
REMARK                            x       y       z     vdW  Elec       q    Type
REMARK                         _______ _______ _______ _____ _____    ______ ____
ROOT
ATOM      1  C   UNL     1       4.712   4.226  16.294  0.00  0.00    +0.000 A 
ATOM      2  C   UNL     1       5.669   5.123  16.764  0.00  0.00    +0.000 A 
ATOM      3  C   UNL     1       6.753   5.532  15.976  0.00  0.00    +0.000 A 
ATOM      4  C   UNL     1       6.884   5.112  14.640  0.00  0.00    +0.000 A 
ATOM      5  N   UNL     1       7.903   5.533  13.867  0.00  0.00    +0.000 NA
ATOM      6  C   UNL     1       7.958   5.072  12.608  0.00  0.00    +0.000 A 
ATOM      7  N   UNL     1       7.104   4.212  12.044  0.00  0.00    +0.000 NA
ATOM      8  C   UNL     1       6.091   3.784  12.822  0.00  0.00    +0.000 A 
ATOM      9  C   UNL     1       5.159   2.788  12.185  0.00  0.00    +0.000 C 
ATOM     10  C   UNL     1       5.919   4.216  14.147  0.00  0.00    +0.000 A 
ATOM     11  C   UNL     1       4.855   3.786  14.974  0.00  0.00    +0.000 A 
ENDROOT
BRANCH   1  15
ATOM     12  C   UNL     1       1.729   2.753  18.910  0.00  0.00    +0.000 A 
ATOM     13  C   UNL     1       1.518   3.989  18.329  0.00  0.00    +0.000 A 
ATOM     14  C   UNL     1       2.480   4.475  17.445  0.00  0.00    +0.000 A 
ATOM     15  C   UNL     1       3.639   3.730  17.172  0.00  0.00    +0.000 A 
ATOM     16  C   UNL     1       3.738   2.503  17.829  0.00  0.00    +0.000 A 
ATOM     17  N   UNL     1       2.817   1.995  18.675  0.00  0.00    +0.000 NA
BRANCH  12  19
ATOM     18  C   UNL     1       1.023   2.727  21.126  0.00  0.00    +0.000 C 
ATOM     19  O   UNL     1       0.768   2.304  19.790  0.00  0.00    +0.000 OA
ENDBRANCH  12  19
ENDBRANCH   1  15
BRANCH   3  20
ATOM     20  O   UNL     1       7.742   6.363  16.475  0.00  0.00    +0.000 OA
BRANCH  20  21
ATOM     21  C   UNL     1       7.578   6.750  17.840  0.00  0.00    +0.000 C 
BRANCH  21  22
ATOM     22  C   UNL     1       7.978   5.663  18.822  0.00  0.00    +0.000 C 
ATOM     23  O   UNL     1       8.312   4.534  18.462  0.00  0.00    +0.000 OA
ATOM     24  N   UNL     1       7.925   6.026  20.139  0.00  0.00    +0.000 N 
ATOM     25  H   UNL     1       7.816   6.993  20.438  0.00  0.00    +0.000 HD
BRANCH  24  26
ATOM     26  O   UNL     1       8.389   5.078  21.076  0.00  0.00    +0.000 OA
ATOM     27  H   UNL     1       9.336   5.320  21.168  0.00  0.00    +0.000 HD
ENDBRANCH  24  26
ENDBRANCH  21  22
ENDBRANCH  20  21
ENDBRANCH   3  20
TORSDOF 6
ENDMDL
MODEL 8
REMARK VINA RESULT:      -8.2      2.289      4.090
REMARK  Name = 
REMARK  8 active torsions:
REMARK  status: ('A' for Active; 'I' for Inactive)
REMARK    1  A    between atoms: C_1  and  O_2
REMARK    2  A    between atoms: O_2  and  C_3
REMARK    3  A    between atoms: C_6  and  C_7
REMARK    4  A    between atoms: C_9  and  O_10
REMARK    5  A    between atoms: O_10  and  C_11
REMARK    6  A    between atoms: C_11  and  C_12
REMARK    7  A    between atoms: N_14  and  O_15
REMARK    8  A    between atoms: C_20  and  C_21
REMARK                            x       y       z     vdW  Elec       q    Type
REMARK                         _______ _______ _______ _____ _____    ______ ____
ROOT
ATOM      1  C   UNL     1       3.091   6.918  18.219  0.00  0.00    +0.000 A 
ATOM      2  C   UNL     1       2.589   5.647  17.943  0.00  0.00    +0.000 A 
ATOM      3  C   UNL     1       3.379   4.649  17.358  0.00  0.00    +0.000 A 
ATOM      4  C   UNL     1       4.745   4.860  17.092  0.00  0.00    +0.000 A 
ATOM      5  N   UNL     1       5.517   3.892  16.565  0.00  0.00    +0.000 NA
ATOM      6  C   UNL     1       6.806   4.184  16.332  0.00  0.00    +0.000 A 
ATOM      7  N   UNL     1       7.401   5.359  16.553  0.00  0.00    +0.000 NA
ATOM      8  C   UNL     1       6.625   6.331  17.070  0.00  0.00    +0.000 A 
ATOM      9  C   UNL     1       7.300   7.660  17.280  0.00  0.00    +0.000 C 
ATOM     10  C   UNL     1       5.269   6.134  17.377  0.00  0.00    +0.000 A 
ATOM     11  C   UNL     1       4.442   7.139  17.930  0.00  0.00    +0.000 A 
ENDROOT
BRANCH   1  15
ATOM     12  C   UNL     1       0.503   9.973  19.589  0.00  0.00    +0.000 A 
ATOM     13  C   UNL     1       0.894   9.010  20.499  0.00  0.00    +0.000 A 
ATOM     14  C   UNL     1       1.767   8.012  20.068  0.00  0.00    +0.000 A 
ATOM     15  C   UNL     1       2.217   7.984  18.739  0.00  0.00    +0.000 A 
ATOM     16  C   UNL     1       1.742   9.006  17.917  0.00  0.00    +0.000 A 
ATOM     17  N   UNL     1       0.912   9.997  18.306  0.00  0.00    +0.000 NA
BRANCH  12  19
ATOM     18  C   UNL     1      -1.495  11.090  19.177  0.00  0.00    +0.000 C 
ATOM     19  O   UNL     1      -0.372  10.939  20.039  0.00  0.00    +0.000 OA
ENDBRANCH  12  19
ENDBRANCH   1  15
BRANCH   3  20
ATOM     20  O   UNL     1       2.854   3.415  17.015  0.00  0.00    +0.000 OA
BRANCH  20  21
ATOM     21  C   UNL     1       2.263   2.686  18.091  0.00  0.00    +0.000 C 
BRANCH  21  22
ATOM     22  C   UNL     1       3.222   2.434  19.241  0.00  0.00    +0.000 C 
ATOM     23  O   UNL     1       3.013   2.847  20.382  0.00  0.00    +0.000 OA
ATOM     24  N   UNL     1       4.344   1.725  18.913  0.00  0.00    +0.000 N 
ATOM     25  H   UNL     1       4.446   1.239  18.024  0.00  0.00    +0.000 HD
BRANCH  24  26
ATOM     26  O   UNL     1       5.208   1.380  19.974  0.00  0.00    +0.000 OA
ATOM     27  H   UNL     1       5.094   0.405  20.029  0.00  0.00    +0.000 HD
ENDBRANCH  24  26
ENDBRANCH  21  22
ENDBRANCH  20  21
ENDBRANCH   3  20
TORSDOF 6
ENDMDL
MODEL 9
REMARK VINA RESULT:      -8.0      1.090      1.510
REMARK  Name = 
REMARK  8 active torsions:
REMARK  status: ('A' for Active; 'I' for Inactive)
REMARK    1  A    between atoms: C_1  and  O_2
REMARK    2  A    between atoms: O_2  and  C_3
REMARK    3  A    between atoms: C_6  and  C_7
REMARK    4  A    between atoms: C_9  and  O_10
REMARK    5  A    between atoms: O_10  and  C_11
REMARK    6  A    between atoms: C_11  and  C_12
REMARK    7  A    between atoms: N_14  and  O_15
REMARK    8  A    between atoms: C_20  and  C_21
REMARK                            x       y       z     vdW  Elec       q    Type
REMARK                         _______ _______ _______ _____ _____    ______ ____
ROOT
ATOM      1  C   UNL     1       2.262   6.781  19.593  0.00  0.00    +0.000 A 
ATOM      2  C   UNL     1       3.170   6.836  18.538  0.00  0.00    +0.000 A 
ATOM      3  C   UNL     1       3.743   5.680  17.991  0.00  0.00    +0.000 A 
ATOM      4  C   UNL     1       3.367   4.399  18.435  0.00  0.00    +0.000 A 
ATOM      5  N   UNL     1       3.886   3.284  17.887  0.00  0.00    +0.000 NA
ATOM      6  C   UNL     1       3.481   2.104  18.381  0.00  0.00    +0.000 A 
ATOM      7  N   UNL     1       2.620   1.922  19.387  0.00  0.00    +0.000 NA
ATOM      8  C   UNL     1       2.110   3.039  19.941  0.00  0.00    +0.000 A 
ATOM      9  C   UNL     1       1.170   2.819  21.096  0.00  0.00    +0.000 C 
ATOM     10  C   UNL     1       2.442   4.327  19.492  0.00  0.00    +0.000 A 
ATOM     11  C   UNL     1       1.907   5.509  20.055  0.00  0.00    +0.000 A 
ENDROOT
BRANCH   1  15
ATOM     12  C   UNL     1       0.695  10.329  21.288  0.00  0.00    +0.000 A 
ATOM     13  C   UNL     1       1.011   9.294  22.148  0.00  0.00    +0.000 A 
ATOM     14  C   UNL     1       1.553   8.129  21.606  0.00  0.00    +0.000 A 
ATOM     15  C   UNL     1       1.750   8.012  20.221  0.00  0.00    +0.000 A 
ATOM     16  C   UNL     1       1.382   9.123  19.460  0.00  0.00    +0.000 A 
ATOM     17  N   UNL     1       0.874  10.271  19.954  0.00  0.00    +0.000 NA
BRANCH  12  19
ATOM     18  C   UNL     1      -0.928  11.160  22.732  0.00  0.00    +0.000 C 
ATOM     19  O   UNL     1       0.149  11.463  21.850  0.00  0.00    +0.000 OA
ENDBRANCH  12  19
ENDBRANCH   1  15
BRANCH   3  20
ATOM     20  O   UNL     1       4.701   5.745  16.995  0.00  0.00    +0.000 OA
BRANCH  20  21
ATOM     21  C   UNL     1       6.044   5.910  17.453  0.00  0.00    +0.000 C 
BRANCH  21  22
ATOM     22  C   UNL     1       7.073   5.293  16.523  0.00  0.00    +0.000 C 
ATOM     23  O   UNL     1       7.887   4.450  16.901  0.00  0.00    +0.000 OA
ATOM     24  N   UNL     1       7.040   5.754  15.237  0.00  0.00    +0.000 N 
ATOM     25  H   UNL     1       6.274   6.318  14.875  0.00  0.00    +0.000 HD
BRANCH  24  26
ATOM     26  O   UNL     1       7.911   5.131  14.317  0.00  0.00    +0.000 OA
ATOM     27  H   UNL     1       8.782   5.214  14.764  0.00  0.00    +0.000 HD
ENDBRANCH  24  26
ENDBRANCH  21  22
ENDBRANCH  20  21
ENDBRANCH   3  20
TORSDOF 6
ENDMDL
