MODEL 1
REMARK VINA RESULT:      -9.4      0.000      0.000
REMARK  Name = 
REMARK  3 active torsions:
REMARK  status: ('A' for Active; 'I' for Inactive)
REMARK    1  A    between atoms: C_2  and  C_3
REMARK    2  A    between atoms: C_7  and  C_8
REMARK    3  A    between atoms: C_20  and  C_21
REMARK                            x       y       z     vdW  Elec       q    Type
REMARK                         _______ _______ _______ _____ _____    ______ ____
ROOT
ATOM      1  O   UNL     1       2.067   7.446  20.380  0.00  0.00    +0.000 OA
ATOM      2  C   UNL     1       2.431   7.449  19.203  0.00  0.00    +0.000 C 
ATOM      3  N   UNL     1       3.304   6.487  18.702  0.00  0.00    +0.000 N 
ATOM      4  N   UNL     1       3.855   6.540  17.442  0.00  0.00    +0.000 NA
ATOM      5  C   UNL     1       4.723   5.572  17.365  0.00  0.00    +0.000 C 
ATOM      6  C   UNL     1       4.858   4.740  18.621  0.00  0.00    +0.000 C 
ATOM      7  C   UNL     1       3.852   5.422  19.535  0.00  0.00    +0.000 C 
ENDROOT
BRANCH   5   8
ATOM      8  C   UNL     1       5.585   5.283  16.180  0.00  0.00    +0.000 A 
ATOM      9  C   UNL     1       5.078   4.498  15.211  0.00  0.00    +0.000 A 
ATOM     10  C   UNL     1       5.837   4.250  13.991  0.00  0.00    +0.000 A 
ATOM     11  C   UNL     1       5.364   3.441  12.955  0.00  0.00    +0.000 A 
ATOM     12  C   UNL     1       6.132   3.262  11.797  0.00  0.00    +0.000 A 
ATOM     13  C   UNL     1       7.374   3.889  11.664  0.00  0.00    +0.000 A 
ATOM     14  C   UNL     1       7.852   4.694  12.691  0.00  0.00    +0.000 A 
ATOM     15  C   UNL     1       7.078   4.860  13.837  0.00  0.00    +0.000 A 
ATOM     16  O   UNL     1       7.607   5.679  14.843  0.00  0.00    +0.000 OA
ATOM     17  C   UNL     1       6.924   5.901  16.029  0.00  0.00    +0.000 A 
ATOM     18  O   UNL     1       7.432   6.588  16.910  0.00  0.00    +0.000 OA
ENDBRANCH   5   8
BRANCH   7  19
ATOM     19  C   UNL     1       2.794   4.455  20.035  0.00  0.00    +0.000 A 
ATOM     20  C   UNL     1       1.838   3.944  19.142  0.00  0.00    +0.000 A 
ATOM     21  C   UNL     1       0.857   3.056  19.585  0.00  0.00    +0.000 A 
ATOM     22  C   UNL     1       0.818   2.669  20.923  0.00  0.00    +0.000 A 
ATOM     23  C   UNL     1       1.761   3.165  21.820  0.00  0.00    +0.000 A 
ATOM     24  C   UNL     1       2.745   4.050  21.379  0.00  0.00    +0.000 A 
ENDBRANCH   7  19
BRANCH   2  25
ATOM     25  C   UNL     1       1.929   8.456  18.185  0.00  0.00    +0.000 C 
ATOM     26 CL   UNL     1       1.171   9.850  18.991  0.00  0.00    +0.000 Cl
ENDBRANCH   2  25
TORSDOF 3
ENDMDL
MODEL 2
REMARK VINA RESULT:      -8.8      3.187      7.959
REMARK  Name = 
REMARK  3 active torsions:
REMARK  status: ('A' for Active; 'I' for Inactive)
REMARK    1  A    between atoms: C_2  and  C_3
REMARK    2  A    between atoms: C_7  and  C_8
REMARK    3  A    between atoms: C_20  and  C_21
REMARK                            x       y       z     vdW  Elec       q    Type
REMARK                         _______ _______ _______ _____ _____    ______ ____
ROOT
ATOM      1  O   UNL     1       4.383   2.295  19.575  0.00  0.00    +0.000 OA
ATOM      2  C   UNL     1       3.360   2.979  19.650  0.00  0.00    +0.000 C 
ATOM      3  N   UNL     1       3.389   4.362  19.502  0.00  0.00    +0.000 N 
ATOM      4  N   UNL     1       2.302   5.176  19.730  0.00  0.00    +0.000 NA
ATOM      5  C   UNL     1       2.722   6.406  19.638  0.00  0.00    +0.000 C 
ATOM      6  C   UNL     1       4.197   6.551  19.335  0.00  0.00    +0.000 C 
ATOM      7  C   UNL     1       4.627   5.094  19.258  0.00  0.00    +0.000 C 
ENDROOT
BRANCH   5   8
ATOM      8  C   UNL     1       1.879   7.619  19.851  0.00  0.00    +0.000 A 
ATOM      9  C   UNL     1       1.343   7.806  21.073  0.00  0.00    +0.000 A 
ATOM     10  C   UNL     1       0.583   9.014  21.367  0.00  0.00    +0.000 A 
ATOM     11  C   UNL     1       0.000   9.259  22.613  0.00  0.00    +0.000 A 
ATOM     12  C   UNL     1      -0.698  10.452  22.840  0.00  0.00    +0.000 A 
ATOM     13  C   UNL     1      -0.818  11.408  21.828  0.00  0.00    +0.000 A 
ATOM     14  C   UNL     1      -0.243  11.172  20.585  0.00  0.00    +0.000 A 
ATOM     15  C   UNL     1       0.446   9.980  20.375  0.00  0.00    +0.000 A 
ATOM     16  O   UNL     1       1.003   9.788  19.103  0.00  0.00    +0.000 OA
ATOM     17  C   UNL     1       1.698   8.633  18.784  0.00  0.00    +0.000 A 
ATOM     18  O   UNL     1       2.138   8.474  17.649  0.00  0.00    +0.000 OA
ENDBRANCH   5   8
BRANCH   7  19
ATOM     19  C   UNL     1       5.261   4.761  17.919  0.00  0.00    +0.000 A 
ATOM     20  C   UNL     1       6.659   4.729  17.798  0.00  0.00    +0.000 A 
ATOM     21  C   UNL     1       7.259   4.428  16.574  0.00  0.00    +0.000 A 
ATOM     22  C   UNL     1       6.471   4.156  15.459  0.00  0.00    +0.000 A 
ATOM     23  C   UNL     1       5.081   4.180  15.564  0.00  0.00    +0.000 A 
ATOM     24  C   UNL     1       4.479   4.479  16.787  0.00  0.00    +0.000 A 
ENDBRANCH   7  19
BRANCH   2  25
ATOM     25  C   UNL     1       1.981   2.381  19.857  0.00  0.00    +0.000 C 
ATOM     26 CL   UNL     1       1.487   2.499  21.564  0.00  0.00    +0.000 Cl
ENDBRANCH   2  25
TORSDOF 3
ENDMDL
MODEL 3
REMARK VINA RESULT:      -8.7      3.116      7.927
REMARK  Name = 
REMARK  3 active torsions:
REMARK  status: ('A' for Active; 'I' for Inactive)
REMARK    1  A    between atoms: C_2  and  C_3
REMARK    2  A    between atoms: C_7  and  C_8
REMARK    3  A    between atoms: C_20  and  C_21
REMARK                            x       y       z     vdW  Elec       q    Type
REMARK                         _______ _______ _______ _____ _____    ______ ____
ROOT
ATOM      1  O   UNL     1       3.962   2.394  18.362  0.00  0.00    +0.000 OA
ATOM      2  C   UNL     1       3.003   3.165  18.434  0.00  0.00    +0.000 C 
ATOM      3  N   UNL     1       3.172   4.529  18.648  0.00  0.00    +0.000 N 
ATOM      4  N   UNL     1       2.132   5.398  18.888  0.00  0.00    +0.000 NA
ATOM      5  C   UNL     1       2.660   6.552  19.182  0.00  0.00    +0.000 C 
ATOM      6  C   UNL     1       4.172   6.577  19.178  0.00  0.00    +0.000 C 
ATOM      7  C   UNL     1       4.490   5.136  18.808  0.00  0.00    +0.000 C 
ENDROOT
BRANCH   5   8
ATOM      8  C   UNL     1       1.893   7.779  19.551  0.00  0.00    +0.000 A 
ATOM      9  C   UNL     1       1.378   7.849  20.793  0.00  0.00    +0.000 A 
ATOM     10  C   UNL     1       0.694   9.056  21.240  0.00  0.00    +0.000 A 
ATOM     11  C   UNL     1       0.136   9.184  22.515  0.00  0.00    +0.000 A 
ATOM     12  C   UNL     1      -0.488  10.380  22.892  0.00  0.00    +0.000 A 
ATOM     13  C   UNL     1      -0.557  11.456  22.003  0.00  0.00    +0.000 A 
ATOM     14  C   UNL     1      -0.007  11.337  20.733  0.00  0.00    +0.000 A 
ATOM     15  C   UNL     1       0.608  10.140  20.372  0.00  0.00    +0.000 A 
ATOM     16  O   UNL     1       1.144  10.070  19.079  0.00  0.00    +0.000 OA
ATOM     17  C   UNL     1       1.766   8.922  18.615  0.00  0.00    +0.000 A 
ATOM     18  O   UNL     1       2.188   8.876  17.463  0.00  0.00    +0.000 OA
ENDBRANCH   5   8
BRANCH   7  19
ATOM     19  C   UNL     1       5.342   5.048  17.555  0.00  0.00    +0.000 A 
ATOM     20  C   UNL     1       4.809   5.452  16.320  0.00  0.00    +0.000 A 
ATOM     21  C   UNL     1       5.577   5.375  15.157  0.00  0.00    +0.000 A 
ATOM     22  C   UNL     1       6.883   4.893  15.213  0.00  0.00    +0.000 A 
ATOM     23  C   UNL     1       7.426   4.491  16.432  0.00  0.00    +0.000 A 
ATOM     24  C   UNL     1       6.661   4.570  17.596  0.00  0.00    +0.000 A 
ENDBRANCH   7  19
BRANCH   2  25
ATOM     25  C   UNL     1       1.566   2.715  18.249  0.00  0.00    +0.000 C 
ATOM     26 CL   UNL     1       0.749   2.532  19.820  0.00  0.00    +0.000 Cl
ENDBRANCH   2  25
TORSDOF 3
ENDMDL
MODEL 4
REMARK VINA RESULT:      -8.4      3.302      7.526
REMARK  Name = 
REMARK  3 active torsions:
REMARK  status: ('A' for Active; 'I' for Inactive)
REMARK    1  A    between atoms: C_2  and  C_3
REMARK    2  A    between atoms: C_7  and  C_8
REMARK    3  A    between atoms: C_20  and  C_21
REMARK                            x       y       z     vdW  Elec       q    Type
REMARK                         _______ _______ _______ _____ _____    ______ ____
ROOT
ATOM      1  O   UNL     1       5.694   4.895  16.311  0.00  0.00    +0.000 OA
ATOM      2  C   UNL     1       5.462   5.920  16.955  0.00  0.00    +0.000 C 
ATOM      3  N   UNL     1       4.242   6.126  17.591  0.00  0.00    +0.000 N 
ATOM      4  N   UNL     1       3.884   7.314  18.187  0.00  0.00    +0.000 NA
ATOM      5  C   UNL     1       2.638   7.198  18.550  0.00  0.00    +0.000 C 
ATOM      6  C   UNL     1       2.001   5.868  18.212  0.00  0.00    +0.000 C 
ATOM      7  C   UNL     1       3.157   5.151  17.533  0.00  0.00    +0.000 C 
ENDROOT
BRANCH   5   8
ATOM      8  C   UNL     1       1.831   8.270  19.204  0.00  0.00    +0.000 A 
ATOM      9  C   UNL     1       1.399   8.052  20.461  0.00  0.00    +0.000 A 
ATOM     10  C   UNL     1       0.680   9.094  21.184  0.00  0.00    +0.000 A 
ATOM     11  C   UNL     1       0.204   8.924  22.486  0.00  0.00    +0.000 A 
ATOM     12  C   UNL     1      -0.458   9.974  23.136  0.00  0.00    +0.000 A 
ATOM     13  C   UNL     1      -0.648  11.199  22.492  0.00  0.00    +0.000 A 
ATOM     14  C   UNL     1      -0.180  11.377  21.196  0.00  0.00    +0.000 A 
ATOM     15  C   UNL     1       0.475  10.323  20.563  0.00  0.00    +0.000 A 
ATOM     16  O   UNL     1       0.925  10.552  19.256  0.00  0.00    +0.000 OA
ATOM     17  C   UNL     1       1.577   9.567  18.532  0.00  0.00    +0.000 A 
ATOM     18  O   UNL     1       1.920   9.782  17.374  0.00  0.00    +0.000 OA
ENDBRANCH   5   8
BRANCH   7  19
ATOM     19  C   UNL     1       3.497   3.842  18.224  0.00  0.00    +0.000 A 
ATOM     20  C   UNL     1       3.212   2.623  17.587  0.00  0.00    +0.000 A 
ATOM     21  C   UNL     1       3.514   1.411  18.208  0.00  0.00    +0.000 A 
ATOM     22  C   UNL     1       4.103   1.401  19.470  0.00  0.00    +0.000 A 
ATOM     23  C   UNL     1       4.395   2.602  20.114  0.00  0.00    +0.000 A 
ATOM     24  C   UNL     1       4.096   3.816  19.493  0.00  0.00    +0.000 A 
ENDBRANCH   7  19
BRANCH   2  25
ATOM     25  C   UNL     1       6.488   7.019  17.156  0.00  0.00    +0.000 C 
ATOM     26 CL   UNL     1       7.688   6.552  18.384  0.00  0.00    +0.000 Cl
ENDBRANCH   2  25
TORSDOF 3
ENDMDL
MODEL 5
REMARK VINA RESULT:      -7.5      3.959      6.667
REMARK  Name = 
REMARK  3 active torsions:
REMARK  status: ('A' for Active; 'I' for Inactive)
REMARK    1  A    between atoms: C_2  and  C_3
REMARK    2  A    between atoms: C_7  and  C_8
REMARK    3  A    between atoms: C_20  and  C_21
REMARK                            x       y       z     vdW  Elec       q    Type
REMARK                         _______ _______ _______ _____ _____    ______ ____
ROOT
ATOM      1  O   UNL     1      -1.812  12.246  18.066  0.00  0.00    +0.000 OA
ATOM      2  C   UNL     1      -1.475  11.075  17.880  0.00  0.00    +0.000 C 
ATOM      3  N   UNL     1      -0.315  10.548  18.440  0.00  0.00    +0.000 N 
ATOM      4  N   UNL     1       0.179   9.300  18.135  0.00  0.00    +0.000 NA
ATOM      5  C   UNL     1       1.337   9.195  18.722  0.00  0.00    +0.000 C 
ATOM      6  C   UNL     1       1.763  10.416  19.507  0.00  0.00    +0.000 C 
ATOM      7  C   UNL     1       0.580  11.343  19.274  0.00  0.00    +0.000 C 
ENDROOT
BRANCH   5   8
ATOM      8  C   UNL     1       2.244   8.012  18.629  0.00  0.00    +0.000 A 
ATOM      9  C   UNL     1       3.050   7.922  17.554  0.00  0.00    +0.000 A 
ATOM     10  C   UNL     1       4.017   6.837  17.449  0.00  0.00    +0.000 A 
ATOM     11  C   UNL     1       4.876   6.689  16.356  0.00  0.00    +0.000 A 
ATOM     12  C   UNL     1       5.801   5.637  16.326  0.00  0.00    +0.000 A 
ATOM     13  C   UNL     1       5.879   4.729  17.385  0.00  0.00    +0.000 A 
ATOM     14  C   UNL     1       5.028   4.867  18.475  0.00  0.00    +0.000 A 
ATOM     15  C   UNL     1       4.112   5.917  18.489  0.00  0.00    +0.000 A 
ATOM     16  O   UNL     1       3.275   6.010  19.609  0.00  0.00    +0.000 OA
ATOM     17  C   UNL     1       2.320   7.008  19.718  0.00  0.00    +0.000 A 
ATOM     18  O   UNL     1       1.571   7.039  20.690  0.00  0.00    +0.000 OA
ENDBRANCH   5   8
BRANCH   7  19
ATOM     19  C   UNL     1      -0.059  11.786  20.578  0.00  0.00    +0.000 A 
ATOM     20  C   UNL     1      -0.096  13.150  20.908  0.00  0.00    +0.000 A 
ATOM     21  C   UNL     1      -0.677  13.574  22.104  0.00  0.00    +0.000 A 
ATOM     22  C   UNL     1      -1.226  12.643  22.983  0.00  0.00    +0.000 A 
ATOM     23  C   UNL     1      -1.200  11.287  22.667  0.00  0.00    +0.000 A 
ATOM     24  C   UNL     1      -0.622  10.860  21.471  0.00  0.00    +0.000 A 
ENDBRANCH   7  19
BRANCH   2  25
ATOM     25  C   UNL     1      -2.306  10.094  17.075  0.00  0.00    +0.000 C 
ATOM     26 CL   UNL     1      -2.722  10.769  15.482  0.00  0.00    +0.000 Cl
ENDBRANCH   2  25
TORSDOF 3
ENDMDL
MODEL 6
REMARK VINA RESULT:      -7.5      3.193      6.177
REMARK  Name = 
REMARK  3 active torsions:
REMARK  status: ('A' for Active; 'I' for Inactive)
REMARK    1  A    between atoms: C_2  and  C_3
REMARK    2  A    between atoms: C_7  and  C_8
REMARK    3  A    between atoms: C_20  and  C_21
REMARK                            x       y       z     vdW  Elec       q    Type
REMARK                         _______ _______ _______ _____ _____    ______ ____
ROOT
ATOM      1  O   UNL     1      -0.309  10.846  21.316  0.00  0.00    +0.000 OA
ATOM      2  C   UNL     1       0.505   9.921  21.281  0.00  0.00    +0.000 C 
ATOM      3  N   UNL     1       1.024   9.444  20.081  0.00  0.00    +0.000 N 
ATOM      4  N   UNL     1       1.812   8.320  19.985  0.00  0.00    +0.000 NA
ATOM      5  C   UNL     1       1.994   8.090  18.715  0.00  0.00    +0.000 C 
ATOM      6  C   UNL     1       1.310   9.072  17.789  0.00  0.00    +0.000 C 
ATOM      7  C   UNL     1       0.635   9.998  18.788  0.00  0.00    +0.000 C 
ENDROOT
BRANCH   5   8
ATOM      8  C   UNL     1       2.761   6.940  18.152  0.00  0.00    +0.000 A 
ATOM      9  C   UNL     1       3.715   7.208  17.239  0.00  0.00    +0.000 A 
ATOM     10  C   UNL     1       4.556   6.138  16.717  0.00  0.00    +0.000 A 
ATOM     11  C   UNL     1       5.557   6.355  15.766  0.00  0.00    +0.000 A 
ATOM     12  C   UNL     1       6.348   5.288  15.322  0.00  0.00    +0.000 A 
ATOM     13  C   UNL     1       6.148   3.999  15.823  0.00  0.00    +0.000 A 
ATOM     14  C   UNL     1       5.154   3.774  16.768  0.00  0.00    +0.000 A 
ATOM     15  C   UNL     1       4.374   4.845  17.198  0.00  0.00    +0.000 A 
ATOM     16  O   UNL     1       3.384   4.564  18.148  0.00  0.00    +0.000 OA
ATOM     17  C   UNL     1       2.545   5.555  18.634  0.00  0.00    +0.000 A 
ATOM     18  O   UNL     1       1.658   5.271  19.433  0.00  0.00    +0.000 OA
ENDBRANCH   5   8
BRANCH   7  19
ATOM     19  C   UNL     1       1.067  11.442  18.605  0.00  0.00    +0.000 A 
ATOM     20  C   UNL     1       2.408  11.735  18.309  0.00  0.00    +0.000 A 
ATOM     21  C   UNL     1       2.824  13.057  18.141  0.00  0.00    +0.000 A 
ATOM     22  C   UNL     1       1.908  14.098  18.266  0.00  0.00    +0.000 A 
ATOM     23  C   UNL     1       0.574  13.823  18.556  0.00  0.00    +0.000 A 
ATOM     24  C   UNL     1       0.155  12.502  18.722  0.00  0.00    +0.000 A 
ENDBRANCH   7  19
BRANCH   2  25
ATOM     25  C   UNL     1       1.053   9.255  22.530  0.00  0.00    +0.000 C 
ATOM     26 CL   UNL     1      -0.076   9.437  23.894  0.00  0.00    +0.000 Cl
ENDBRANCH   2  25
TORSDOF 3
ENDMDL
MODEL 7
REMARK VINA RESULT:      -7.5      3.885      6.827
REMARK  Name = 
REMARK  3 active torsions:
REMARK  status: ('A' for Active; 'I' for Inactive)
REMARK    1  A    between atoms: C_2  and  C_3
REMARK    2  A    between atoms: C_7  and  C_8
REMARK    3  A    between atoms: C_20  and  C_21
REMARK                            x       y       z     vdW  Elec       q    Type
REMARK                         _______ _______ _______ _____ _____    ______ ____
ROOT
ATOM      1  O   UNL     1      -0.241  13.473  19.022  0.00  0.00    +0.000 OA
ATOM      2  C   UNL     1       0.698  12.750  18.682  0.00  0.00    +0.000 C 
ATOM      3  N   UNL     1       0.622  11.363  18.762  0.00  0.00    +0.000 N 
ATOM      4  N   UNL     1       1.693  10.527  18.540  0.00  0.00    +0.000 NA
ATOM      5  C   UNL     1       1.302   9.321  18.839  0.00  0.00    +0.000 C 
ATOM      6  C   UNL     1      -0.128   9.219  19.322  0.00  0.00    +0.000 C 
ATOM      7  C   UNL     1      -0.564  10.674  19.261  0.00  0.00    +0.000 C 
ENDROOT
BRANCH   5   8
ATOM      8  C   UNL     1       2.161   8.101  18.780  0.00  0.00    +0.000 A 
ATOM      9  C   UNL     1       2.950   7.939  17.701  0.00  0.00    +0.000 A 
ATOM     10  C   UNL     1       3.873   6.813  17.626  0.00  0.00    +0.000 A 
ATOM     11  C   UNL     1       4.712   6.591  16.530  0.00  0.00    +0.000 A 
ATOM     12  C   UNL     1       5.595   5.504  16.529  0.00  0.00    +0.000 A 
ATOM     13  C   UNL     1       5.649   4.633  17.620  0.00  0.00    +0.000 A 
ATOM     14  C   UNL     1       4.817   4.844  18.714  0.00  0.00    +0.000 A 
ATOM     15  C   UNL     1       3.943   5.929  18.698  0.00  0.00    +0.000 A 
ATOM     16  O   UNL     1       3.124   6.096  19.823  0.00  0.00    +0.000 OA
ATOM     17  C   UNL     1       2.211   7.135  19.905  0.00  0.00    +0.000 A 
ATOM     18  O   UNL     1       1.476   7.231  20.883  0.00  0.00    +0.000 OA
ENDBRANCH   5   8
BRANCH   7  19
ATOM     19  C   UNL     1      -1.780  10.865  18.373  0.00  0.00    +0.000 A 
ATOM     20  C   UNL     1      -1.810  10.278  17.097  0.00  0.00    +0.000 A 
ATOM     21  C   UNL     1      -2.919  10.446  16.266  0.00  0.00    +0.000 A 
ATOM     22  C   UNL     1      -4.008  11.199  16.697  0.00  0.00    +0.000 A 
ATOM     23  C   UNL     1      -3.994  11.784  17.962  0.00  0.00    +0.000 A 
ATOM     24  C   UNL     1      -2.888  11.616  18.796  0.00  0.00    +0.000 A 
ENDBRANCH   7  19
BRANCH   2  25
ATOM     25  C   UNL     1       1.990  13.292  18.101  0.00  0.00    +0.000 C 
ATOM     26 CL   UNL     1       2.177  15.023  18.472  0.00  0.00    +0.000 Cl
ENDBRANCH   2  25
TORSDOF 3
ENDMDL
MODEL 8
REMARK VINA RESULT:      -7.3      3.242      7.371
REMARK  Name = 
REMARK  3 active torsions:
REMARK  status: ('A' for Active; 'I' for Inactive)
REMARK    1  A    between atoms: C_2  and  C_3
REMARK    2  A    between atoms: C_7  and  C_8
REMARK    3  A    between atoms: C_20  and  C_21
REMARK                            x       y       z     vdW  Elec       q    Type
REMARK                         _______ _______ _______ _____ _____    ______ ____
ROOT
ATOM      1  O   UNL     1       5.694   4.958  16.280  0.00  0.00    +0.000 OA
ATOM      2  C   UNL     1       5.459   5.972  16.940  0.00  0.00    +0.000 C 
ATOM      3  N   UNL     1       4.236   6.169  17.573  0.00  0.00    +0.000 N 
ATOM      4  N   UNL     1       3.877   7.347  18.188  0.00  0.00    +0.000 NA
ATOM      5  C   UNL     1       2.629   7.228  18.542  0.00  0.00    +0.000 C 
ATOM      6  C   UNL     1       1.991   5.905  18.177  0.00  0.00    +0.000 C 
ATOM      7  C   UNL     1       3.150   5.198  17.492  0.00  0.00    +0.000 C 
ENDROOT
BRANCH   5   8
ATOM      8  C   UNL     1       1.820   8.289  19.211  0.00  0.00    +0.000 A 
ATOM      9  C   UNL     1       1.472   9.367  18.482  0.00  0.00    +0.000 A 
ATOM     10  C   UNL     1       0.611  10.396  19.054  0.00  0.00    +0.000 A 
ATOM     11  C   UNL     1       0.222  11.537  18.348  0.00  0.00    +0.000 A 
ATOM     12  C   UNL     1      -0.628  12.477  18.946  0.00  0.00    +0.000 A 
ATOM     13  C   UNL     1      -1.096  12.284  20.248  0.00  0.00    +0.000 A 
ATOM     14  C   UNL     1      -0.713  11.152  20.957  0.00  0.00    +0.000 A 
ATOM     15  C   UNL     1       0.134  10.228  20.350  0.00  0.00    +0.000 A 
ATOM     16  O   UNL     1       0.493   9.106  21.109  0.00  0.00    +0.000 OA
ATOM     17  C   UNL     1       1.341   8.133  20.605  0.00  0.00    +0.000 A 
ATOM     18  O   UNL     1       1.673   7.184  21.309  0.00  0.00    +0.000 OA
ENDBRANCH   5   8
BRANCH   7  19
ATOM     19  C   UNL     1       3.483   3.876  18.162  0.00  0.00    +0.000 A 
ATOM     20  C   UNL     1       3.190   2.669  17.506  0.00  0.00    +0.000 A 
ATOM     21  C   UNL     1       3.486   1.446  18.108  0.00  0.00    +0.000 A 
ATOM     22  C   UNL     1       4.077   1.413  19.369  0.00  0.00    +0.000 A 
ATOM     23  C   UNL     1       4.377   2.602  20.030  0.00  0.00    +0.000 A 
ATOM     24  C   UNL     1       4.085   3.827  19.429  0.00  0.00    +0.000 A 
ENDBRANCH   7  19
BRANCH   2  25
ATOM     25  C   UNL     1       6.486   7.066  17.166  0.00  0.00    +0.000 C 
ATOM     26 CL   UNL     1       7.680   6.574  18.392  0.00  0.00    +0.000 Cl
ENDBRANCH   2  25
TORSDOF 3
ENDMDL
MODEL 9
REMARK VINA RESULT:      -7.2      6.504     11.529
REMARK  Name = 
REMARK  3 active torsions:
REMARK  status: ('A' for Active; 'I' for Inactive)
REMARK    1  A    between atoms: C_2  and  C_3
REMARK    2  A    between atoms: C_7  and  C_8
REMARK    3  A    between atoms: C_20  and  C_21
REMARK                            x       y       z     vdW  Elec       q    Type
REMARK                         _______ _______ _______ _____ _____    ______ ____
ROOT
ATOM      1  O   UNL     1       2.634  12.121  17.995  0.00  0.00    +0.000 OA
ATOM      2  C   UNL     1       2.082  12.580  18.997  0.00  0.00    +0.000 C 
ATOM      3  N   UNL     1       0.894  12.048  19.489  0.00  0.00    +0.000 N 
ATOM      4  N   UNL     1       0.165  12.621  20.506  0.00  0.00    +0.000 NA
ATOM      5  C   UNL     1      -0.945  11.947  20.607  0.00  0.00    +0.000 C 
ATOM      6  C   UNL     1      -1.086  10.809  19.620  0.00  0.00    +0.000 C 
ATOM      7  C   UNL     1       0.220  10.922  18.850  0.00  0.00    +0.000 C 
ENDROOT
BRANCH   5   8
ATOM      8  C   UNL     1      -2.050  12.250  21.563  0.00  0.00    +0.000 A 
ATOM      9  C   UNL     1      -3.095  12.969  21.109  0.00  0.00    +0.000 A 
ATOM     10  C   UNL     1      -4.243  13.224  21.970  0.00  0.00    +0.000 A 
ATOM     11  C   UNL     1      -5.352  13.967  21.556  0.00  0.00    +0.000 A 
ATOM     12  C   UNL     1      -6.436  14.156  22.423  0.00  0.00    +0.000 A 
ATOM     13  C   UNL     1      -6.423  13.604  23.706  0.00  0.00    +0.000 A 
ATOM     14  C   UNL     1      -5.324  12.864  24.127  0.00  0.00    +0.000 A 
ATOM     15  C   UNL     1      -4.253  12.688  23.254  0.00  0.00    +0.000 A 
ATOM     16  O   UNL     1      -3.168  11.938  23.728  0.00  0.00    +0.000 OA
ATOM     17  C   UNL     1      -2.047  11.713  22.945  0.00  0.00    +0.000 A 
ATOM     18  O   UNL     1      -1.094  11.089  23.403  0.00  0.00    +0.000 OA
ENDBRANCH   5   8
BRANCH   7  19
ATOM     19  C   UNL     1       1.025   9.636  18.909  0.00  0.00    +0.000 A 
ATOM     20  C   UNL     1       1.160   8.953  20.128  0.00  0.00    +0.000 A 
ATOM     21  C   UNL     1       1.899   7.771  20.201  0.00  0.00    +0.000 A 
ATOM     22  C   UNL     1       2.512   7.260  19.060  0.00  0.00    +0.000 A 
ATOM     23  C   UNL     1       2.385   7.925  17.842  0.00  0.00    +0.000 A 
ATOM     24  C   UNL     1       1.644   9.105  17.766  0.00  0.00    +0.000 A 
ENDBRANCH   7  19
BRANCH   2  25
ATOM     25  C   UNL     1       2.662  13.721  19.810  0.00  0.00    +0.000 C 
ATOM     26 CL   UNL     1       2.153  15.295  19.152  0.00  0.00    +0.000 Cl
ENDBRANCH   2  25
TORSDOF 3
ENDMDL
