MODEL 1
REMARK VINA RESULT:      -7.0      0.000      0.000
REMARK  Name = 
REMARK  11 active torsions:
REMARK  status: ('A' for Active; 'I' for Inactive)
REMARK    1  A    between atoms: C_1  and  O_2
REMARK    2  A    between atoms: O_2  and  C_3
REMARK    3  A    between atoms: C_7  and  C_8
REMARK    4  A    between atoms: C_9  and  C_10
REMARK    5  A    between atoms: C_17  and  C_18
REMARK    6  A    between atoms: C_20  and  O_21
REMARK    7  A    between atoms: O_21  and  C_22
REMARK    8  A    between atoms: C_23  and  O_24
REMARK    9  A    between atoms: O_24  and  C_25
REMARK   10  A    between atoms: C_26  and  O_27
REMARK   11  A    between atoms: O_27  and  C_28
REMARK                            x       y       z     vdW  Elec       q    Type
REMARK                         _______ _______ _______ _____ _____    ______ ____
ROOT
ATOM      1  C   UNL     1       0.563   9.016  20.871  0.00  0.00    +0.000 C 
ATOM      2  O   UNL     1       0.062   8.448  21.836  0.00  0.00    +0.000 OA
ATOM      3  N   UNL     1       0.227  10.311  20.467  0.00  0.00    +0.000 N 
ATOM      4  C   UNL     1      -0.629  11.093  21.355  0.00  0.00    +0.000 C 
ATOM      5  C   UNL     1      -0.085  12.498  21.570  0.00  0.00    +0.000 C 
ATOM      6  C   UNL     1       0.090  13.177  20.224  0.00  0.00    +0.000 C 
ATOM      7  C   UNL     1       0.963  12.329  19.352  0.00  0.00    +0.000 C 
ATOM      8  C   UNL     1       2.117  12.686  18.763  0.00  0.00    +0.000 C 
ATOM      9  C   UNL     1       0.632  10.875  19.258  0.00  0.00    +0.000 C 
ATOM     10  O   UNL     1       0.782  10.267  18.200  0.00  0.00    +0.000 OA
ENDROOT
BRANCH   8  11
ATOM     11  C   UNL     1       2.782  13.969  18.983  0.00  0.00    +0.000 A 
ATOM     12  C   UNL     1       3.506  14.152  20.158  0.00  0.00    +0.000 A 
ATOM     13  C   UNL     1       4.170  15.350  20.410  0.00  0.00    +0.000 A 
ATOM     14  C   UNL     1       4.110  16.406  19.466  0.00  0.00    +0.000 A 
ATOM     15  C   UNL     1       3.337  16.235  18.297  0.00  0.00    +0.000 A 
ATOM     16  C   UNL     1       2.684  15.009  18.070  0.00  0.00    +0.000 A 
BRANCH  13  17
ATOM     17  O   UNL     1       4.878  15.548  21.583  0.00  0.00    +0.000 OA
ATOM     18  C   UNL     1       4.778  14.487  22.536  0.00  0.00    +0.000 C 
ENDBRANCH  13  17
BRANCH  14  19
ATOM     19  O   UNL     1       4.785  17.561  19.810  0.00  0.00    +0.000 OA
ATOM     20  C   UNL     1       6.180  17.629  19.517  0.00  0.00    +0.000 C 
ENDBRANCH  14  19
BRANCH  15  21
ATOM     21  O   UNL     1       3.207  17.289  17.428  0.00  0.00    +0.000 OA
ATOM     22  C   UNL     1       1.894  17.702  17.063  0.00  0.00    +0.000 C 
ENDBRANCH  15  21
ENDBRANCH   8  11
BRANCH   1  24
ATOM     23  C   UNL     1       1.778   7.023  20.041  0.00  0.00    +0.000 C 
ATOM     24  C   UNL     1       1.656   8.356  20.099  0.00  0.00    +0.000 C 
BRANCH  23  29
ATOM     25  C   UNL     1       4.513   4.575  19.051  0.00  0.00    +0.000 A 
ATOM     26  C   UNL     1       4.947   5.154  17.859  0.00  0.00    +0.000 A 
ATOM     27  C   UNL     1       4.355   6.325  17.386  0.00  0.00    +0.000 A 
ATOM     28  C   UNL     1       3.320   6.925  18.107  0.00  0.00    +0.000 A 
ATOM     29  C   UNL     1       2.858   6.353  19.296  0.00  0.00    +0.000 A 
ATOM     30  C   UNL     1       3.474   5.182  19.765  0.00  0.00    +0.000 A 
BRANCH  25  32
ATOM     31  C   UNL     1       4.379   2.406  20.002  0.00  0.00    +0.000 C 
ATOM     32  O   UNL     1       5.175   3.437  19.425  0.00  0.00    +0.000 OA
ENDBRANCH  25  32
ENDBRANCH  23  29
ENDBRANCH   1  24
TORSDOF 7
ENDMDL
MODEL 2
REMARK VINA RESULT:      -7.0      1.840      2.367
REMARK  Name = 
REMARK  11 active torsions:
REMARK  status: ('A' for Active; 'I' for Inactive)
REMARK    1  A    between atoms: C_1  and  O_2
REMARK    2  A    between atoms: O_2  and  C_3
REMARK    3  A    between atoms: C_7  and  C_8
REMARK    4  A    between atoms: C_9  and  C_10
REMARK    5  A    between atoms: C_17  and  C_18
REMARK    6  A    between atoms: C_20  and  O_21
REMARK    7  A    between atoms: O_21  and  C_22
REMARK    8  A    between atoms: C_23  and  O_24
REMARK    9  A    between atoms: O_24  and  C_25
REMARK   10  A    between atoms: C_26  and  O_27
REMARK   11  A    between atoms: O_27  and  C_28
REMARK                            x       y       z     vdW  Elec       q    Type
REMARK                         _______ _______ _______ _____ _____    ______ ____
ROOT
ATOM      1  C   UNL     1       1.247   8.146  20.439  0.00  0.00    +0.000 C 
ATOM      2  O   UNL     1       1.019   7.461  21.431  0.00  0.00    +0.000 OA
ATOM      3  N   UNL     1       0.629   9.372  20.179  0.00  0.00    +0.000 N 
ATOM      4  C   UNL     1      -0.191   9.951  21.240  0.00  0.00    +0.000 C 
ATOM      5  C   UNL     1       0.127  11.423  21.460  0.00  0.00    +0.000 C 
ATOM      6  C   UNL     1      -0.043  12.173  20.151  0.00  0.00    +0.000 C 
ATOM      7  C   UNL     1       0.808  11.531  19.100  0.00  0.00    +0.000 C 
ATOM      8  C   UNL     1       1.769  12.114  18.364  0.00  0.00    +0.000 C 
ATOM      9  C   UNL     1       0.725  10.045  18.962  0.00  0.00    +0.000 C 
ATOM     10  O   UNL     1       0.801   9.514  17.856  0.00  0.00    +0.000 OA
ENDROOT
BRANCH   8  11
ATOM     11  C   UNL     1       2.228  13.487  18.562  0.00  0.00    +0.000 A 
ATOM     12  C   UNL     1       3.597  13.729  18.640  0.00  0.00    +0.000 A 
ATOM     13  C   UNL     1       4.087  15.021  18.814  0.00  0.00    +0.000 A 
ATOM     14  C   UNL     1       3.188  16.112  18.920  0.00  0.00    +0.000 A 
ATOM     15  C   UNL     1       1.799  15.859  18.888  0.00  0.00    +0.000 A 
ATOM     16  C   UNL     1       1.337  14.543  18.703  0.00  0.00    +0.000 A 
BRANCH  13  17
ATOM     17  O   UNL     1       5.445  15.269  18.910  0.00  0.00    +0.000 OA
ATOM     18  C   UNL     1       6.237  14.718  17.854  0.00  0.00    +0.000 C 
ENDBRANCH  13  17
BRANCH  14  19
ATOM     19  O   UNL     1       3.765  17.353  19.108  0.00  0.00    +0.000 OA
ATOM     20  C   UNL     1       3.934  17.813  20.448  0.00  0.00    +0.000 C 
ENDBRANCH  14  19
BRANCH  15  21
ATOM     21  O   UNL     1       0.931  16.904  19.080  0.00  0.00    +0.000 OA
ATOM     22  C   UNL     1      -0.280  16.918  18.331  0.00  0.00    +0.000 C 
ENDBRANCH  15  21
ENDBRANCH   8  11
BRANCH   1  24
ATOM     23  C   UNL     1       2.462   6.445  19.109  0.00  0.00    +0.000 C 
ATOM     24  C   UNL     1       2.296   7.726  19.465  0.00  0.00    +0.000 C 
BRANCH  23  29
ATOM     25  C   UNL     1       5.530   6.412  16.866  0.00  0.00    +0.000 A 
ATOM     26  C   UNL     1       5.416   5.140  16.305  0.00  0.00    +0.000 A 
ATOM     27  C   UNL     1       4.354   4.307  16.655  0.00  0.00    +0.000 A 
ATOM     28  C   UNL     1       3.396   4.744  17.573  0.00  0.00    +0.000 A 
ATOM     29  C   UNL     1       3.500   6.009  18.160  0.00  0.00    +0.000 A 
ATOM     30  C   UNL     1       4.568   6.840  17.786  0.00  0.00    +0.000 A 
BRANCH  25  32
ATOM     31  C   UNL     1       7.549   7.520  17.437  0.00  0.00    +0.000 C 
ATOM     32  O   UNL     1       6.603   7.147  16.439  0.00  0.00    +0.000 OA
ENDBRANCH  25  32
ENDBRANCH  23  29
ENDBRANCH   1  24
TORSDOF 7
ENDMDL
MODEL 3
REMARK VINA RESULT:      -6.9      1.886      2.789
REMARK  Name = 
REMARK  11 active torsions:
REMARK  status: ('A' for Active; 'I' for Inactive)
REMARK    1  A    between atoms: C_1  and  O_2
REMARK    2  A    between atoms: O_2  and  C_3
REMARK    3  A    between atoms: C_7  and  C_8
REMARK    4  A    between atoms: C_9  and  C_10
REMARK    5  A    between atoms: C_17  and  C_18
REMARK    6  A    between atoms: C_20  and  O_21
REMARK    7  A    between atoms: O_21  and  C_22
REMARK    8  A    between atoms: C_23  and  O_24
REMARK    9  A    between atoms: O_24  and  C_25
REMARK   10  A    between atoms: C_26  and  O_27
REMARK   11  A    between atoms: O_27  and  C_28
REMARK                            x       y       z     vdW  Elec       q    Type
REMARK                         _______ _______ _______ _____ _____    ______ ____
ROOT
ATOM      1  C   UNL     1       1.418   8.016  20.252  0.00  0.00    +0.000 C 
ATOM      2  O   UNL     1       1.182   7.314  21.230  0.00  0.00    +0.000 OA
ATOM      3  N   UNL     1       0.811   9.253  20.015  0.00  0.00    +0.000 N 
ATOM      4  C   UNL     1      -0.006   9.819  21.085  0.00  0.00    +0.000 C 
ATOM      5  C   UNL     1       0.326  11.283  21.334  0.00  0.00    +0.000 C 
ATOM      6  C   UNL     1       0.165  12.059  20.040  0.00  0.00    +0.000 C 
ATOM      7  C   UNL     1       1.011  11.430  18.977  0.00  0.00    +0.000 C 
ATOM      8  C   UNL     1       1.979  12.019  18.254  0.00  0.00    +0.000 C 
ATOM      9  C   UNL     1       0.915   9.948  18.811  0.00  0.00    +0.000 C 
ATOM     10  O   UNL     1       0.988   9.438  17.695  0.00  0.00    +0.000 OA
ENDROOT
BRANCH   8  11
ATOM     11  C   UNL     1       2.449  13.384  18.479  0.00  0.00    +0.000 A 
ATOM     12  C   UNL     1       1.508  14.395  18.650  0.00  0.00    +0.000 A 
ATOM     13  C   UNL     1       1.903  15.710  18.882  0.00  0.00    +0.000 A 
ATOM     14  C   UNL     1       3.282  16.035  18.942  0.00  0.00    +0.000 A 
ATOM     15  C   UNL     1       4.236  15.017  18.722  0.00  0.00    +0.000 A 
ATOM     16  C   UNL     1       3.801  13.697  18.497  0.00  0.00    +0.000 A 
BRANCH  13  17
ATOM     17  O   UNL     1       0.975  16.725  19.036  0.00  0.00    +0.000 OA
ATOM     18  C   UNL     1       0.184  16.646  20.225  0.00  0.00    +0.000 C 
ENDBRANCH  13  17
BRANCH  14  19
ATOM     19  O   UNL     1       3.578  17.367  19.159  0.00  0.00    +0.000 OA
ATOM     20  C   UNL     1       3.897  17.770  20.491  0.00  0.00    +0.000 C 
ENDBRANCH  14  19
BRANCH  15  21
ATOM     21  O   UNL     1       5.566  15.350  18.691  0.00  0.00    +0.000 OA
ATOM     22  C   UNL     1       6.420  14.626  17.812  0.00  0.00    +0.000 C 
ENDBRANCH  15  21
ENDBRANCH   8  11
BRANCH   1  24
ATOM     23  C   UNL     1       2.717   6.318  19.002  0.00  0.00    +0.000 C 
ATOM     24  C   UNL     1       2.464   7.606  19.271  0.00  0.00    +0.000 C 
BRANCH  23  29
ATOM     25  C   UNL     1       5.829   6.279  16.818  0.00  0.00    +0.000 A 
ATOM     26  C   UNL     1       5.670   5.049  16.179  0.00  0.00    +0.000 A 
ATOM     27  C   UNL     1       4.565   4.246  16.458  0.00  0.00    +0.000 A 
ATOM     28  C   UNL     1       3.608   4.670  17.383  0.00  0.00    +0.000 A 
ATOM     29  C   UNL     1       3.755   5.892  18.047  0.00  0.00    +0.000 A 
ATOM     30  C   UNL     1       4.867   6.695  17.744  0.00  0.00    +0.000 A 
BRANCH  25  32
ATOM     31  C   UNL     1       7.618   7.677  17.504  0.00  0.00    +0.000 C 
ATOM     32  O   UNL     1       6.942   6.988  16.457  0.00  0.00    +0.000 OA
ENDBRANCH  25  32
ENDBRANCH  23  29
ENDBRANCH   1  24
TORSDOF 7
ENDMDL
MODEL 4
REMARK VINA RESULT:      -6.9      1.333      1.804
REMARK  Name = 
REMARK  11 active torsions:
REMARK  status: ('A' for Active; 'I' for Inactive)
REMARK    1  A    between atoms: C_1  and  O_2
REMARK    2  A    between atoms: O_2  and  C_3
REMARK    3  A    between atoms: C_7  and  C_8
REMARK    4  A    between atoms: C_9  and  C_10
REMARK    5  A    between atoms: C_17  and  C_18
REMARK    6  A    between atoms: C_20  and  O_21
REMARK    7  A    between atoms: O_21  and  C_22
REMARK    8  A    between atoms: C_23  and  O_24
REMARK    9  A    between atoms: O_24  and  C_25
REMARK   10  A    between atoms: C_26  and  O_27
REMARK   11  A    between atoms: O_27  and  C_28
REMARK                            x       y       z     vdW  Elec       q    Type
REMARK                         _______ _______ _______ _____ _____    ______ ____
ROOT
ATOM      1  C   UNL     1       1.102   8.562  20.317  0.00  0.00    +0.000 C 
ATOM      2  O   UNL     1       0.702   7.880  21.255  0.00  0.00    +0.000 OA
ATOM      3  N   UNL     1       0.658   9.861  20.051  0.00  0.00    +0.000 N 
ATOM      4  C   UNL     1      -0.187  10.502  21.055  0.00  0.00    +0.000 C 
ATOM      5  C   UNL     1       0.278  11.918  21.362  0.00  0.00    +0.000 C 
ATOM      6  C   UNL     1       0.321  12.721  20.075  0.00  0.00    +0.000 C 
ATOM      7  C   UNL     1       1.188  12.013  19.081  0.00  0.00    +0.000 C 
ATOM      8  C   UNL     1       2.276  12.499  18.459  0.00  0.00    +0.000 C 
ATOM      9  C   UNL     1       0.947  10.553  18.876  0.00  0.00    +0.000 C 
ATOM     10  O   UNL     1       1.066  10.049  17.761  0.00  0.00    +0.000 OA
ENDROOT
BRANCH   8  11
ATOM     11  C   UNL     1       2.870  13.801  18.754  0.00  0.00    +0.000 A 
ATOM     12  C   UNL     1       3.497  13.986  19.983  0.00  0.00    +0.000 A 
ATOM     13  C   UNL     1       4.091  15.203  20.308  0.00  0.00    +0.000 A 
ATOM     14  C   UNL     1       4.058  16.277  19.383  0.00  0.00    +0.000 A 
ATOM     15  C   UNL     1       3.381  16.103  18.156  0.00  0.00    +0.000 A 
ATOM     16  C   UNL     1       2.798  14.858  17.856  0.00  0.00    +0.000 A 
BRANCH  13  17
ATOM     17  O   UNL     1       4.702  15.402  21.534  0.00  0.00    +0.000 OA
ATOM     18  C   UNL     1       5.828  14.560  21.793  0.00  0.00    +0.000 C 
ENDBRANCH  13  17
BRANCH  14  19
ATOM     19  O   UNL     1       4.658  17.450  19.799  0.00  0.00    +0.000 OA
ATOM     20  C   UNL     1       6.055  17.606  19.555  0.00  0.00    +0.000 C 
ENDBRANCH  14  19
BRANCH  15  21
ATOM     21  O   UNL     1       3.274  17.170  17.301  0.00  0.00    +0.000 OA
ATOM     22  C   UNL     1       1.970  17.625  16.954  0.00  0.00    +0.000 C 
ENDBRANCH  15  21
ENDBRANCH   8  11
BRANCH   1  24
ATOM     23  C   UNL     1       2.250   6.762  19.061  0.00  0.00    +0.000 C 
ATOM     24  C   UNL     1       2.184   8.049  19.426  0.00  0.00    +0.000 C 
BRANCH  23  29
ATOM     25  C   UNL     1       5.394   6.503  16.941  0.00  0.00    +0.000 A 
ATOM     26  C   UNL     1       5.289   5.185  16.497  0.00  0.00    +0.000 A 
ATOM     27  C   UNL     1       4.208   4.394  16.885  0.00  0.00    +0.000 A 
ATOM     28  C   UNL     1       3.223   4.919  17.724  0.00  0.00    +0.000 A 
ATOM     29  C   UNL     1       3.316   6.233  18.194  0.00  0.00    +0.000 A 
ATOM     30  C   UNL     1       4.404   7.020  17.782  0.00  0.00    +0.000 A 
BRANCH  25  32
ATOM     31  C   UNL     1       7.504   7.463  17.445  0.00  0.00    +0.000 C 
ATOM     32  O   UNL     1       6.488   7.189  16.485  0.00  0.00    +0.000 OA
ENDBRANCH  25  32
ENDBRANCH  23  29
ENDBRANCH   1  24
TORSDOF 7
ENDMDL
MODEL 5
REMARK VINA RESULT:      -6.9      1.679      2.319
REMARK  Name = 
REMARK  11 active torsions:
REMARK  status: ('A' for Active; 'I' for Inactive)
REMARK    1  A    between atoms: C_1  and  O_2
REMARK    2  A    between atoms: O_2  and  C_3
REMARK    3  A    between atoms: C_7  and  C_8
REMARK    4  A    between atoms: C_9  and  C_10
REMARK    5  A    between atoms: C_17  and  C_18
REMARK    6  A    between atoms: C_20  and  O_21
REMARK    7  A    between atoms: O_21  and  C_22
REMARK    8  A    between atoms: C_23  and  O_24
REMARK    9  A    between atoms: O_24  and  C_25
REMARK   10  A    between atoms: C_26  and  O_27
REMARK   11  A    between atoms: O_27  and  C_28
REMARK                            x       y       z     vdW  Elec       q    Type
REMARK                         _______ _______ _______ _____ _____    ______ ____
ROOT
ATOM      1  C   UNL     1       1.691   7.660  19.921  0.00  0.00    +0.000 C 
ATOM      2  O   UNL     1       1.440   6.840  20.799  0.00  0.00    +0.000 OA
ATOM      3  N   UNL     1       1.045   8.893  19.797  0.00  0.00    +0.000 N 
ATOM      4  C   UNL     1       0.156   9.300  20.883  0.00  0.00    +0.000 C 
ATOM      5  C   UNL     1       0.414  10.736  21.315  0.00  0.00    +0.000 C 
ATOM      6  C   UNL     1       0.280  11.652  20.112  0.00  0.00    +0.000 C 
ATOM      7  C   UNL     1       1.201  11.182  19.029  0.00  0.00    +0.000 C 
ATOM      8  C   UNL     1       2.175  11.886  18.428  0.00  0.00    +0.000 C 
ATOM      9  C   UNL     1       1.174   9.727  18.688  0.00  0.00    +0.000 C 
ATOM     10  O   UNL     1       1.321   9.354  17.526  0.00  0.00    +0.000 OA
ENDROOT
BRANCH   8  11
ATOM     11  C   UNL     1       2.577  13.232  18.832  0.00  0.00    +0.000 A 
ATOM     12  C   UNL     1       2.908  13.457  20.166  0.00  0.00    +0.000 A 
ATOM     13  C   UNL     1       3.311  14.717  20.600  0.00  0.00    +0.000 A 
ATOM     14  C   UNL     1       3.385  15.794  19.681  0.00  0.00    +0.000 A 
ATOM     15  C   UNL     1       3.004  15.575  18.338  0.00  0.00    +0.000 A 
ATOM     16  C   UNL     1       2.609  14.287  17.931  0.00  0.00    +0.000 A 
BRANCH  13  17
ATOM     17  O   UNL     1       3.625  14.955  21.927  0.00  0.00    +0.000 OA
ATOM     18  C   UNL     1       4.858  14.383  22.369  0.00  0.00    +0.000 C 
ENDBRANCH  13  17
BRANCH  14  19
ATOM     19  O   UNL     1       3.778  17.009  20.206  0.00  0.00    +0.000 OA
ATOM     20  C   UNL     1       5.140  17.400  20.035  0.00  0.00    +0.000 C 
ENDBRANCH  14  19
BRANCH  15  21
ATOM     21  O   UNL     1       2.991  16.638  17.472  0.00  0.00    +0.000 OA
ATOM     22  C   UNL     1       1.857  17.500  17.483  0.00  0.00    +0.000 C 
ENDBRANCH  15  21
ENDBRANCH   8  11
BRANCH   1  24
ATOM     23  C   UNL     1       3.275   6.173  18.731  0.00  0.00    +0.000 C 
ATOM     24  C   UNL     1       2.798   7.405  18.954  0.00  0.00    +0.000 C 
BRANCH  23  29
ATOM     25  C   UNL     1       6.574   6.409  16.859  0.00  0.00    +0.000 A 
ATOM     26  C   UNL     1       6.415   5.372  15.939  0.00  0.00    +0.000 A 
ATOM     27  C   UNL     1       5.248   4.608  15.932  0.00  0.00    +0.000 A 
ATOM     28  C   UNL     1       4.231   4.878  16.850  0.00  0.00    +0.000 A 
ATOM     29  C   UNL     1       4.376   5.903  17.791  0.00  0.00    +0.000 A 
ATOM     30  C   UNL     1       5.551   6.671  17.775  0.00  0.00    +0.000 A 
BRANCH  25  32
ATOM     31  C   UNL     1       7.880   8.245  17.601  0.00  0.00    +0.000 C 
ATOM     32  O   UNL     1       7.753   7.100  16.764  0.00  0.00    +0.000 OA
ENDBRANCH  25  32
ENDBRANCH  23  29
ENDBRANCH   1  24
TORSDOF 7
ENDMDL
MODEL 6
REMARK VINA RESULT:      -6.9      0.299      2.286
REMARK  Name = 
REMARK  11 active torsions:
REMARK  status: ('A' for Active; 'I' for Inactive)
REMARK    1  A    between atoms: C_1  and  O_2
REMARK    2  A    between atoms: O_2  and  C_3
REMARK    3  A    between atoms: C_7  and  C_8
REMARK    4  A    between atoms: C_9  and  C_10
REMARK    5  A    between atoms: C_17  and  C_18
REMARK    6  A    between atoms: C_20  and  O_21
REMARK    7  A    between atoms: O_21  and  C_22
REMARK    8  A    between atoms: C_23  and  O_24
REMARK    9  A    between atoms: O_24  and  C_25
REMARK   10  A    between atoms: C_26  and  O_27
REMARK   11  A    between atoms: O_27  and  C_28
REMARK                            x       y       z     vdW  Elec       q    Type
REMARK                         _______ _______ _______ _____ _____    ______ ____
ROOT
ATOM      1  C   UNL     1       0.581   8.933  20.996  0.00  0.00    +0.000 C 
ATOM      2  O   UNL     1       0.033   8.347  21.925  0.00  0.00    +0.000 OA
ATOM      3  N   UNL     1       0.248  10.226  20.584  0.00  0.00    +0.000 N 
ATOM      4  C   UNL     1      -0.673  10.985  21.427  0.00  0.00    +0.000 C 
ATOM      5  C   UNL     1      -0.167  12.397  21.686  0.00  0.00    +0.000 C 
ATOM      6  C   UNL     1       0.076  13.092  20.360  0.00  0.00    +0.000 C 
ATOM      7  C   UNL     1       1.014  12.267  19.534  0.00  0.00    +0.000 C 
ATOM      8  C   UNL     1       2.194  12.649  19.018  0.00  0.00    +0.000 C 
ATOM      9  C   UNL     1       0.714  10.809  19.407  0.00  0.00    +0.000 C 
ATOM     10  O   UNL     1       0.937  10.214  18.355  0.00  0.00    +0.000 OA
ENDROOT
BRANCH   8  11
ATOM     11  C   UNL     1       2.823  13.941  19.289  0.00  0.00    +0.000 A 
ATOM     12  C   UNL     1       2.792  14.919  18.299  0.00  0.00    +0.000 A 
ATOM     13  C   UNL     1       3.363  16.171  18.511  0.00  0.00    +0.000 A 
ATOM     14  C   UNL     1       3.992  16.462  19.748  0.00  0.00    +0.000 A 
ATOM     15  C   UNL     1       4.064  15.453  20.734  0.00  0.00    +0.000 A 
ATOM     16  C   UNL     1       3.470  14.201  20.489  0.00  0.00    +0.000 A 
BRANCH  13  17
ATOM     17  O   UNL     1       3.353  17.144  17.527  0.00  0.00    +0.000 OA
ATOM     18  C   UNL     1       2.054  17.609  17.150  0.00  0.00    +0.000 C 
ENDBRANCH  13  17
BRANCH  14  19
ATOM     19  O   UNL     1       4.546  17.723  19.861  0.00  0.00    +0.000 OA
ATOM     20  C   UNL     1       5.968  17.831  19.837  0.00  0.00    +0.000 C 
ENDBRANCH  14  19
BRANCH  15  21
ATOM     21  O   UNL     1       4.751  15.708  21.893  0.00  0.00    +0.000 OA
ATOM     22  C   UNL     1       5.844  14.858  22.228  0.00  0.00    +0.000 C 
ENDBRANCH  15  21
ENDBRANCH   8  11
BRANCH   1  24
ATOM     23  C   UNL     1       1.711   7.012  19.914  0.00  0.00    +0.000 C 
ATOM     24  C   UNL     1       1.730   8.299  20.285  0.00  0.00    +0.000 C 
BRANCH  23  29
ATOM     25  C   UNL     1       4.531   4.613  19.054  0.00  0.00    +0.000 A 
ATOM     26  C   UNL     1       5.021   5.210  17.892  0.00  0.00    +0.000 A 
ATOM     27  C   UNL     1       4.438   6.376  17.398  0.00  0.00    +0.000 A 
ATOM     28  C   UNL     1       3.356   6.954  18.065  0.00  0.00    +0.000 A 
ATOM     29  C   UNL     1       2.839   6.365  19.223  0.00  0.00    +0.000 A 
ATOM     30  C   UNL     1       3.447   5.198  19.715  0.00  0.00    +0.000 A 
BRANCH  25  32
ATOM     31  C   UNL     1       4.381   2.442  19.998  0.00  0.00    +0.000 C 
ATOM     32  O   UNL     1       5.189   3.481  19.454  0.00  0.00    +0.000 OA
ENDBRANCH  25  32
ENDBRANCH  23  29
ENDBRANCH   1  24
TORSDOF 7
ENDMDL
MODEL 7
REMARK VINA RESULT:      -6.8      1.702      3.073
REMARK  Name = 
REMARK  11 active torsions:
REMARK  status: ('A' for Active; 'I' for Inactive)
REMARK    1  A    between atoms: C_1  and  O_2
REMARK    2  A    between atoms: O_2  and  C_3
REMARK    3  A    between atoms: C_7  and  C_8
REMARK    4  A    between atoms: C_9  and  C_10
REMARK    5  A    between atoms: C_17  and  C_18
REMARK    6  A    between atoms: C_20  and  O_21
REMARK    7  A    between atoms: O_21  and  C_22
REMARK    8  A    between atoms: C_23  and  O_24
REMARK    9  A    between atoms: O_24  and  C_25
REMARK   10  A    between atoms: C_26  and  O_27
REMARK   11  A    between atoms: O_27  and  C_28
REMARK                            x       y       z     vdW  Elec       q    Type
REMARK                         _______ _______ _______ _____ _____    ______ ____
ROOT
ATOM      1  C   UNL     1       1.321   8.025  20.350  0.00  0.00    +0.000 C 
ATOM      2  O   UNL     1       1.055   7.273  21.282  0.00  0.00    +0.000 OA
ATOM      3  N   UNL     1       0.700   9.260  20.142  0.00  0.00    +0.000 N 
ATOM      4  C   UNL     1      -0.177   9.759  21.199  0.00  0.00    +0.000 C 
ATOM      5  C   UNL     1       0.112  11.216  21.530  0.00  0.00    +0.000 C 
ATOM      6  C   UNL     1      -0.006  12.050  20.268  0.00  0.00    +0.000 C 
ATOM      7  C   UNL     1       0.901  11.488  19.218  0.00  0.00    +0.000 C 
ATOM      8  C   UNL     1       1.888  12.128  18.569  0.00  0.00    +0.000 C 
ATOM      9  C   UNL     1       0.844  10.014  18.978  0.00  0.00    +0.000 C 
ATOM     10  O   UNL     1       0.979   9.559  17.845  0.00  0.00    +0.000 OA
ENDROOT
BRANCH   8  11
ATOM     11  C   UNL     1       2.319  13.490  18.879  0.00  0.00    +0.000 A 
ATOM     12  C   UNL     1       1.636  14.555  18.299  0.00  0.00    +0.000 A 
ATOM     13  C   UNL     1       1.997  15.872  18.572  0.00  0.00    +0.000 A 
ATOM     14  C   UNL     1       3.078  16.142  19.450  0.00  0.00    +0.000 A 
ATOM     15  C   UNL     1       3.799  15.060  20.001  0.00  0.00    +0.000 A 
ATOM     16  C   UNL     1       3.403  13.742  19.709  0.00  0.00    +0.000 A 
BRANCH  13  17
ATOM     17  O   UNL     1       1.335  16.937  17.987  0.00  0.00    +0.000 OA
ATOM     18  C   UNL     1      -0.070  16.989  18.242  0.00  0.00    +0.000 C 
ENDBRANCH  13  17
BRANCH  14  19
ATOM     19  O   UNL     1       3.374  17.477  19.648  0.00  0.00    +0.000 OA
ATOM     20  C   UNL     1       2.866  18.104  20.825  0.00  0.00    +0.000 C 
ENDBRANCH  14  19
BRANCH  15  21
ATOM     21  O   UNL     1       4.899  15.325  20.777  0.00  0.00    +0.000 OA
ATOM     22  C   UNL     1       5.172  14.457  21.873  0.00  0.00    +0.000 C 
ENDBRANCH  15  21
ENDBRANCH   8  11
BRANCH   1  24
ATOM     23  C   UNL     1       2.620   6.428  18.973  0.00  0.00    +0.000 C 
ATOM     24  C   UNL     1       2.420   7.682  19.401  0.00  0.00    +0.000 C 
BRANCH  23  29
ATOM     25  C   UNL     1       5.801   6.568  16.895  0.00  0.00    +0.000 A 
ATOM     26  C   UNL     1       5.720   5.344  16.232  0.00  0.00    +0.000 A 
ATOM     27  C   UNL     1       4.644   4.487  16.460  0.00  0.00    +0.000 A 
ATOM     28  C   UNL     1       3.639   4.851  17.359  0.00  0.00    +0.000 A 
ATOM     29  C   UNL     1       3.708   6.067  18.047  0.00  0.00    +0.000 A 
ATOM     30  C   UNL     1       4.791   6.924  17.795  0.00  0.00    +0.000 A 
BRANCH  25  32
ATOM     31  C   UNL     1       7.656   7.820  17.682  0.00  0.00    +0.000 C 
ATOM     32  O   UNL     1       6.892   7.334  16.583  0.00  0.00    +0.000 OA
ENDBRANCH  25  32
ENDBRANCH  23  29
ENDBRANCH   1  24
TORSDOF 7
ENDMDL
MODEL 8
REMARK VINA RESULT:      -6.8      1.482      2.899
REMARK  Name = 
REMARK  11 active torsions:
REMARK  status: ('A' for Active; 'I' for Inactive)
REMARK    1  A    between atoms: C_1  and  O_2
REMARK    2  A    between atoms: O_2  and  C_3
REMARK    3  A    between atoms: C_7  and  C_8
REMARK    4  A    between atoms: C_9  and  C_10
REMARK    5  A    between atoms: C_17  and  C_18
REMARK    6  A    between atoms: C_20  and  O_21
REMARK    7  A    between atoms: O_21  and  C_22
REMARK    8  A    between atoms: C_23  and  O_24
REMARK    9  A    between atoms: O_24  and  C_25
REMARK   10  A    between atoms: C_26  and  O_27
REMARK   11  A    between atoms: O_27  and  C_28
REMARK                            x       y       z     vdW  Elec       q    Type
REMARK                         _______ _______ _______ _____ _____    ______ ____
ROOT
ATOM      1  C   UNL     1       1.217   8.103  20.331  0.00  0.00    +0.000 C 
ATOM      2  O   UNL     1       0.856   7.374  21.249  0.00  0.00    +0.000 OA
ATOM      3  N   UNL     1       0.699   9.380  20.099  0.00  0.00    +0.000 N 
ATOM      4  C   UNL     1      -0.184   9.944  21.117  0.00  0.00    +0.000 C 
ATOM      5  C   UNL     1       0.197  11.376  21.464  0.00  0.00    +0.000 C 
ATOM      6  C   UNL     1       0.196  12.214  20.199  0.00  0.00    +0.000 C 
ATOM      7  C   UNL     1       1.105  11.585  19.189  0.00  0.00    +0.000 C 
ATOM      8  C   UNL     1       2.163  12.150  18.584  0.00  0.00    +0.000 C 
ATOM      9  C   UNL     1       0.948  10.119  18.944  0.00  0.00    +0.000 C 
ATOM     10  O   UNL     1       1.099   9.654  17.816  0.00  0.00    +0.000 OA
ENDROOT
BRANCH   8  11
ATOM     11  C   UNL     1       2.680  13.476  18.916  0.00  0.00    +0.000 A 
ATOM     12  C   UNL     1       2.803  14.419  17.898  0.00  0.00    +0.000 A 
ATOM     13  C   UNL     1       3.276  15.701  18.164  0.00  0.00    +0.000 A 
ATOM     14  C   UNL     1       3.646  16.061  19.484  0.00  0.00    +0.000 A 
ATOM     15  C   UNL     1       3.566  15.090  20.506  0.00  0.00    +0.000 A 
ATOM     16  C   UNL     1       3.076  13.805  20.205  0.00  0.00    +0.000 A 
BRANCH  13  17
ATOM     17  O   UNL     1       3.418  16.639  17.156  0.00  0.00    +0.000 OA
ATOM     18  C   UNL     1       2.262  17.445  16.913  0.00  0.00    +0.000 C 
ENDBRANCH  13  17
BRANCH  14  19
ATOM     19  O   UNL     1       4.120  17.348  19.647  0.00  0.00    +0.000 OA
ATOM     20  C   UNL     1       5.534  17.539  19.675  0.00  0.00    +0.000 C 
ENDBRANCH  14  19
BRANCH  15  21
ATOM     21  O   UNL     1       4.008  15.413  21.764  0.00  0.00    +0.000 OA
ATOM     22  C   UNL     1       3.096  16.047  22.655  0.00  0.00    +0.000 C 
ENDBRANCH  15  21
ENDBRANCH   8  11
BRANCH   1  24
ATOM     23  C   UNL     1       2.387   6.444  18.912  0.00  0.00    +0.000 C 
ATOM     24  C   UNL     1       2.328   7.678  19.431  0.00  0.00    +0.000 C 
BRANCH  23  29
ATOM     25  C   UNL     1       5.575   6.404  16.842  0.00  0.00    +0.000 A 
ATOM     26  C   UNL     1       5.510   5.117  16.307  0.00  0.00    +0.000 A 
ATOM     27  C   UNL     1       4.442   4.276  16.620  0.00  0.00    +0.000 A 
ATOM     28  C   UNL     1       3.429   4.720  17.473  0.00  0.00    +0.000 A 
ATOM     29  C   UNL     1       3.482   6.001  18.032  0.00  0.00    +0.000 A 
ATOM     30  C   UNL     1       4.557   6.839  17.696  0.00  0.00    +0.000 A 
BRANCH  25  32
ATOM     31  C   UNL     1       7.458   7.686  17.503  0.00  0.00    +0.000 C 
ATOM     32  O   UNL     1       6.659   7.145  16.455  0.00  0.00    +0.000 OA
ENDBRANCH  25  32
ENDBRANCH  23  29
ENDBRANCH   1  24
TORSDOF 7
ENDMDL
MODEL 9
REMARK VINA RESULT:      -6.7      1.994      2.807
REMARK  Name = 
REMARK  11 active torsions:
REMARK  status: ('A' for Active; 'I' for Inactive)
REMARK    1  A    between atoms: C_1  and  O_2
REMARK    2  A    between atoms: O_2  and  C_3
REMARK    3  A    between atoms: C_7  and  C_8
REMARK    4  A    between atoms: C_9  and  C_10
REMARK    5  A    between atoms: C_17  and  C_18
REMARK    6  A    between atoms: C_20  and  O_21
REMARK    7  A    between atoms: O_21  and  C_22
REMARK    8  A    between atoms: C_23  and  O_24
REMARK    9  A    between atoms: O_24  and  C_25
REMARK   10  A    between atoms: C_26  and  O_27
REMARK   11  A    between atoms: O_27  and  C_28
REMARK                            x       y       z     vdW  Elec       q    Type
REMARK                         _______ _______ _______ _____ _____    ______ ____
ROOT
ATOM      1  C   UNL     1       0.182   9.664  22.449  0.00  0.00    +0.000 C 
ATOM      2  O   UNL     1       0.261   9.302  23.618  0.00  0.00    +0.000 OA
ATOM      3  N   UNL     1      -0.560  10.769  22.023  0.00  0.00    +0.000 N 
ATOM      4  C   UNL     1      -1.115  11.645  23.052  0.00  0.00    +0.000 C 
ATOM      5  C   UNL     1      -0.846  13.112  22.750  0.00  0.00    +0.000 C 
ATOM      6  C   UNL     1      -1.394  13.449  21.376  0.00  0.00    +0.000 C 
ATOM      7  C   UNL     1      -0.803  12.516  20.365  0.00  0.00    +0.000 C 
ATOM      8  C   UNL     1      -0.103  12.845  19.266  0.00  0.00    +0.000 C 
ATOM      9  C   UNL     1      -0.824  11.056  20.684  0.00  0.00    +0.000 C 
ATOM     10  O   UNL     1      -1.000  10.224  19.797  0.00  0.00    +0.000 OA
ENDROOT
BRANCH   8  11
ATOM     11  C   UNL     1       0.302  14.209  18.936  0.00  0.00    +0.000 A 
ATOM     12  C   UNL     1       1.622  14.441  18.556  0.00  0.00    +0.000 A 
ATOM     13  C   UNL     1       2.055  15.720  18.218  0.00  0.00    +0.000 A 
ATOM     14  C   UNL     1       1.150  16.810  18.261  0.00  0.00    +0.000 A 
ATOM     15  C   UNL     1      -0.176  16.582  18.692  0.00  0.00    +0.000 A 
ATOM     16  C   UNL     1      -0.583  15.276  19.020  0.00  0.00    +0.000 A 
BRANCH  13  17
ATOM     17  O   UNL     1       3.369  15.963  17.856  0.00  0.00    +0.000 OA
ATOM     18  C   UNL     1       4.286  14.910  18.165  0.00  0.00    +0.000 C 
ENDBRANCH  13  17
BRANCH  14  19
ATOM     19  O   UNL     1       1.674  18.043  17.925  0.00  0.00    +0.000 OA
ATOM     20  C   UNL     1       1.258  18.631  16.693  0.00  0.00    +0.000 C 
ENDBRANCH  14  19
BRANCH  15  21
ATOM     21  O   UNL     1      -1.025  17.652  18.819  0.00  0.00    +0.000 OA
ATOM     22  C   UNL     1      -2.280  17.442  19.457  0.00  0.00    +0.000 C 
ENDBRANCH  15  21
ENDBRANCH   8  11
BRANCH   1  24
ATOM     23  C   UNL     1       0.985   7.627  21.289  0.00  0.00    +0.000 C 
ATOM     24  C   UNL     1       0.970   8.963  21.393  0.00  0.00    +0.000 C 
BRANCH  23  29
ATOM     25  C   UNL     1       2.800   4.892  19.374  0.00  0.00    +0.000 A 
ATOM     26  C   UNL     1       3.308   5.630  18.304  0.00  0.00    +0.000 A 
ATOM     27  C   UNL     1       3.060   6.999  18.211  0.00  0.00    +0.000 A 
ATOM     28  C   UNL     1       2.298   7.640  19.191  0.00  0.00    +0.000 A 
ATOM     29  C   UNL     1       1.767   6.916  20.263  0.00  0.00    +0.000 A 
ATOM     30  C   UNL     1       2.037   5.541  20.349  0.00  0.00    +0.000 A 
BRANCH  25  32
ATOM     31  C   UNL     1       3.414   2.986  18.101  0.00  0.00    +0.000 C 
ATOM     32  O   UNL     1       3.119   3.560  19.370  0.00  0.00    +0.000 OA
ENDBRANCH  25  32
ENDBRANCH  23  29
ENDBRANCH   1  24
TORSDOF 7
ENDMDL
