MODEL 1
REMARK VINA RESULT:      -7.9      0.000      0.000
REMARK  Name = 
REMARK  5 active torsions:
REMARK  status: ('A' for Active; 'I' for Inactive)
REMARK    1  A    between atoms: C_1  and  C_2
REMARK    2  A    between atoms: C_6  and  N_7
REMARK    3  A    between atoms: C_16  and  C_17
REMARK    4  A    between atoms: C_17  and  C_18
REMARK    5  A    between atoms: N_20  and  C_21
REMARK                            x       y       z     vdW  Elec       q    Type
REMARK                         _______ _______ _______ _____ _____    ______ ____
ROOT
ATOM      1  N   UNL     1       4.313   4.043  17.866  0.00  0.00    +0.000 N 
ATOM      2  C   UNL     1       3.828   2.772  18.211  0.00  0.00    +0.000 C 
ATOM      3  O   UNL     1       4.072   1.678  17.733  0.00  0.00    +0.000 OA
ATOM      4  C   UNL     1       2.925   2.945  19.352  0.00  0.00    +0.000 A 
ATOM      5  C   UNL     1       2.193   2.031  20.083  0.00  0.00    +0.000 A 
ATOM      6  C   UNL     1       1.411   2.539  21.126  0.00  0.00    +0.000 A 
ATOM      7  C   UNL     1       1.421   3.911  21.382  0.00  0.00    +0.000 A 
ATOM      8  N   UNL     1       2.145   4.814  20.678  0.00  0.00    +0.000 NA
ATOM      9  C   UNL     1       2.860   4.289  19.663  0.00  0.00    +0.000 A 
ATOM     10  C   UNL     1       3.643   5.085  18.652  0.00  0.00    +0.000 C 
ENDROOT
BRANCH   1  16
ATOM     11  C   UNL     1       5.514   3.773  13.061  0.00  0.00    +0.000 C 
ATOM     12  C   UNL     1       5.875   4.163  14.464  0.00  0.00    +0.000 A 
ATOM     13  C   UNL     1       7.123   4.711  14.765  0.00  0.00    +0.000 A 
ATOM     14  C   UNL     1       7.412   5.107  16.068  0.00  0.00    +0.000 A 
ATOM     15  C   UNL     1       6.463   4.954  17.084  0.00  0.00    +0.000 A 
ATOM     16  C   UNL     1       5.229   4.351  16.822  0.00  0.00    +0.000 A 
ATOM     17  C   UNL     1       4.944   3.980  15.498  0.00  0.00    +0.000 A 
ENDBRANCH   1  16
BRANCH  10  18
ATOM     18  C   UNL     1       2.698   5.974  17.827  0.00  0.00    +0.000 C 
BRANCH  18  19
ATOM     19  C   UNL     1       2.587   7.385  18.382  0.00  0.00    +0.000 C 
ATOM     20  O   UNL     1       3.215   8.326  17.909  0.00  0.00    +0.000 OA
ATOM     21  N   UNL     1       1.748   7.505  19.467  0.00  0.00    +0.000 N 
ATOM     22  H   UNL     1       1.396   6.661  19.901  0.00  0.00    +0.000 HD
BRANCH  21  23
ATOM     23  C   UNL     1       1.631   8.736  20.222  0.00  0.00    +0.000 C 
ATOM     24  C   UNL     1       0.609   9.681  19.604  0.00  0.00    +0.000 C 
ATOM     25  C   UNL     1       0.303  10.660  20.727  0.00  0.00    +0.000 C 
ATOM     26  C   UNL     1       0.469   9.868  22.024  0.00  0.00    +0.000 C 
ATOM     27  C   UNL     1       1.078   8.524  21.631  0.00  0.00    +0.000 C 
ENDBRANCH  21  23
ENDBRANCH  18  19
ENDBRANCH  10  18
TORSDOF 4
ENDMDL
MODEL 2
REMARK VINA RESULT:      -7.9      1.773      6.824
REMARK  Name = 
REMARK  5 active torsions:
REMARK  status: ('A' for Active; 'I' for Inactive)
REMARK    1  A    between atoms: C_1  and  C_2
REMARK    2  A    between atoms: C_6  and  N_7
REMARK    3  A    between atoms: C_16  and  C_17
REMARK    4  A    between atoms: C_17  and  C_18
REMARK    5  A    between atoms: N_20  and  C_21
REMARK                            x       y       z     vdW  Elec       q    Type
REMARK                         _______ _______ _______ _____ _____    ______ ____
ROOT
ATOM      1  N   UNL     1       2.436   6.092  18.920  0.00  0.00    +0.000 N 
ATOM      2  C   UNL     1       2.177   5.133  19.912  0.00  0.00    +0.000 C 
ATOM      3  O   UNL     1       1.652   5.251  21.005  0.00  0.00    +0.000 OA
ATOM      4  C   UNL     1       2.637   3.840  19.398  0.00  0.00    +0.000 A 
ATOM      5  C   UNL     1       2.614   2.577  19.955  0.00  0.00    +0.000 A 
ATOM      6  C   UNL     1       3.150   1.539  19.185  0.00  0.00    +0.000 A 
ATOM      7  C   UNL     1       3.656   1.820  17.915  0.00  0.00    +0.000 A 
ATOM      8  N   UNL     1       3.671   3.054  17.355  0.00  0.00    +0.000 NA
ATOM      9  C   UNL     1       3.175   4.031  18.141  0.00  0.00    +0.000 A 
ATOM     10  C   UNL     1       3.194   5.500  17.812  0.00  0.00    +0.000 C 
ENDROOT
BRANCH   1  16
ATOM     11  C   UNL     1       0.705   9.949  21.513  0.00  0.00    +0.000 C 
ATOM     12  C   UNL     1       1.222   9.387  20.221  0.00  0.00    +0.000 A 
ATOM     13  C   UNL     1       1.308  10.174  19.072  0.00  0.00    +0.000 A 
ATOM     14  C   UNL     1       1.837   9.638  17.901  0.00  0.00    +0.000 A 
ATOM     15  C   UNL     1       2.276   8.310  17.863  0.00  0.00    +0.000 A 
ATOM     16  C   UNL     1       2.143   7.482  18.982  0.00  0.00    +0.000 A 
ATOM     17  C   UNL     1       1.631   8.046  20.162  0.00  0.00    +0.000 A 
ENDBRANCH   1  16
BRANCH  10  18
ATOM     18  C   UNL     1       4.643   6.004  17.713  0.00  0.00    +0.000 C 
BRANCH  18  19
ATOM     19  C   UNL     1       5.110   6.172  16.276  0.00  0.00    +0.000 C 
ATOM     20  O   UNL     1       5.154   7.268  15.726  0.00  0.00    +0.000 OA
ATOM     21  N   UNL     1       5.448   4.996  15.647  0.00  0.00    +0.000 N 
ATOM     22  H   UNL     1       5.230   4.121  16.107  0.00  0.00    +0.000 HD
BRANCH  21  23
ATOM     23  C   UNL     1       5.770   4.938  14.235  0.00  0.00    +0.000 C 
ATOM     24  C   UNL     1       7.272   5.008  13.996  0.00  0.00    +0.000 C 
ATOM     25  C   UNL     1       7.432   4.495  12.574  0.00  0.00    +0.000 C 
ATOM     26  C   UNL     1       6.302   3.486  12.368  0.00  0.00    +0.000 C 
ATOM     27  C   UNL     1       5.392   3.606  13.589  0.00  0.00    +0.000 C 
ENDBRANCH  21  23
ENDBRANCH  18  19
ENDBRANCH  10  18
TORSDOF 4
ENDMDL
MODEL 3
REMARK VINA RESULT:      -7.5      1.043      1.337
REMARK  Name = 
REMARK  5 active torsions:
REMARK  status: ('A' for Active; 'I' for Inactive)
REMARK    1  A    between atoms: C_1  and  C_2
REMARK    2  A    between atoms: C_6  and  N_7
REMARK    3  A    between atoms: C_16  and  C_17
REMARK    4  A    between atoms: C_17  and  C_18
REMARK    5  A    between atoms: N_20  and  C_21
REMARK                            x       y       z     vdW  Elec       q    Type
REMARK                         _______ _______ _______ _____ _____    ______ ____
ROOT
ATOM      1  N   UNL     1       4.158   4.043  17.697  0.00  0.00    +0.000 N 
ATOM      2  C   UNL     1       2.891   3.476  17.487  0.00  0.00    +0.000 C 
ATOM      3  O   UNL     1       2.346   3.124  16.455  0.00  0.00    +0.000 OA
ATOM      4  C   UNL     1       2.261   3.320  18.800  0.00  0.00    +0.000 A 
ATOM      5  C   UNL     1       1.031   2.811  19.166  0.00  0.00    +0.000 A 
ATOM      6  C   UNL     1       0.729   2.813  20.533  0.00  0.00    +0.000 A 
ATOM      7  C   UNL     1       1.671   3.302  21.440  0.00  0.00    +0.000 A 
ATOM      8  N   UNL     1       2.885   3.792  21.091  0.00  0.00    +0.000 NA
ATOM      9  C   UNL     1       3.124   3.801  19.764  0.00  0.00    +0.000 A 
ATOM     10  C   UNL     1       4.335   4.409  19.107  0.00  0.00    +0.000 C 
ENDROOT
BRANCH   1  16
ATOM     11  C   UNL     1       5.725   3.605  13.011  0.00  0.00    +0.000 C 
ATOM     12  C   UNL     1       5.954   4.094  14.411  0.00  0.00    +0.000 A 
ATOM     13  C   UNL     1       7.136   4.745  14.765  0.00  0.00    +0.000 A 
ATOM     14  C   UNL     1       7.301   5.230  16.060  0.00  0.00    +0.000 A 
ATOM     15  C   UNL     1       6.292   5.063  17.014  0.00  0.00    +0.000 A 
ATOM     16  C   UNL     1       5.125   4.360  16.703  0.00  0.00    +0.000 A 
ATOM     17  C   UNL     1       4.964   3.899  15.386  0.00  0.00    +0.000 A 
ENDBRANCH   1  16
BRANCH  10  18
ATOM     18  C   UNL     1       4.371   5.926  19.354  0.00  0.00    +0.000 C 
BRANCH  18  19
ATOM     19  C   UNL     1       3.008   6.580  19.195  0.00  0.00    +0.000 C 
ATOM     20  O   UNL     1       2.450   6.673  18.107  0.00  0.00    +0.000 OA
ATOM     21  N   UNL     1       2.475   7.076  20.364  0.00  0.00    +0.000 N 
ATOM     22  H   UNL     1       3.064   7.109  21.187  0.00  0.00    +0.000 HD
BRANCH  21  23
ATOM     23  C   UNL     1       1.260   7.864  20.387  0.00  0.00    +0.000 C 
ATOM     24  C   UNL     1       1.003   8.464  21.763  0.00  0.00    +0.000 C 
ATOM     25  C   UNL     1      -0.003   9.570  21.489  0.00  0.00    +0.000 C 
ATOM     26  C   UNL     1       0.307  10.072  20.078  0.00  0.00    +0.000 C 
ATOM     27  C   UNL     1       1.331   9.101  19.493  0.00  0.00    +0.000 C 
ENDBRANCH  21  23
ENDBRANCH  18  19
ENDBRANCH  10  18
TORSDOF 4
ENDMDL
MODEL 4
REMARK VINA RESULT:      -7.5      2.445      5.081
REMARK  Name = 
REMARK  5 active torsions:
REMARK  status: ('A' for Active; 'I' for Inactive)
REMARK    1  A    between atoms: C_1  and  C_2
REMARK    2  A    between atoms: C_6  and  N_7
REMARK    3  A    between atoms: C_16  and  C_17
REMARK    4  A    between atoms: C_17  and  C_18
REMARK    5  A    between atoms: N_20  and  C_21
REMARK                            x       y       z     vdW  Elec       q    Type
REMARK                         _______ _______ _______ _____ _____    ______ ____
ROOT
ATOM      1  N   UNL     1       3.883   4.846  18.684  0.00  0.00    +0.000 N 
ATOM      2  C   UNL     1       5.213   4.512  18.984  0.00  0.00    +0.000 C 
ATOM      3  O   UNL     1       5.672   3.535  19.548  0.00  0.00    +0.000 OA
ATOM      4  C   UNL     1       6.061   5.583  18.453  0.00  0.00    +0.000 A 
ATOM      5  C   UNL     1       7.431   5.751  18.465  0.00  0.00    +0.000 A 
ATOM      6  C   UNL     1       7.928   6.913  17.863  0.00  0.00    +0.000 A 
ATOM      7  C   UNL     1       7.038   7.816  17.280  0.00  0.00    +0.000 A 
ATOM      8  N   UNL     1       5.693   7.653  17.253  0.00  0.00    +0.000 NA
ATOM      9  C   UNL     1       5.252   6.538  17.870  0.00  0.00    +0.000 A 
ATOM     10  C   UNL     1       3.805   6.187  18.094  0.00  0.00    +0.000 C 
ENDROOT
BRANCH   1  16
ATOM     11  C   UNL     1       1.168   2.465  22.085  0.00  0.00    +0.000 C 
ATOM     12  C   UNL     1       1.405   2.843  20.652  0.00  0.00    +0.000 A 
ATOM     13  C   UNL     1       0.576   2.371  19.633  0.00  0.00    +0.000 A 
ATOM     14  C   UNL     1       0.791   2.777  18.319  0.00  0.00    +0.000 A 
ATOM     15  C   UNL     1       1.839   3.650  18.008  0.00  0.00    +0.000 A 
ATOM     16  C   UNL     1       2.722   4.088  19.000  0.00  0.00    +0.000 A 
ATOM     17  C   UNL     1       2.476   3.688  20.324  0.00  0.00    +0.000 A 
ENDBRANCH   1  16
BRANCH  10  18
ATOM     18  C   UNL     1       3.140   7.229  19.008  0.00  0.00    +0.000 C 
BRANCH  18  19
ATOM     19  C   UNL     1       2.331   8.258  18.235  0.00  0.00    +0.000 C 
ATOM     20  O   UNL     1       2.467   8.424  17.028  0.00  0.00    +0.000 OA
ATOM     21  N   UNL     1       1.462   8.995  19.007  0.00  0.00    +0.000 N 
ATOM     22  H   UNL     1       1.524   8.916  20.014  0.00  0.00    +0.000 HD
BRANCH  21  23
ATOM     23  C   UNL     1       0.719  10.120  18.477  0.00  0.00    +0.000 C 
ATOM     24  C   UNL     1      -0.661  10.235  19.111  0.00  0.00    +0.000 C 
ATOM     25  C   UNL     1      -1.085  11.659  18.789  0.00  0.00    +0.000 C 
ATOM     26  C   UNL     1       0.206  12.475  18.740  0.00  0.00    +0.000 C 
ATOM     27  C   UNL     1       1.353  11.469  18.814  0.00  0.00    +0.000 C 
ENDBRANCH  21  23
ENDBRANCH  18  19
ENDBRANCH  10  18
TORSDOF 4
ENDMDL
MODEL 5
REMARK VINA RESULT:      -7.2      1.297      1.485
REMARK  Name = 
REMARK  5 active torsions:
REMARK  status: ('A' for Active; 'I' for Inactive)
REMARK    1  A    between atoms: C_1  and  C_2
REMARK    2  A    between atoms: C_6  and  N_7
REMARK    3  A    between atoms: C_16  and  C_17
REMARK    4  A    between atoms: C_17  and  C_18
REMARK    5  A    between atoms: N_20  and  C_21
REMARK                            x       y       z     vdW  Elec       q    Type
REMARK                         _______ _______ _______ _____ _____    ______ ____
ROOT
ATOM      1  N   UNL     1       4.211   4.220  17.833  0.00  0.00    +0.000 N 
ATOM      2  C   UNL     1       3.682   2.935  18.032  0.00  0.00    +0.000 C 
ATOM      3  O   UNL     1       3.904   1.891  17.444  0.00  0.00    +0.000 OA
ATOM      4  C   UNL     1       2.760   3.015  19.168  0.00  0.00    +0.000 A 
ATOM      5  C   UNL     1       1.987   2.052  19.784  0.00  0.00    +0.000 A 
ATOM      6  C   UNL     1       1.198   2.470  20.862  0.00  0.00    +0.000 A 
ATOM      7  C   UNL     1       1.242   3.806  21.263  0.00  0.00    +0.000 A 
ATOM      8  N   UNL     1       2.007   4.756  20.672  0.00  0.00    +0.000 NA
ATOM      9  C   UNL     1       2.728   4.319  19.619  0.00  0.00    +0.000 A 
ATOM     10  C   UNL     1       3.555   5.193  18.713  0.00  0.00    +0.000 C 
ENDROOT
BRANCH   1  16
ATOM     11  C   UNL     1       5.959   3.740  13.216  0.00  0.00    +0.000 C 
ATOM     12  C   UNL     1       6.081   4.330  14.590  0.00  0.00    +0.000 A 
ATOM     13  C   UNL     1       7.157   5.150  14.932  0.00  0.00    +0.000 A 
ATOM     14  C   UNL     1       7.219   5.722  16.200  0.00  0.00    +0.000 A 
ATOM     15  C   UNL     1       6.212   5.475  17.140  0.00  0.00    +0.000 A 
ATOM     16  C   UNL     1       5.157   4.608  16.844  0.00  0.00    +0.000 A 
ATOM     17  C   UNL     1       5.097   4.059  15.553  0.00  0.00    +0.000 A 
ENDBRANCH   1  16
BRANCH  10  18
ATOM     18  C   UNL     1       2.654   6.194  17.971  0.00  0.00    +0.000 C 
BRANCH  18  19
ATOM     19  C   UNL     1       2.365   7.442  18.789  0.00  0.00    +0.000 C 
ATOM     20  O   UNL     1       2.543   7.486  20.001  0.00  0.00    +0.000 OA
ATOM     21  N   UNL     1       1.866   8.497  18.059  0.00  0.00    +0.000 N 
ATOM     22  H   UNL     1       1.593   8.333  17.098  0.00  0.00    +0.000 HD
BRANCH  21  23
ATOM     23  C   UNL     1       1.391   9.714  18.684  0.00  0.00    +0.000 C 
ATOM     24  C   UNL     1       2.106  10.944  18.140  0.00  0.00    +0.000 C 
ATOM     25  C   UNL     1       1.202  12.095  18.551  0.00  0.00    +0.000 C 
ATOM     26  C   UNL     1      -0.217  11.525  18.558  0.00  0.00    +0.000 C 
ATOM     27  C   UNL     1      -0.074  10.017  18.370  0.00  0.00    +0.000 C 
ENDBRANCH  21  23
ENDBRANCH  18  19
ENDBRANCH  10  18
TORSDOF 4
ENDMDL
MODEL 6
REMARK VINA RESULT:      -7.1      1.021      1.808
REMARK  Name = 
REMARK  5 active torsions:
REMARK  status: ('A' for Active; 'I' for Inactive)
REMARK    1  A    between atoms: C_1  and  C_2
REMARK    2  A    between atoms: C_6  and  N_7
REMARK    3  A    between atoms: C_16  and  C_17
REMARK    4  A    between atoms: C_17  and  C_18
REMARK    5  A    between atoms: N_20  and  C_21
REMARK                            x       y       z     vdW  Elec       q    Type
REMARK                         _______ _______ _______ _____ _____    ______ ____
ROOT
ATOM      1  N   UNL     1       4.334   4.561  18.106  0.00  0.00    +0.000 N 
ATOM      2  C   UNL     1       3.896   3.229  18.161  0.00  0.00    +0.000 C 
ATOM      3  O   UNL     1       4.351   2.227  17.637  0.00  0.00    +0.000 OA
ATOM      4  C   UNL     1       2.723   3.192  19.039  0.00  0.00    +0.000 A 
ATOM      5  C   UNL     1       1.918   2.146  19.441  0.00  0.00    +0.000 A 
ATOM      6  C   UNL     1       0.856   2.460  20.296  0.00  0.00    +0.000 A 
ATOM      7  C   UNL     1       0.676   3.782  20.706  0.00  0.00    +0.000 A 
ATOM      8  N   UNL     1       1.468   4.813  20.326  0.00  0.00    +0.000 NA
ATOM      9  C   UNL     1       2.460   4.474  19.478  0.00  0.00    +0.000 A 
ATOM     10  C   UNL     1       3.396   5.445  18.807  0.00  0.00    +0.000 C 
ENDROOT
BRANCH   1  16
ATOM     11  C   UNL     1       7.921   7.958  17.655  0.00  0.00    +0.000 C 
ATOM     12  C   UNL     1       7.183   6.775  17.100  0.00  0.00    +0.000 A 
ATOM     13  C   UNL     1       7.504   6.243  15.851  0.00  0.00    +0.000 A 
ATOM     14  C   UNL     1       6.834   5.115  15.383  0.00  0.00    +0.000 A 
ATOM     15  C   UNL     1       5.834   4.513  16.154  0.00  0.00    +0.000 A 
ATOM     16  C   UNL     1       5.450   5.062  17.381  0.00  0.00    +0.000 A 
ATOM     17  C   UNL     1       6.153   6.185  17.849  0.00  0.00    +0.000 A 
ENDBRANCH   1  16
BRANCH  10  18
ATOM     18  C   UNL     1       2.612   6.383  17.875  0.00  0.00    +0.000 C 
BRANCH  18  19
ATOM     19  C   UNL     1       2.378   7.756  18.484  0.00  0.00    +0.000 C 
ATOM     20  O   UNL     1       2.856   8.777  17.999  0.00  0.00    +0.000 OA
ATOM     21  N   UNL     1       1.615   7.748  19.629  0.00  0.00    +0.000 N 
ATOM     22  H   UNL     1       1.397   6.857  20.058  0.00  0.00    +0.000 HD
BRANCH  21  23
ATOM     23  C   UNL     1       1.412   8.936  20.433  0.00  0.00    +0.000 C 
ATOM     24  C   UNL     1       0.206   9.737  19.960  0.00  0.00    +0.000 C 
ATOM     25  C   UNL     1      -0.106  10.643  21.140  0.00  0.00    +0.000 C 
ATOM     26  C   UNL     1       0.312   9.861  22.385  0.00  0.00    +0.000 C 
ATOM     27  C   UNL     1       1.055   8.624  21.885  0.00  0.00    +0.000 C 
ENDBRANCH  21  23
ENDBRANCH  18  19
ENDBRANCH  10  18
TORSDOF 4
ENDMDL
MODEL 7
REMARK VINA RESULT:      -6.8      1.597      2.378
REMARK  Name = 
REMARK  5 active torsions:
REMARK  status: ('A' for Active; 'I' for Inactive)
REMARK    1  A    between atoms: C_1  and  C_2
REMARK    2  A    between atoms: C_6  and  N_7
REMARK    3  A    between atoms: C_16  and  C_17
REMARK    4  A    between atoms: C_17  and  C_18
REMARK    5  A    between atoms: N_20  and  C_21
REMARK                            x       y       z     vdW  Elec       q    Type
REMARK                         _______ _______ _______ _____ _____    ______ ____
ROOT
ATOM      1  N   UNL     1       4.313   4.545  18.046  0.00  0.00    +0.000 N 
ATOM      2  C   UNL     1       3.824   3.234  17.945  0.00  0.00    +0.000 C 
ATOM      3  O   UNL     1       4.240   2.284  17.305  0.00  0.00    +0.000 OA
ATOM      4  C   UNL     1       2.650   3.138  18.817  0.00  0.00    +0.000 A 
ATOM      5  C   UNL     1       1.804   2.083  19.095  0.00  0.00    +0.000 A 
ATOM      6  C   UNL     1       0.754   2.334  19.985  0.00  0.00    +0.000 A 
ATOM      7  C   UNL     1       0.625   3.605  20.548  0.00  0.00    +0.000 A 
ATOM      8  N   UNL     1       1.456   4.643  20.290  0.00  0.00    +0.000 NA
ATOM      9  C   UNL     1       2.435   4.368  19.405  0.00  0.00    +0.000 A 
ATOM     10  C   UNL     1       3.408   5.375  18.850  0.00  0.00    +0.000 C 
ENDROOT
BRANCH   1  16
ATOM     11  C   UNL     1       7.935   7.931  17.911  0.00  0.00    +0.000 C 
ATOM     12  C   UNL     1       7.201   6.796  17.259  0.00  0.00    +0.000 A 
ATOM     13  C   UNL     1       7.544   6.351  15.982  0.00  0.00    +0.000 A 
ATOM     14  C   UNL     1       6.875   5.265  15.422  0.00  0.00    +0.000 A 
ATOM     15  C   UNL     1       5.854   4.620  16.128  0.00  0.00    +0.000 A 
ATOM     16  C   UNL     1       5.448   5.085  17.382  0.00  0.00    +0.000 A 
ATOM     17  C   UNL     1       6.149   6.165  17.942  0.00  0.00    +0.000 A 
ENDBRANCH   1  16
BRANCH  10  18
ATOM     18  C   UNL     1       2.662   6.446  18.038  0.00  0.00    +0.000 C 
BRANCH  18  19
ATOM     19  C   UNL     1       2.282   7.658  18.874  0.00  0.00    +0.000 C 
ATOM     20  O   UNL     1       2.310   7.642  20.100  0.00  0.00    +0.000 OA
ATOM     21  N   UNL     1       1.882   8.752  18.140  0.00  0.00    +0.000 N 
ATOM     22  H   UNL     1       1.727   8.637  17.146  0.00  0.00    +0.000 HD
BRANCH  21  23
ATOM     23  C   UNL     1       1.340   9.943  18.760  0.00  0.00    +0.000 C 
ATOM     24  C   UNL     1       1.978  11.209  18.204  0.00  0.00    +0.000 C 
ATOM     25  C   UNL     1       1.011  12.308  18.614  0.00  0.00    +0.000 C 
ATOM     26  C   UNL     1      -0.372  11.656  18.635  0.00  0.00    +0.000 C 
ATOM     27  C   UNL     1      -0.142  10.157  18.455  0.00  0.00    +0.000 C 
ENDBRANCH  21  23
ENDBRANCH  18  19
ENDBRANCH  10  18
TORSDOF 4
ENDMDL
MODEL 8
REMARK VINA RESULT:      -6.8      3.800      7.566
REMARK  Name = 
REMARK  5 active torsions:
REMARK  status: ('A' for Active; 'I' for Inactive)
REMARK    1  A    between atoms: C_1  and  C_2
REMARK    2  A    between atoms: C_6  and  N_7
REMARK    3  A    between atoms: C_16  and  C_17
REMARK    4  A    between atoms: C_17  and  C_18
REMARK    5  A    between atoms: N_20  and  C_21
REMARK                            x       y       z     vdW  Elec       q    Type
REMARK                         _______ _______ _______ _____ _____    ______ ____
ROOT
ATOM      1  N   UNL     1       1.366  10.073  19.546  0.00  0.00    +0.000 N 
ATOM      2  C   UNL     1       1.663   9.286  18.422  0.00  0.00    +0.000 C 
ATOM      3  O   UNL     1       1.758   9.594  17.247  0.00  0.00    +0.000 OA
ATOM      4  C   UNL     1       1.895   7.919  18.897  0.00  0.00    +0.000 A 
ATOM      5  C   UNL     1       2.225   6.763  18.219  0.00  0.00    +0.000 A 
ATOM      6  C   UNL     1       2.370   5.602  18.987  0.00  0.00    +0.000 A 
ATOM      7  C   UNL     1       2.193   5.670  20.370  0.00  0.00    +0.000 A 
ATOM      8  N   UNL     1       1.880   6.803  21.044  0.00  0.00    +0.000 NA
ATOM      9  C   UNL     1       1.719   7.892  20.265  0.00  0.00    +0.000 A 
ATOM     10  C   UNL     1       1.246   9.238  20.746  0.00  0.00    +0.000 C 
ENDROOT
BRANCH   1  16
ATOM     11  C   UNL     1       2.302  14.572  21.412  0.00  0.00    +0.000 C 
ATOM     12  C   UNL     1       1.479  13.687  20.522  0.00  0.00    +0.000 A 
ATOM     13  C   UNL     1       0.390  14.188  19.810  0.00  0.00    +0.000 A 
ATOM     14  C   UNL     1      -0.326  13.353  18.956  0.00  0.00    +0.000 A 
ATOM     15  C   UNL     1       0.034  12.009  18.811  0.00  0.00    +0.000 A 
ATOM     16  C   UNL     1       1.083  11.466  19.559  0.00  0.00    +0.000 A 
ATOM     17  C   UNL     1       1.809  12.328  20.397  0.00  0.00    +0.000 A 
ENDBRANCH   1  16
BRANCH  10  18
ATOM     18  C   UNL     1      -0.188   9.135  21.291  0.00  0.00    +0.000 C 
BRANCH  18  19
ATOM     19  C   UNL     1      -0.428  10.043  22.487  0.00  0.00    +0.000 C 
ATOM     20  O   UNL     1       0.031   9.798  23.597  0.00  0.00    +0.000 OA
ATOM     21  N   UNL     1      -1.219  11.137  22.219  0.00  0.00    +0.000 N 
ATOM     22  H   UNL     1      -1.694  11.184  21.327  0.00  0.00    +0.000 HD
BRANCH  21  23
ATOM     23  C   UNL     1      -1.682  12.031  23.262  0.00  0.00    +0.000 C 
ATOM     24  C   UNL     1      -1.132  13.440  23.082  0.00  0.00    +0.000 C 
ATOM     25  C   UNL     1      -2.043  14.293  23.950  0.00  0.00    +0.000 C 
ATOM     26  C   UNL     1      -3.406  13.601  23.924  0.00  0.00    +0.000 C 
ATOM     27  C   UNL     1      -3.192  12.258  23.231  0.00  0.00    +0.000 C 
ENDBRANCH  21  23
ENDBRANCH  18  19
ENDBRANCH  10  18
TORSDOF 4
ENDMDL
MODEL 9
REMARK VINA RESULT:      -6.7      3.189      6.472
REMARK  Name = 
REMARK  5 active torsions:
REMARK  status: ('A' for Active; 'I' for Inactive)
REMARK    1  A    between atoms: C_1  and  C_2
REMARK    2  A    between atoms: C_6  and  N_7
REMARK    3  A    between atoms: C_16  and  C_17
REMARK    4  A    between atoms: C_17  and  C_18
REMARK    5  A    between atoms: N_20  and  C_21
REMARK                            x       y       z     vdW  Elec       q    Type
REMARK                         _______ _______ _______ _____ _____    ______ ____
ROOT
ATOM      1  N   UNL     1       4.209   5.158  17.727  0.00  0.00    +0.000 N 
ATOM      2  C   UNL     1       4.004   4.213  16.710  0.00  0.00    +0.000 C 
ATOM      3  O   UNL     1       3.109   3.401  16.556  0.00  0.00    +0.000 OA
ATOM      4  C   UNL     1       5.100   4.364  15.749  0.00  0.00    +0.000 A 
ATOM      5  C   UNL     1       5.379   3.699  14.572  0.00  0.00    +0.000 A 
ATOM      6  C   UNL     1       6.532   4.092  13.883  0.00  0.00    +0.000 A 
ATOM      7  C   UNL     1       7.318   5.124  14.399  0.00  0.00    +0.000 A 
ATOM      8  N   UNL     1       7.046   5.790  15.547  0.00  0.00    +0.000 NA
ATOM      9  C   UNL     1       5.944   5.361  16.196  0.00  0.00    +0.000 A 
ATOM     10  C   UNL     1       5.495   5.841  17.550  0.00  0.00    +0.000 C 
ENDROOT
BRANCH   1  16
ATOM     11  C   UNL     1       1.855   3.306  21.681  0.00  0.00    +0.000 C 
ATOM     12  C   UNL     1       2.152   4.469  20.781  0.00  0.00    +0.000 A 
ATOM     13  C   UNL     1       1.548   5.711  20.979  0.00  0.00    +0.000 A 
ATOM     14  C   UNL     1       1.879   6.784  20.156  0.00  0.00    +0.000 A 
ATOM     15  C   UNL     1       2.810   6.626  19.124  0.00  0.00    +0.000 A 
ATOM     16  C   UNL     1       3.383   5.378  18.864  0.00  0.00    +0.000 A 
ATOM     17  C   UNL     1       3.057   4.312  19.719  0.00  0.00    +0.000 A 
ENDBRANCH   1  16
BRANCH  10  18
ATOM     18  C   UNL     1       6.541   5.480  18.618  0.00  0.00    +0.000 C 
BRANCH  18  19
ATOM     19  C   UNL     1       7.716   6.445  18.639  0.00  0.00    +0.000 C 
ATOM     20  O   UNL     1       8.744   6.211  19.265  0.00  0.00    +0.000 OA
ATOM     21  N   UNL     1       7.512   7.604  17.925  0.00  0.00    +0.000 N 
ATOM     22  H   UNL     1       6.583   7.799  17.574  0.00  0.00    +0.000 HD
BRANCH  21  23
ATOM     23  C   UNL     1       8.453   8.705  17.952  0.00  0.00    +0.000 C 
ATOM     24  C   UNL     1       7.819  10.001  17.463  0.00  0.00    +0.000 C 
ATOM     25  C   UNL     1       8.765  11.076  17.973  0.00  0.00    +0.000 C 
ATOM     26  C   UNL     1       9.354  10.528  19.273  0.00  0.00    +0.000 C 
ATOM     27  C   UNL     1       8.907   9.070  19.365  0.00  0.00    +0.000 C 
ENDBRANCH  21  23
ENDBRANCH  18  19
ENDBRANCH  10  18
TORSDOF 4
ENDMDL
