MODEL 1
REMARK VINA RESULT:      -9.2      0.000      0.000
REMARK  Name = 
REMARK  5 active torsions:
REMARK  status: ('A' for Active; 'I' for Inactive)
REMARK    1  A    between atoms: O_1  and  C_2
REMARK    2  A    between atoms: C_8  and  N_9
REMARK    3  A    between atoms: C_10  and  O_11
REMARK    4  A    between atoms: C_14  and  C_15
REMARK    5  A    between atoms: C_19  and  C_20
REMARK                            x       y       z     vdW  Elec       q    Type
REMARK                         _______ _______ _______ _____ _____    ______ ____
ROOT
ATOM      1  N   UNL     1       4.256   3.887  19.167  0.00  0.00    +0.000 N 
ATOM      2  C   UNL     1       4.170   2.640  19.780  0.00  0.00    +0.000 A 
ATOM      3  N   UNL     1       3.247   2.643  20.706  0.00  0.00    +0.000 NA
ATOM      4  N   UNL     1       2.662   3.875  20.706  0.00  0.00    +0.000 NA
ATOM      5  C   UNL     1       3.231   4.628  19.778  0.00  0.00    +0.000 A 
ENDROOT
BRANCH   1  12
ATOM      6  C   UNL     1       6.401   4.978  18.577  0.00  0.00    +0.000 A 
ATOM      7  C   UNL     1       7.370   5.315  17.628  0.00  0.00    +0.000 A 
ATOM      8  C   UNL     1       7.164   5.003  16.285  0.00  0.00    +0.000 A 
ATOM      9  C   UNL     1       5.983   4.382  15.895  0.00  0.00    +0.000 A 
ATOM     10 CL   UNL     1       5.724   4.008  14.237  0.00  0.00    +0.000 Cl
ATOM     11  C   UNL     1       5.007   4.051  16.839  0.00  0.00    +0.000 A 
ATOM     12  C   UNL     1       5.220   4.317  18.202  0.00  0.00    +0.000 A 
BRANCH   6  13
ATOM     13  O   UNL     1       6.641   5.282  19.887  0.00  0.00    +0.000 OA
ATOM     14  H   UNL     1       7.230   4.607  20.276  0.00  0.00    +0.000 HD
ENDBRANCH   6  13
ENDBRANCH   1  12
BRANCH   5  15
ATOM     15  C   UNL     1       2.777   6.000  19.491  0.00  0.00    +0.000 A 
ATOM     16  C   UNL     1       3.007   6.533  18.216  0.00  0.00    +0.000 A 
ATOM     17  C   UNL     1       2.552   7.807  17.871  0.00  0.00    +0.000 A 
ATOM     18  C   UNL     1       1.839   8.566  18.796  0.00  0.00    +0.000 A 
ATOM     19  C   UNL     1       1.619   8.071  20.087  0.00  0.00    +0.000 A 
ATOM     20  C   UNL     1       2.135   6.810  20.437  0.00  0.00    +0.000 A 
BRANCH  19  21
ATOM     21  C   UNL     1       0.800   8.842  21.096  0.00  0.00    +0.000 C 
ATOM     22  F   UNL     1      -0.337   8.204  21.487  0.00  0.00    +0.000 F 
ATOM     23  F   UNL     1       1.503   9.087  22.237  0.00  0.00    +0.000 F 
ATOM     24  F   UNL     1       0.412  10.060  20.632  0.00  0.00    +0.000 F 
ENDBRANCH  19  21
ENDBRANCH   5  15
BRANCH   2  25
ATOM     25  O   UNL     1       4.970   1.599  19.591  0.00  0.00    +0.000 OA
ATOM     26  H   UNL     1       5.402   1.721  18.727  0.00  0.00    +0.000 HD
ENDBRANCH   2  25
TORSDOF 5
ENDMDL
MODEL 2
REMARK VINA RESULT:      -8.9      3.959      5.218
REMARK  Name = 
REMARK  5 active torsions:
REMARK  status: ('A' for Active; 'I' for Inactive)
REMARK    1  A    between atoms: O_1  and  C_2
REMARK    2  A    between atoms: C_8  and  N_9
REMARK    3  A    between atoms: C_10  and  O_11
REMARK    4  A    between atoms: C_14  and  C_15
REMARK    5  A    between atoms: C_19  and  C_20
REMARK                            x       y       z     vdW  Elec       q    Type
REMARK                         _______ _______ _______ _____ _____    ______ ____
ROOT
ATOM      1  N   UNL     1       6.330   5.350  15.994  0.00  0.00    +0.000 N 
ATOM      2  C   UNL     1       6.825   5.084  14.720  0.00  0.00    +0.000 A 
ATOM      3  N   UNL     1       5.998   4.321  14.054  0.00  0.00    +0.000 NA
ATOM      4  N   UNL     1       4.911   4.095  14.845  0.00  0.00    +0.000 NA
ATOM      5  C   UNL     1       5.075   4.720  16.000  0.00  0.00    +0.000 A 
ENDROOT
BRANCH   1  12
ATOM      6  C   UNL     1       7.459   5.363  18.199  0.00  0.00    +0.000 A 
ATOM      7  C   UNL     1       8.180   6.037  19.189  0.00  0.00    +0.000 A 
ATOM      8  C   UNL     1       8.436   7.400  19.055  0.00  0.00    +0.000 A 
ATOM      9  C   UNL     1       7.948   8.087  17.949  0.00  0.00    +0.000 A 
ATOM     10 CL   UNL     1       8.254   9.772  17.789  0.00  0.00    +0.000 Cl
ATOM     11  C   UNL     1       7.220   7.420  16.960  0.00  0.00    +0.000 A 
ATOM     12  C   UNL     1       6.994   6.037  17.058  0.00  0.00    +0.000 A 
BRANCH   6  13
ATOM     13  O   UNL     1       7.241   4.023  18.353  0.00  0.00    +0.000 OA
ATOM     14  H   UNL     1       7.478   3.557  17.528  0.00  0.00    +0.000 HD
ENDBRANCH   6  13
ENDBRANCH   1  12
BRANCH   5  15
ATOM     15  C   UNL     1       4.041   4.718  17.049  0.00  0.00    +0.000 A 
ATOM     16  C   UNL     1       3.533   5.944  17.499  0.00  0.00    +0.000 A 
ATOM     17  C   UNL     1       2.515   6.001  18.453  0.00  0.00    +0.000 A 
ATOM     18  C   UNL     1       1.973   4.823  18.963  0.00  0.00    +0.000 A 
ATOM     19  C   UNL     1       2.479   3.584  18.554  0.00  0.00    +0.000 A 
ATOM     20  C   UNL     1       3.545   3.546  17.636  0.00  0.00    +0.000 A 
BRANCH  19  21
ATOM     21  C   UNL     1       1.875   2.287  19.041  0.00  0.00    +0.000 C 
ATOM     22  F   UNL     1       1.713   2.228  20.391  0.00  0.00    +0.000 F 
ATOM     23  F   UNL     1       0.640   2.072  18.506  0.00  0.00    +0.000 F 
ATOM     24  F   UNL     1       2.620   1.203  18.699  0.00  0.00    +0.000 F 
ENDBRANCH  19  21
ENDBRANCH   5  15
BRANCH   2  25
ATOM     25  O   UNL     1       8.016   5.413  14.240  0.00  0.00    +0.000 OA
ATOM     26  H   UNL     1       7.969   6.348  13.970  0.00  0.00    +0.000 HD
ENDBRANCH   2  25
TORSDOF 5
ENDMDL
MODEL 3
REMARK VINA RESULT:      -8.7      1.538      2.036
REMARK  Name = 
REMARK  5 active torsions:
REMARK  status: ('A' for Active; 'I' for Inactive)
REMARK    1  A    between atoms: O_1  and  C_2
REMARK    2  A    between atoms: C_8  and  N_9
REMARK    3  A    between atoms: C_10  and  O_11
REMARK    4  A    between atoms: C_14  and  C_15
REMARK    5  A    between atoms: C_19  and  C_20
REMARK                            x       y       z     vdW  Elec       q    Type
REMARK                         _______ _______ _______ _____ _____    ______ ____
ROOT
ATOM      1  N   UNL     1       4.157   4.185  19.303  0.00  0.00    +0.000 N 
ATOM      2  C   UNL     1       4.097   2.901  19.838  0.00  0.00    +0.000 A 
ATOM      3  N   UNL     1       3.124   2.808  20.706  0.00  0.00    +0.000 NA
ATOM      4  N   UNL     1       2.481   4.009  20.742  0.00  0.00    +0.000 NA
ATOM      5  C   UNL     1       3.064   4.841  19.893  0.00  0.00    +0.000 A 
ENDROOT
BRANCH   1  12
ATOM      6  C   UNL     1       5.124   4.470  17.040  0.00  0.00    +0.000 A 
ATOM      7  C   UNL     1       6.056   5.065  16.185  0.00  0.00    +0.000 A 
ATOM      8  C   UNL     1       7.038   5.905  16.706  0.00  0.00    +0.000 A 
ATOM      9  C   UNL     1       7.101   6.124  18.078  0.00  0.00    +0.000 A 
ATOM     10 CL   UNL     1       8.321   7.151  18.721  0.00  0.00    +0.000 Cl
ATOM     11  C   UNL     1       6.177   5.525  18.937  0.00  0.00    +0.000 A 
ATOM     12  C   UNL     1       5.152   4.714  18.423  0.00  0.00    +0.000 A 
BRANCH   6  13
ATOM     13  O   UNL     1       4.163   3.667  16.495  0.00  0.00    +0.000 OA
ATOM     14  H   UNL     1       3.455   4.218  16.111  0.00  0.00    +0.000 HD
ENDBRANCH   6  13
ENDBRANCH   1  12
BRANCH   5  15
ATOM     15  C   UNL     1       2.561   6.205  19.658  0.00  0.00    +0.000 A 
ATOM     16  C   UNL     1       2.739   6.781  18.393  0.00  0.00    +0.000 A 
ATOM     17  C   UNL     1       2.236   8.050  18.097  0.00  0.00    +0.000 A 
ATOM     18  C   UNL     1       1.527   8.760  19.063  0.00  0.00    +0.000 A 
ATOM     19  C   UNL     1       1.358   8.223  20.345  0.00  0.00    +0.000 A 
ATOM     20  C   UNL     1       1.922   6.970  20.644  0.00  0.00    +0.000 A 
BRANCH  19  21
ATOM     21  C   UNL     1       0.545   8.940  21.397  0.00  0.00    +0.000 C 
ATOM     22  F   UNL     1       1.217   9.158  22.560  0.00  0.00    +0.000 F 
ATOM     23  F   UNL     1       0.132  10.166  20.968  0.00  0.00    +0.000 F 
ATOM     24  F   UNL     1      -0.586   8.265  21.732  0.00  0.00    +0.000 F 
ENDBRANCH  19  21
ENDBRANCH   5  15
BRANCH   2  25
ATOM     25  O   UNL     1       4.956   1.910  19.638  0.00  0.00    +0.000 OA
ATOM     26  H   UNL     1       4.448   1.080  19.669  0.00  0.00    +0.000 HD
ENDBRANCH   2  25
TORSDOF 5
ENDMDL
MODEL 4
REMARK VINA RESULT:      -8.4      3.667      5.625
REMARK  Name = 
REMARK  5 active torsions:
REMARK  status: ('A' for Active; 'I' for Inactive)
REMARK    1  A    between atoms: O_1  and  C_2
REMARK    2  A    between atoms: C_8  and  N_9
REMARK    3  A    between atoms: C_10  and  O_11
REMARK    4  A    between atoms: C_14  and  C_15
REMARK    5  A    between atoms: C_19  and  C_20
REMARK                            x       y       z     vdW  Elec       q    Type
REMARK                         _______ _______ _______ _____ _____    ______ ____
ROOT
ATOM      1  N   UNL     1       2.427   3.851  18.671  0.00  0.00    +0.000 N 
ATOM      2  C   UNL     1       1.585   2.753  18.825  0.00  0.00    +0.000 A 
ATOM      3  N   UNL     1       2.045   1.721  18.166  0.00  0.00    +0.000 NA
ATOM      4  N   UNL     1       3.227   2.087  17.594  0.00  0.00    +0.000 NA
ATOM      5  C   UNL     1       3.489   3.347  17.902  0.00  0.00    +0.000 A 
ENDROOT
BRANCH   1  12
ATOM      6  C   UNL     1       1.966   5.477  20.482  0.00  0.00    +0.000 A 
ATOM      7  C   UNL     1       1.836   6.797  20.923  0.00  0.00    +0.000 A 
ATOM      8  C   UNL     1       1.933   7.846  20.011  0.00  0.00    +0.000 A 
ATOM      9  C   UNL     1       2.132   7.571  18.663  0.00  0.00    +0.000 A 
ATOM     10 CL   UNL     1       2.241   8.866  17.536  0.00  0.00    +0.000 Cl
ATOM     11  C   UNL     1       2.254   6.253  18.215  0.00  0.00    +0.000 A 
ATOM     12  C   UNL     1       2.206   5.187  19.129  0.00  0.00    +0.000 A 
BRANCH   6  13
ATOM     13  O   UNL     1       1.883   4.473  21.404  0.00  0.00    +0.000 OA
ATOM     14  H   UNL     1       0.979   4.440  21.772  0.00  0.00    +0.000 HD
ENDBRANCH   6  13
ENDBRANCH   1  12
BRANCH   5  15
ATOM     15  C   UNL     1       4.731   4.018  17.480  0.00  0.00    +0.000 A 
ATOM     16  C   UNL     1       4.939   4.258  16.115  0.00  0.00    +0.000 A 
ATOM     17  C   UNL     1       6.071   4.937  15.662  0.00  0.00    +0.000 A 
ATOM     18  C   UNL     1       7.012   5.406  16.576  0.00  0.00    +0.000 A 
ATOM     19  C   UNL     1       6.847   5.157  17.944  0.00  0.00    +0.000 A 
ATOM     20  C   UNL     1       5.730   4.420  18.377  0.00  0.00    +0.000 A 
BRANCH  19  21
ATOM     21  C   UNL     1       7.818   5.701  18.966  0.00  0.00    +0.000 C 
ATOM     22  F   UNL     1       8.328   6.922  18.646  0.00  0.00    +0.000 F 
ATOM     23  F   UNL     1       7.235   5.847  20.189  0.00  0.00    +0.000 F 
ATOM     24  F   UNL     1       8.885   4.882  19.160  0.00  0.00    +0.000 F 
ENDBRANCH  19  21
ENDBRANCH   5  15
BRANCH   2  25
ATOM     25  O   UNL     1       0.403   2.730  19.426  0.00  0.00    +0.000 OA
ATOM     26  H   UNL     1       0.415   1.986  20.055  0.00  0.00    +0.000 HD
ENDBRANCH   2  25
TORSDOF 5
ENDMDL
MODEL 5
REMARK VINA RESULT:      -8.3      1.666      2.056
REMARK  Name = 
REMARK  5 active torsions:
REMARK  status: ('A' for Active; 'I' for Inactive)
REMARK    1  A    between atoms: O_1  and  C_2
REMARK    2  A    between atoms: C_8  and  N_9
REMARK    3  A    between atoms: C_10  and  O_11
REMARK    4  A    between atoms: C_14  and  C_15
REMARK    5  A    between atoms: C_19  and  C_20
REMARK                            x       y       z     vdW  Elec       q    Type
REMARK                         _______ _______ _______ _____ _____    ______ ____
ROOT
ATOM      1  N   UNL     1       3.711   4.411  19.536  0.00  0.00    +0.000 N 
ATOM      2  C   UNL     1       3.533   3.209  20.215  0.00  0.00    +0.000 A 
ATOM      3  N   UNL     1       2.549   3.303  21.071  0.00  0.00    +0.000 NA
ATOM      4  N   UNL     1       2.015   4.552  20.956  0.00  0.00    +0.000 NA
ATOM      5  C   UNL     1       2.677   5.225  20.027  0.00  0.00    +0.000 A 
ENDROOT
BRANCH   1  12
ATOM      6  C   UNL     1       4.695   4.384  17.263  0.00  0.00    +0.000 A 
ATOM      7  C   UNL     1       5.685   4.792  16.364  0.00  0.00    +0.000 A 
ATOM      8  C   UNL     1       6.758   5.559  16.814  0.00  0.00    +0.000 A 
ATOM      9  C   UNL     1       6.850   5.892  18.162  0.00  0.00    +0.000 A 
ATOM     10 CL   UNL     1       8.179   6.829  18.719  0.00  0.00    +0.000 Cl
ATOM     11  C   UNL     1       5.867   5.479  19.066  0.00  0.00    +0.000 A 
ATOM     12  C   UNL     1       4.756   4.745  18.618  0.00  0.00    +0.000 A 
BRANCH   6  13
ATOM     13  O   UNL     1       3.648   3.647  16.786  0.00  0.00    +0.000 OA
ATOM     14  H   UNL     1       3.081   4.211  16.225  0.00  0.00    +0.000 HD
ENDBRANCH   6  13
ENDBRANCH   1  12
BRANCH   5  15
ATOM     15  C   UNL     1       2.299   6.591  19.627  0.00  0.00    +0.000 A 
ATOM     16  C   UNL     1       2.565   7.008  18.316  0.00  0.00    +0.000 A 
ATOM     17  C   UNL     1       2.181   8.272  17.865  0.00  0.00    +0.000 A 
ATOM     18  C   UNL     1       1.504   9.139  18.719  0.00  0.00    +0.000 A 
ATOM     19  C   UNL     1       1.248   8.762  20.043  0.00  0.00    +0.000 A 
ATOM     20  C   UNL     1       1.694   7.508  20.498  0.00  0.00    +0.000 A 
BRANCH  19  21
ATOM     21  C   UNL     1       0.464   9.653  20.978  0.00  0.00    +0.000 C 
ATOM     22  F   UNL     1      -0.589  10.281  20.388  0.00  0.00    +0.000 F 
ATOM     23  F   UNL     1      -0.055   8.954  22.026  0.00  0.00    +0.000 F 
ATOM     24  F   UNL     1       1.230  10.632  21.529  0.00  0.00    +0.000 F 
ENDBRANCH  19  21
ENDBRANCH   5  15
BRANCH   2  25
ATOM     25  O   UNL     1       4.302   2.131  20.147  0.00  0.00    +0.000 OA
ATOM     26  H   UNL     1       3.908   1.537  19.483  0.00  0.00    +0.000 HD
ENDBRANCH   2  25
TORSDOF 5
ENDMDL
MODEL 6
REMARK VINA RESULT:      -8.2      1.837      2.402
REMARK  Name = 
REMARK  5 active torsions:
REMARK  status: ('A' for Active; 'I' for Inactive)
REMARK    1  A    between atoms: O_1  and  C_2
REMARK    2  A    between atoms: C_8  and  N_9
REMARK    3  A    between atoms: C_10  and  O_11
REMARK    4  A    between atoms: C_14  and  C_15
REMARK    5  A    between atoms: C_19  and  C_20
REMARK                            x       y       z     vdW  Elec       q    Type
REMARK                         _______ _______ _______ _____ _____    ______ ____
ROOT
ATOM      1  N   UNL     1       3.580   3.164  18.475  0.00  0.00    +0.000 N 
ATOM      2  C   UNL     1       3.321   1.798  18.544  0.00  0.00    +0.000 A 
ATOM      3  N   UNL     1       2.300   1.560  19.325  0.00  0.00    +0.000 NA
ATOM      4  N   UNL     1       1.822   2.760  19.763  0.00  0.00    +0.000 NA
ATOM      5  C   UNL     1       2.555   3.735  19.248  0.00  0.00    +0.000 A 
ENDROOT
BRANCH   1  12
ATOM      6  C   UNL     1       5.726   4.398  18.560  0.00  0.00    +0.000 A 
ATOM      7  C   UNL     1       6.836   4.949  17.913  0.00  0.00    +0.000 A 
ATOM      8  C   UNL     1       6.908   4.928  16.521  0.00  0.00    +0.000 A 
ATOM      9  C   UNL     1       5.862   4.382  15.785  0.00  0.00    +0.000 A 
ATOM     10 CL   UNL     1       5.946   4.366  14.068  0.00  0.00    +0.000 Cl
ATOM     11  C   UNL     1       4.747   3.838  16.428  0.00  0.00    +0.000 A 
ATOM     12  C   UNL     1       4.681   3.809  17.830  0.00  0.00    +0.000 A 
BRANCH   6  13
ATOM     13  O   UNL     1       5.695   4.420  19.926  0.00  0.00    +0.000 OA
ATOM     14  H   UNL     1       5.631   3.506  20.266  0.00  0.00    +0.000 HD
ENDBRANCH   6  13
ENDBRANCH   1  12
BRANCH   5  15
ATOM     15  C   UNL     1       2.251   5.156  19.486  0.00  0.00    +0.000 A 
ATOM     16  C   UNL     1       1.834   5.553  20.764  0.00  0.00    +0.000 A 
ATOM     17  C   UNL     1       1.583   6.894  21.061  0.00  0.00    +0.000 A 
ATOM     18  C   UNL     1       1.765   7.868  20.083  0.00  0.00    +0.000 A 
ATOM     19  C   UNL     1       2.153   7.500  18.789  0.00  0.00    +0.000 A 
ATOM     20  C   UNL     1       2.344   6.139  18.491  0.00  0.00    +0.000 A 
BRANCH  19  21
ATOM     21  C   UNL     1       2.416   8.536  17.721  0.00  0.00    +0.000 C 
ATOM     22  F   UNL     1       2.978   9.682  18.191  0.00  0.00    +0.000 F 
ATOM     23  F   UNL     1       3.262   8.069  16.761  0.00  0.00    +0.000 F 
ATOM     24  F   UNL     1       1.284   8.909  17.066  0.00  0.00    +0.000 F 
ENDBRANCH  19  21
ENDBRANCH   5  15
BRANCH   2  25
ATOM     25  O   UNL     1       4.050   0.819  18.025  0.00  0.00    +0.000 OA
ATOM     26  H   UNL     1       4.057   0.092  18.672  0.00  0.00    +0.000 HD
ENDBRANCH   2  25
TORSDOF 5
ENDMDL
MODEL 7
REMARK VINA RESULT:      -8.1      1.838      2.075
REMARK  Name = 
REMARK  5 active torsions:
REMARK  status: ('A' for Active; 'I' for Inactive)
REMARK    1  A    between atoms: O_1  and  C_2
REMARK    2  A    between atoms: C_8  and  N_9
REMARK    3  A    between atoms: C_10  and  O_11
REMARK    4  A    between atoms: C_14  and  C_15
REMARK    5  A    between atoms: C_19  and  C_20
REMARK                            x       y       z     vdW  Elec       q    Type
REMARK                         _______ _______ _______ _____ _____    ______ ____
ROOT
ATOM      1  N   UNL     1       3.699   3.798  18.490  0.00  0.00    +0.000 N 
ATOM      2  C   UNL     1       3.299   2.470  18.609  0.00  0.00    +0.000 A 
ATOM      3  N   UNL     1       2.113   2.391  19.154  0.00  0.00    +0.000 NA
ATOM      4  N   UNL     1       1.670   3.662  19.372  0.00  0.00    +0.000 NA
ATOM      5  C   UNL     1       2.590   4.521  18.960  0.00  0.00    +0.000 A 
ENDROOT
BRANCH   1  12
ATOM      6  C   UNL     1       5.315   4.375  16.703  0.00  0.00    +0.000 A 
ATOM      7  C   UNL     1       6.532   4.935  16.302  0.00  0.00    +0.000 A 
ATOM      8  C   UNL     1       7.429   5.403  17.260  0.00  0.00    +0.000 A 
ATOM      9  C   UNL     1       7.119   5.287  18.610  0.00  0.00    +0.000 A 
ATOM     10 CL   UNL     1       8.231   5.855  19.792  0.00  0.00    +0.000 Cl
ATOM     11  C   UNL     1       5.908   4.721  19.017  0.00  0.00    +0.000 A 
ATOM     12  C   UNL     1       4.973   4.287  18.063  0.00  0.00    +0.000 A 
BRANCH   6  13
ATOM     13  O   UNL     1       4.450   3.941  15.739  0.00  0.00    +0.000 OA
ATOM     14  H   UNL     1       4.496   4.537  14.967  0.00  0.00    +0.000 HD
ENDBRANCH   6  13
ENDBRANCH   1  12
BRANCH   5  15
ATOM     15  C   UNL     1       2.382   5.978  19.005  0.00  0.00    +0.000 A 
ATOM     16  C   UNL     1       2.733   6.745  17.886  0.00  0.00    +0.000 A 
ATOM     17  C   UNL     1       2.509   8.123  17.853  0.00  0.00    +0.000 A 
ATOM     18  C   UNL     1       1.910   8.757  18.939  0.00  0.00    +0.000 A 
ATOM     19  C   UNL     1       1.574   8.022  20.082  0.00  0.00    +0.000 A 
ATOM     20  C   UNL     1       1.861   6.645  20.123  0.00  0.00    +0.000 A 
BRANCH  19  21
ATOM     21  C   UNL     1       0.870   8.667  21.253  0.00  0.00    +0.000 C 
ATOM     22  F   UNL     1      -0.314   8.080  21.576  0.00  0.00    +0.000 F 
ATOM     23  F   UNL     1       1.630   8.626  22.384  0.00  0.00    +0.000 F 
ATOM     24  F   UNL     1       0.597   9.981  21.039  0.00  0.00    +0.000 F 
ENDBRANCH  19  21
ENDBRANCH   5  15
BRANCH   2  25
ATOM     25  O   UNL     1       4.024   1.390  18.352  0.00  0.00    +0.000 OA
ATOM     26  H   UNL     1       4.197   1.381  17.393  0.00  0.00    +0.000 HD
ENDBRANCH   2  25
TORSDOF 5
ENDMDL
MODEL 8
REMARK VINA RESULT:      -8.1      2.368      2.720
REMARK  Name = 
REMARK  5 active torsions:
REMARK  status: ('A' for Active; 'I' for Inactive)
REMARK    1  A    between atoms: O_1  and  C_2
REMARK    2  A    between atoms: C_8  and  N_9
REMARK    3  A    between atoms: C_10  and  O_11
REMARK    4  A    between atoms: C_14  and  C_15
REMARK    5  A    between atoms: C_19  and  C_20
REMARK                            x       y       z     vdW  Elec       q    Type
REMARK                         _______ _______ _______ _____ _____    ______ ____
ROOT
ATOM      1  N   UNL     1       4.048   4.932  17.722  0.00  0.00    +0.000 N 
ATOM      2  C   UNL     1       3.768   3.631  17.315  0.00  0.00    +0.000 A 
ATOM      3  N   UNL     1       2.486   3.386  17.402  0.00  0.00    +0.000 NA
ATOM      4  N   UNL     1       1.872   4.527  17.826  0.00  0.00    +0.000 NA
ATOM      5  C   UNL     1       2.782   5.473  18.000  0.00  0.00    +0.000 A 
ENDROOT
BRANCH   1  12
ATOM      6  C   UNL     1       5.842   6.466  16.970  0.00  0.00    +0.000 A 
ATOM      7  C   UNL     1       7.065   7.106  17.194  0.00  0.00    +0.000 A 
ATOM      8  C   UNL     1       7.805   6.809  18.337  0.00  0.00    +0.000 A 
ATOM      9  C   UNL     1       7.332   5.858  19.235  0.00  0.00    +0.000 A 
ATOM     10 CL   UNL     1       8.250   5.483  20.640  0.00  0.00    +0.000 Cl
ATOM     11  C   UNL     1       6.115   5.210  19.012  0.00  0.00    +0.000 A 
ATOM     12  C   UNL     1       5.336   5.533  17.889  0.00  0.00    +0.000 A 
BRANCH   6  13
ATOM     13  O   UNL     1       5.134   6.794  15.849  0.00  0.00    +0.000 OA
ATOM     14  H   UNL     1       4.880   7.736  15.886  0.00  0.00    +0.000 HD
ENDBRANCH   6  13
ENDBRANCH   1  12
BRANCH   5  15
ATOM     15  C   UNL     1       2.423   6.845  18.398  0.00  0.00    +0.000 A 
ATOM     16  C   UNL     1       2.592   7.882  17.471  0.00  0.00    +0.000 A 
ATOM     17  C   UNL     1       2.219   9.193  17.774  0.00  0.00    +0.000 A 
ATOM     18  C   UNL     1       1.652   9.486  19.013  0.00  0.00    +0.000 A 
ATOM     19  C   UNL     1       1.498   8.476  19.970  0.00  0.00    +0.000 A 
ATOM     20  C   UNL     1       1.932   7.173  19.669  0.00  0.00    +0.000 A 
BRANCH  19  21
ATOM     21  C   UNL     1       0.833   8.747  21.299  0.00  0.00    +0.000 C 
ATOM     22  F   UNL     1       1.680   8.684  22.363  0.00  0.00    +0.000 F 
ATOM     23  F   UNL     1       0.271   9.989  21.340  0.00  0.00    +0.000 F 
ATOM     24  F   UNL     1      -0.177   7.876  21.565  0.00  0.00    +0.000 F 
ENDBRANCH  19  21
ENDBRANCH   5  15
BRANCH   2  25
ATOM     25  O   UNL     1       4.643   2.685  17.002  0.00  0.00    +0.000 OA
ATOM     26  H   UNL     1       4.984   2.891  16.113  0.00  0.00    +0.000 HD
ENDBRANCH   2  25
TORSDOF 5
ENDMDL
MODEL 9
REMARK VINA RESULT:      -8.0      3.218      4.594
REMARK  Name = 
REMARK  5 active torsions:
REMARK  status: ('A' for Active; 'I' for Inactive)
REMARK    1  A    between atoms: O_1  and  C_2
REMARK    2  A    between atoms: C_8  and  N_9
REMARK    3  A    between atoms: C_10  and  O_11
REMARK    4  A    between atoms: C_14  and  C_15
REMARK    5  A    between atoms: C_19  and  C_20
REMARK                            x       y       z     vdW  Elec       q    Type
REMARK                         _______ _______ _______ _____ _____    ______ ____
ROOT
ATOM      1  N   UNL     1       6.480   5.206  15.772  0.00  0.00    +0.000 N 
ATOM      2  C   UNL     1       7.039   5.060  14.506  0.00  0.00    +0.000 A 
ATOM      3  N   UNL     1       6.303   4.275  13.763  0.00  0.00    +0.000 NA
ATOM      4  N   UNL     1       5.212   3.912  14.496  0.00  0.00    +0.000 NA
ATOM      5  C   UNL     1       5.283   4.476  15.691  0.00  0.00    +0.000 A 
ENDROOT
BRANCH   1  12
ATOM      6  C   UNL     1       7.446   5.183  18.054  0.00  0.00    +0.000 A 
ATOM      7  C   UNL     1       8.075   5.846  19.112  0.00  0.00    +0.000 A 
ATOM      8  C   UNL     1       8.303   7.218  19.033  0.00  0.00    +0.000 A 
ATOM      9  C   UNL     1       7.878   7.925  17.913  0.00  0.00    +0.000 A 
ATOM     10 CL   UNL     1       8.149   9.620  17.822  0.00  0.00    +0.000 Cl
ATOM     11  C   UNL     1       7.241   7.268  16.857  0.00  0.00    +0.000 A 
ATOM     12  C   UNL     1       7.047   5.878  16.900  0.00  0.00    +0.000 A 
BRANCH   6  13
ATOM     13  O   UNL     1       7.254   3.834  18.154  0.00  0.00    +0.000 OA
ATOM     14  H   UNL     1       7.956   3.445  18.710  0.00  0.00    +0.000 HD
ENDBRANCH   6  13
ENDBRANCH   1  12
BRANCH   5  15
ATOM     15  C   UNL     1       4.218   4.323  16.697  0.00  0.00    +0.000 A 
ATOM     16  C   UNL     1       3.665   3.053  16.908  0.00  0.00    +0.000 A 
ATOM     17  C   UNL     1       2.691   2.839  17.884  0.00  0.00    +0.000 A 
ATOM     18  C   UNL     1       2.263   3.897  18.684  0.00  0.00    +0.000 A 
ATOM     19  C   UNL     1       2.776   5.183  18.478  0.00  0.00    +0.000 A 
ATOM     20  C   UNL     1       3.714   5.393  17.450  0.00  0.00    +0.000 A 
BRANCH  19  21
ATOM     21  C   UNL     1       2.378   6.340  19.365  0.00  0.00    +0.000 C 
ATOM     22  F   UNL     1       1.447   6.020  20.304  0.00  0.00    +0.000 F 
ATOM     23  F   UNL     1       3.445   6.842  20.049  0.00  0.00    +0.000 F 
ATOM     24  F   UNL     1       1.866   7.385  18.661  0.00  0.00    +0.000 F 
ENDBRANCH  19  21
ENDBRANCH   5  15
BRANCH   2  25
ATOM     25  O   UNL     1       8.215   5.515  14.093  0.00  0.00    +0.000 OA
ATOM     26  H   UNL     1       8.355   5.174  13.191  0.00  0.00    +0.000 HD
ENDBRANCH   2  25
TORSDOF 5
ENDMDL
