MODEL 1
REMARK VINA RESULT:      -7.2      0.000      0.000
REMARK  Name = 
REMARK  6 active torsions:
REMARK  status: ('A' for Active; 'I' for Inactive)
REMARK    1  A    between atoms: C_1  and  O_2
REMARK    2  A    between atoms: O_2  and  C_3
REMARK    3  A    between atoms: C_6  and  C_7
REMARK    4  A    between atoms: N_8  and  N_9
REMARK    5  A    between atoms: C_19  and  O_20
REMARK    6  A    between atoms: O_20  and  C_21
REMARK                            x       y       z     vdW  Elec       q    Type
REMARK                         _______ _______ _______ _____ _____    ______ ____
ROOT
ATOM      1  C   UNL     1       2.621   5.980  18.828  0.00  0.00    +0.000 C 
ATOM      2  N   UNL     1       2.798   6.947  19.678  0.00  0.00    +0.000 NA
ENDROOT
BRANCH   2   3
ATOM      3  N   UNL     1       1.784   7.098  20.589  0.00  0.00    +0.000 N 
ATOM      4  C   UNL     1       1.128   8.271  20.802  0.00  0.00    +0.000 A 
ATOM      5  N   UNL     1       0.636   8.588  21.979  0.00  0.00    +0.000 NA
ATOM      6  C   UNL     1       0.013   9.825  21.933  0.00  0.00    +0.000 A 
ATOM      7  C   UNL     1      -0.581  10.493  23.025  0.00  0.00    +0.000 A 
ATOM      8  C   UNL     1      -1.209  11.727  22.831  0.00  0.00    +0.000 A 
ATOM      9  C   UNL     1      -1.256  12.300  21.565  0.00  0.00    +0.000 A 
ATOM     10  C   UNL     1      -0.662  11.665  20.468  0.00  0.00    +0.000 A 
ATOM     11  C   UNL     1      -0.020  10.430  20.678  0.00  0.00    +0.000 A 
ATOM     12  S   UNL     1       0.827   9.433  19.559  0.00  0.00    +0.000 S 
ATOM     13  H   UNL     1       1.834   6.526  21.430  0.00  0.00    +0.000 HD
ENDBRANCH   2   3
BRANCH   1  17
ATOM     14  C   UNL     1       5.614   5.054  15.912  0.00  0.00    +0.000 A 
ATOM     15  C   UNL     1       5.220   6.373  16.134  0.00  0.00    +0.000 A 
ATOM     16  C   UNL     1       4.236   6.668  17.078  0.00  0.00    +0.000 A 
ATOM     17  C   UNL     1       3.653   5.637  17.824  0.00  0.00    +0.000 A 
ATOM     18  C   UNL     1       4.059   4.306  17.633  0.00  0.00    +0.000 A 
ATOM     19  C   UNL     1       5.031   4.026  16.661  0.00  0.00    +0.000 A 
BRANCH  14  21
ATOM     20  C   UNL     1       6.260   4.050  13.851  0.00  0.00    +0.000 C 
ATOM     21  O   UNL     1       6.576   4.896  14.951  0.00  0.00    +0.000 OA
ENDBRANCH  14  21
BRANCH  18  22
ATOM     22  O   UNL     1       3.459   3.351  18.417  0.00  0.00    +0.000 OA
ATOM     23  C   UNL     1       2.900   2.220  17.757  0.00  0.00    +0.000 C 
ENDBRANCH  18  22
ENDBRANCH   1  17
TORSDOF 4
ENDMDL
MODEL 2
REMARK VINA RESULT:      -6.8      3.154      8.748
REMARK  Name = 
REMARK  6 active torsions:
REMARK  status: ('A' for Active; 'I' for Inactive)
REMARK    1  A    between atoms: C_1  and  O_2
REMARK    2  A    between atoms: O_2  and  C_3
REMARK    3  A    between atoms: C_6  and  C_7
REMARK    4  A    between atoms: N_8  and  N_9
REMARK    5  A    between atoms: C_19  and  O_20
REMARK    6  A    between atoms: O_20  and  C_21
REMARK                            x       y       z     vdW  Elec       q    Type
REMARK                         _______ _______ _______ _____ _____    ______ ____
ROOT
ATOM      1  C   UNL     1       1.648   8.331  21.346  0.00  0.00    +0.000 C 
ATOM      2  N   UNL     1       1.319   7.265  20.680  0.00  0.00    +0.000 NA
ENDROOT
BRANCH   2   3
ATOM      3  N   UNL     1       2.324   6.341  20.550  0.00  0.00    +0.000 N 
ATOM      4  C   UNL     1       3.016   6.134  19.397  0.00  0.00    +0.000 A 
ATOM      5  N   UNL     1       3.501   4.954  19.079  0.00  0.00    +0.000 NA
ATOM      6  C   UNL     1       4.165   5.008  17.865  0.00  0.00    +0.000 A 
ATOM      7  C   UNL     1       4.765   3.916  17.201  0.00  0.00    +0.000 A 
ATOM      8  C   UNL     1       5.436   4.117  15.992  0.00  0.00    +0.000 A 
ATOM      9  C   UNL     1       5.520   5.390  15.437  0.00  0.00    +0.000 A 
ATOM     10  C   UNL     1       4.921   6.487  16.068  0.00  0.00    +0.000 A 
ATOM     11  C   UNL     1       4.235   6.269  17.277  0.00  0.00    +0.000 A 
ATOM     12  S   UNL     1       3.372   7.387  18.262  0.00  0.00    +0.000 S 
ATOM     13  H   UNL     1       2.244   5.493  21.109  0.00  0.00    +0.000 HD
ENDBRANCH   2   3
BRANCH   1  17
ATOM     14  C   UNL     1      -1.217  11.378  22.255  0.00  0.00    +0.000 A 
ATOM     15  C   UNL     1      -0.897  10.398  23.195  0.00  0.00    +0.000 A 
ATOM     16  C   UNL     1       0.030   9.401  22.889  0.00  0.00    +0.000 A 
ATOM     17  C   UNL     1       0.660   9.393  21.639  0.00  0.00    +0.000 A 
ATOM     18  C   UNL     1       0.369  10.388  20.691  0.00  0.00    +0.000 A 
ATOM     19  C   UNL     1      -0.585  11.368  21.008  0.00  0.00    +0.000 A 
BRANCH  14  21
ATOM     20  C   UNL     1      -1.673  13.425  23.384  0.00  0.00    +0.000 C 
ATOM     21  O   UNL     1      -2.150  12.289  22.671  0.00  0.00    +0.000 OA
ENDBRANCH  14  21
BRANCH  18  22
ATOM     22  O   UNL     1       1.042  10.330  19.496  0.00  0.00    +0.000 OA
ATOM     23  C   UNL     1       0.280  10.031  18.330  0.00  0.00    +0.000 C 
ENDBRANCH  18  22
ENDBRANCH   1  17
TORSDOF 4
ENDMDL
MODEL 3
REMARK VINA RESULT:      -6.7      6.563      9.152
REMARK  Name = 
REMARK  6 active torsions:
REMARK  status: ('A' for Active; 'I' for Inactive)
REMARK    1  A    between atoms: C_1  and  O_2
REMARK    2  A    between atoms: O_2  and  C_3
REMARK    3  A    between atoms: C_6  and  C_7
REMARK    4  A    between atoms: N_8  and  N_9
REMARK    5  A    between atoms: C_19  and  O_20
REMARK    6  A    between atoms: O_20  and  C_21
REMARK                            x       y       z     vdW  Elec       q    Type
REMARK                         _______ _______ _______ _____ _____    ______ ____
ROOT
ATOM      1  C   UNL     1       9.117   9.352  19.337  0.00  0.00    +0.000 C 
ATOM      2  N   UNL     1       8.516   8.598  18.465  0.00  0.00    +0.000 NA
ENDROOT
BRANCH   2   3
ATOM      3  N   UNL     1       8.390   7.285  18.839  0.00  0.00    +0.000 N 
ATOM      4  C   UNL     1       7.348   6.491  18.469  0.00  0.00    +0.000 A 
ATOM      5  N   UNL     1       6.908   5.519  19.237  0.00  0.00    +0.000 NA
ATOM      6  C   UNL     1       5.848   4.860  18.635  0.00  0.00    +0.000 A 
ATOM      7  C   UNL     1       5.108   3.799  19.198  0.00  0.00    +0.000 A 
ATOM      8  C   UNL     1       4.081   3.198  18.464  0.00  0.00    +0.000 A 
ATOM      9  C   UNL     1       3.787   3.637  17.177  0.00  0.00    +0.000 A 
ATOM     10  C   UNL     1       4.496   4.697  16.602  0.00  0.00    +0.000 A 
ATOM     11  C   UNL     1       5.518   5.304  17.357  0.00  0.00    +0.000 A 
ATOM     12  S   UNL     1       6.532   6.636  16.954  0.00  0.00    +0.000 S 
ATOM     13  H   UNL     1       8.766   7.027  19.750  0.00  0.00    +0.000 HD
ENDBRANCH   2   3
BRANCH   1  17
ATOM     14  C   UNL     1       9.565  13.552  18.646  0.00  0.00    +0.000 A 
ATOM     15  C   UNL     1       9.600  12.648  17.585  0.00  0.00    +0.000 A 
ATOM     16  C   UNL     1       9.464  11.279  17.817  0.00  0.00    +0.000 A 
ATOM     17  C   UNL     1       9.271  10.808  19.121  0.00  0.00    +0.000 A 
ATOM     18  C   UNL     1       9.205  11.707  20.198  0.00  0.00    +0.000 A 
ATOM     19  C   UNL     1       9.370  13.078  19.948  0.00  0.00    +0.000 A 
BRANCH  14  21
ATOM     20  C   UNL     1      10.891  15.195  17.544  0.00  0.00    +0.000 C 
ATOM     21  O   UNL     1       9.725  14.863  18.289  0.00  0.00    +0.000 OA
ENDBRANCH  14  21
BRANCH  18  22
ATOM     22  O   UNL     1       8.991  11.175  21.445  0.00  0.00    +0.000 OA
ATOM     23  C   UNL     1       8.509  12.053  22.457  0.00  0.00    +0.000 C 
ENDBRANCH  18  22
ENDBRANCH   1  17
TORSDOF 4
ENDMDL
MODEL 4
REMARK VINA RESULT:      -6.7      1.807      2.340
REMARK  Name = 
REMARK  6 active torsions:
REMARK  status: ('A' for Active; 'I' for Inactive)
REMARK    1  A    between atoms: C_1  and  O_2
REMARK    2  A    between atoms: O_2  and  C_3
REMARK    3  A    between atoms: C_6  and  C_7
REMARK    4  A    between atoms: N_8  and  N_9
REMARK    5  A    between atoms: C_19  and  O_20
REMARK    6  A    between atoms: O_20  and  C_21
REMARK                            x       y       z     vdW  Elec       q    Type
REMARK                         _______ _______ _______ _____ _____    ______ ____
ROOT
ATOM      1  C   UNL     1       2.981   8.407  17.914  0.00  0.00    +0.000 C 
ATOM      2  N   UNL     1       1.789   8.752  17.528  0.00  0.00    +0.000 NA
ENDROOT
BRANCH   2   3
ATOM      3  N   UNL     1       1.401  10.005  17.929  0.00  0.00    +0.000 N 
ATOM      4  C   UNL     1       0.733  10.254  19.088  0.00  0.00    +0.000 A 
ATOM      5  N   UNL     1      -0.122  11.247  19.198  0.00  0.00    +0.000 NA
ATOM      6  C   UNL     1      -0.661  11.290  20.473  0.00  0.00    +0.000 A 
ATOM      7  C   UNL     1      -1.645  12.196  20.925  0.00  0.00    +0.000 A 
ATOM      8  C   UNL     1      -2.077  12.152  22.253  0.00  0.00    +0.000 A 
ATOM      9  C   UNL     1      -1.541  11.222  23.137  0.00  0.00    +0.000 A 
ATOM     10  C   UNL     1      -0.575  10.302  22.710  0.00  0.00    +0.000 A 
ATOM     11  C   UNL     1      -0.159  10.347  21.367  0.00  0.00    +0.000 A 
ATOM     12  S   UNL     1       0.966   9.342  20.536  0.00  0.00    +0.000 S 
ATOM     13  H   UNL     1       1.159  10.668  17.194  0.00  0.00    +0.000 HD
ENDBRANCH   2   3
BRANCH   1  17
ATOM     14  C   UNL     1       4.753   4.708  16.689  0.00  0.00    +0.000 A 
ATOM     15  C   UNL     1       5.122   5.909  16.084  0.00  0.00    +0.000 A 
ATOM     16  C   UNL     1       4.533   7.110  16.481  0.00  0.00    +0.000 A 
ATOM     17  C   UNL     1       3.580   7.116  17.505  0.00  0.00    +0.000 A 
ATOM     18  C   UNL     1       3.217   5.919  18.144  0.00  0.00    +0.000 A 
ATOM     19  C   UNL     1       3.802   4.717  17.714  0.00  0.00    +0.000 A 
BRANCH  14  21
ATOM     20  C   UNL     1       6.192   3.773  15.038  0.00  0.00    +0.000 C 
ATOM     21  O   UNL     1       5.392   3.600  16.201  0.00  0.00    +0.000 OA
ENDBRANCH  14  21
BRANCH  18  22
ATOM     22  O   UNL     1       2.293   6.005  19.156  0.00  0.00    +0.000 OA
ATOM     23  C   UNL     1       2.312   4.983  20.148  0.00  0.00    +0.000 C 
ENDBRANCH  18  22
ENDBRANCH   1  17
TORSDOF 4
ENDMDL
MODEL 5
REMARK VINA RESULT:      -6.7      1.931      3.150
REMARK  Name = 
REMARK  6 active torsions:
REMARK  status: ('A' for Active; 'I' for Inactive)
REMARK    1  A    between atoms: C_1  and  O_2
REMARK    2  A    between atoms: O_2  and  C_3
REMARK    3  A    between atoms: C_6  and  C_7
REMARK    4  A    between atoms: N_8  and  N_9
REMARK    5  A    between atoms: C_19  and  O_20
REMARK    6  A    between atoms: O_20  and  C_21
REMARK                            x       y       z     vdW  Elec       q    Type
REMARK                         _______ _______ _______ _____ _____    ______ ____
ROOT
ATOM      1  C   UNL     1       2.769   7.835  18.223  0.00  0.00    +0.000 C 
ATOM      2  N   UNL     1       1.616   8.328  17.882  0.00  0.00    +0.000 NA
ENDROOT
BRANCH   2   3
ATOM      3  N   UNL     1       1.477   9.670  18.120  0.00  0.00    +0.000 N 
ATOM      4  C   UNL     1       0.798  10.182  19.183  0.00  0.00    +0.000 A 
ATOM      5  N   UNL     1       0.169  11.335  19.116  0.00  0.00    +0.000 NA
ATOM      6  C   UNL     1      -0.436  11.634  20.326  0.00  0.00    +0.000 A 
ATOM      7  C   UNL     1      -1.232  12.768  20.594  0.00  0.00    +0.000 A 
ATOM      8  C   UNL     1      -1.755  12.967  21.875  0.00  0.00    +0.000 A 
ATOM      9  C   UNL     1      -1.492  12.054  22.891  0.00  0.00    +0.000 A 
ATOM     10  C   UNL     1      -0.718  10.914  22.648  0.00  0.00    +0.000 A 
ATOM     11  C   UNL     1      -0.209  10.717  21.350  0.00  0.00    +0.000 A 
ATOM     12  S   UNL     1       0.730   9.415  20.729  0.00  0.00    +0.000 S 
ATOM     13  H   UNL     1       1.434  10.280  17.305  0.00  0.00    +0.000 HD
ENDBRANCH   2   3
BRANCH   1  17
ATOM     14  C   UNL     1       3.686   3.718  17.494  0.00  0.00    +0.000 A 
ATOM     15  C   UNL     1       2.417   4.099  17.927  0.00  0.00    +0.000 A 
ATOM     16  C   UNL     1       2.127   5.441  18.173  0.00  0.00    +0.000 A 
ATOM     17  C   UNL     1       3.108   6.417  17.966  0.00  0.00    +0.000 A 
ATOM     18  C   UNL     1       4.383   6.054  17.503  0.00  0.00    +0.000 A 
ATOM     19  C   UNL     1       4.664   4.696  17.285  0.00  0.00    +0.000 A 
BRANCH  14  21
ATOM     20  C   UNL     1       3.546   1.521  18.402  0.00  0.00    +0.000 C 
ATOM     21  O   UNL     1       3.848   2.372  17.303  0.00  0.00    +0.000 OA
ENDBRANCH  14  21
BRANCH  18  22
ATOM     22  O   UNL     1       5.287   7.067  17.300  0.00  0.00    +0.000 OA
ATOM     23  C   UNL     1       6.663   6.708  17.212  0.00  0.00    +0.000 C 
ENDBRANCH  18  22
ENDBRANCH   1  17
TORSDOF 4
ENDMDL
MODEL 6
REMARK VINA RESULT:      -6.6      3.470      8.825
REMARK  Name = 
REMARK  6 active torsions:
REMARK  status: ('A' for Active; 'I' for Inactive)
REMARK    1  A    between atoms: C_1  and  O_2
REMARK    2  A    between atoms: O_2  and  C_3
REMARK    3  A    between atoms: C_6  and  C_7
REMARK    4  A    between atoms: N_8  and  N_9
REMARK    5  A    between atoms: C_19  and  O_20
REMARK    6  A    between atoms: O_20  and  C_21
REMARK                            x       y       z     vdW  Elec       q    Type
REMARK                         _______ _______ _______ _____ _____    ______ ____
ROOT
ATOM      1  C   UNL     1       3.266   5.091  17.928  0.00  0.00    +0.000 C 
ATOM      2  N   UNL     1       4.429   4.587  18.213  0.00  0.00    +0.000 NA
ENDROOT
BRANCH   2   3
ATOM      3  N   UNL     1       4.894   3.676  17.301  0.00  0.00    +0.000 N 
ATOM      4  C   UNL     1       5.540   4.018  16.153  0.00  0.00    +0.000 A 
ATOM      5  N   UNL     1       5.453   3.289  15.062  0.00  0.00    +0.000 NA
ATOM      6  C   UNL     1       6.202   3.846  14.039  0.00  0.00    +0.000 A 
ATOM      7  C   UNL     1       6.297   3.352  12.720  0.00  0.00    +0.000 A 
ATOM      8  C   UNL     1       7.122   3.995  11.792  0.00  0.00    +0.000 A 
ATOM      9  C   UNL     1       7.854   5.118  12.161  0.00  0.00    +0.000 A 
ATOM     10  C   UNL     1       7.766   5.636  13.458  0.00  0.00    +0.000 A 
ATOM     11  C   UNL     1       6.921   4.990  14.379  0.00  0.00    +0.000 A 
ATOM     12  S   UNL     1       6.569   5.398  16.015  0.00  0.00    +0.000 S 
ATOM     13  H   UNL     1       4.363   2.812  17.201  0.00  0.00    +0.000 HD
ENDBRANCH   2   3
BRANCH   1  17
ATOM     14  C   UNL     1       1.500   8.173  20.315  0.00  0.00    +0.000 A 
ATOM     15  C   UNL     1       1.959   8.445  19.027  0.00  0.00    +0.000 A 
ATOM     16  C   UNL     1       2.543   7.439  18.257  0.00  0.00    +0.000 A 
ATOM     17  C   UNL     1       2.653   6.142  18.771  0.00  0.00    +0.000 A 
ATOM     18  C   UNL     1       2.171   5.844  20.057  0.00  0.00    +0.000 A 
ATOM     19  C   UNL     1       1.609   6.876  20.825  0.00  0.00    +0.000 A 
BRANCH  14  21
ATOM     20  C   UNL     1       1.053   9.252  22.391  0.00  0.00    +0.000 C 
ATOM     21  O   UNL     1       0.961   9.247  20.971  0.00  0.00    +0.000 OA
ENDBRANCH  14  21
BRANCH  18  22
ATOM     22  O   UNL     1       2.292   4.546  20.485  0.00  0.00    +0.000 OA
ATOM     23  C   UNL     1       1.099   3.773  20.577  0.00  0.00    +0.000 C 
ENDBRANCH  18  22
ENDBRANCH   1  17
TORSDOF 4
ENDMDL
MODEL 7
REMARK VINA RESULT:      -6.6      3.920      8.502
REMARK  Name = 
REMARK  6 active torsions:
REMARK  status: ('A' for Active; 'I' for Inactive)
REMARK    1  A    between atoms: C_1  and  O_2
REMARK    2  A    between atoms: O_2  and  C_3
REMARK    3  A    between atoms: C_6  and  C_7
REMARK    4  A    between atoms: N_8  and  N_9
REMARK    5  A    between atoms: C_19  and  O_20
REMARK    6  A    between atoms: O_20  and  C_21
REMARK                            x       y       z     vdW  Elec       q    Type
REMARK                         _______ _______ _______ _____ _____    ______ ____
ROOT
ATOM      1  C   UNL     1       0.452   9.131  20.868  0.00  0.00    +0.000 C 
ATOM      2  N   UNL     1       1.638   8.604  20.834  0.00  0.00    +0.000 NA
ENDROOT
BRANCH   2   3
ATOM      3  N   UNL     1       1.695   7.300  21.253  0.00  0.00    +0.000 N 
ATOM      4  C   UNL     1       1.856   6.242  20.412  0.00  0.00    +0.000 A 
ATOM      5  N   UNL     1       1.338   5.062  20.672  0.00  0.00    +0.000 NA
ATOM      6  C   UNL     1       1.648   4.158  19.669  0.00  0.00    +0.000 A 
ATOM      7  C   UNL     1       1.216   2.816  19.602  0.00  0.00    +0.000 A 
ATOM      8  C   UNL     1       1.633   2.001  18.546  0.00  0.00    +0.000 A 
ATOM      9  C   UNL     1       2.477   2.502  17.561  0.00  0.00    +0.000 A 
ATOM     10  C   UNL     1       2.907   3.833  17.596  0.00  0.00    +0.000 A 
ATOM     11  C   UNL     1       2.469   4.649  18.655  0.00  0.00    +0.000 A 
ATOM     12  S   UNL     1       2.784   6.315  18.957  0.00  0.00    +0.000 S 
ATOM     13  H   UNL     1       1.147   7.057  22.077  0.00  0.00    +0.000 HD
ENDBRANCH   2   3
BRANCH   1  17
ATOM     14  C   UNL     1      -0.257  13.087  19.396  0.00  0.00    +0.000 A 
ATOM     15  C   UNL     1       0.037  12.043  18.519  0.00  0.00    +0.000 A 
ATOM     16  C   UNL     1       0.277  10.758  19.006  0.00  0.00    +0.000 A 
ATOM     17  C   UNL     1       0.204  10.507  20.381  0.00  0.00    +0.000 A 
ATOM     18  C   UNL     1      -0.118  11.541  21.275  0.00  0.00    +0.000 A 
ATOM     19  C   UNL     1      -0.331  12.833  20.769  0.00  0.00    +0.000 A 
BRANCH  14  21
ATOM     20  C   UNL     1      -0.652  15.422  19.651  0.00  0.00    +0.000 C 
ATOM     21  O   UNL     1      -0.457  14.301  18.796  0.00  0.00    +0.000 OA
ENDBRANCH  14  21
BRANCH  18  22
ATOM     22  O   UNL     1      -0.194  11.215  22.606  0.00  0.00    +0.000 OA
ATOM     23  C   UNL     1      -1.491  11.157  23.192  0.00  0.00    +0.000 C 
ENDBRANCH  18  22
ENDBRANCH   1  17
TORSDOF 4
ENDMDL
MODEL 8
REMARK VINA RESULT:      -6.6      2.311      3.863
REMARK  Name = 
REMARK  6 active torsions:
REMARK  status: ('A' for Active; 'I' for Inactive)
REMARK    1  A    between atoms: C_1  and  O_2
REMARK    2  A    between atoms: O_2  and  C_3
REMARK    3  A    between atoms: C_6  and  C_7
REMARK    4  A    between atoms: N_8  and  N_9
REMARK    5  A    between atoms: C_19  and  O_20
REMARK    6  A    between atoms: O_20  and  C_21
REMARK                            x       y       z     vdW  Elec       q    Type
REMARK                         _______ _______ _______ _____ _____    ______ ____
ROOT
ATOM      1  C   UNL     1       1.915   7.488  20.660  0.00  0.00    +0.000 C 
ATOM      2  N   UNL     1       0.819   7.912  21.214  0.00  0.00    +0.000 NA
ENDROOT
BRANCH   2   3
ATOM      3  N   UNL     1       0.897   9.176  21.738  0.00  0.00    +0.000 N 
ATOM      4  C   UNL     1       0.667  10.308  21.019  0.00  0.00    +0.000 A 
ATOM      5  N   UNL     1       1.281  11.440  21.288  0.00  0.00    +0.000 NA
ATOM      6  C   UNL     1       0.871  12.438  20.420  0.00  0.00    +0.000 A 
ATOM      7  C   UNL     1       1.359  13.762  20.392  0.00  0.00    +0.000 A 
ATOM      8  C   UNL     1       0.829  14.683  19.483  0.00  0.00    +0.000 A 
ATOM      9  C   UNL     1      -0.181  14.303  18.606  0.00  0.00    +0.000 A 
ATOM     10  C   UNL     1      -0.672  12.992  18.602  0.00  0.00    +0.000 A 
ATOM     11  C   UNL     1      -0.121  12.071  19.512  0.00  0.00    +0.000 A 
ATOM     12  S   UNL     1      -0.476  10.399  19.727  0.00  0.00    +0.000 S 
ATOM     13  H   UNL     1       1.578   9.324  22.482  0.00  0.00    +0.000 HD
ENDBRANCH   2   3
BRANCH   1  17
ATOM     14  C   UNL     1       2.064   3.660  18.752  0.00  0.00    +0.000 A 
ATOM     15  C   UNL     1       1.464   3.809  20.002  0.00  0.00    +0.000 A 
ATOM     16  C   UNL     1       1.428   5.058  20.624  0.00  0.00    +0.000 A 
ATOM     17  C   UNL     1       1.979   6.173  19.983  0.00  0.00    +0.000 A 
ATOM     18  C   UNL     1       2.563   6.045  18.712  0.00  0.00    +0.000 A 
ATOM     19  C   UNL     1       2.612   4.776  18.113  0.00  0.00    +0.000 A 
BRANCH  14  21
ATOM     20  C   UNL     1       3.305   1.744  18.072  0.00  0.00    +0.000 C 
ATOM     21  O   UNL     1       2.048   2.384  18.257  0.00  0.00    +0.000 OA
ENDBRANCH  14  21
BRANCH  18  22
ATOM     22  O   UNL     1       3.062   7.186  18.134  0.00  0.00    +0.000 OA
ATOM     23  C   UNL     1       4.232   7.056  17.333  0.00  0.00    +0.000 C 
ENDBRANCH  18  22
ENDBRANCH   1  17
TORSDOF 4
ENDMDL
MODEL 9
REMARK VINA RESULT:      -6.5      2.721      3.029
REMARK  Name = 
REMARK  6 active torsions:
REMARK  status: ('A' for Active; 'I' for Inactive)
REMARK    1  A    between atoms: C_1  and  O_2
REMARK    2  A    between atoms: O_2  and  C_3
REMARK    3  A    between atoms: C_6  and  C_7
REMARK    4  A    between atoms: N_8  and  N_9
REMARK    5  A    between atoms: C_19  and  O_20
REMARK    6  A    between atoms: O_20  and  C_21
REMARK                            x       y       z     vdW  Elec       q    Type
REMARK                         _______ _______ _______ _____ _____    ______ ____
ROOT
ATOM      1  C   UNL     1       2.061   7.897  17.805  0.00  0.00    +0.000 C 
ATOM      2  N   UNL     1       2.127   9.176  18.026  0.00  0.00    +0.000 NA
ENDROOT
BRANCH   2   3
ATOM      3  N   UNL     1       0.968   9.860  17.762  0.00  0.00    +0.000 N 
ATOM      4  C   UNL     1       0.391  10.732  18.632  0.00  0.00    +0.000 A 
ATOM      5  N   UNL     1      -0.911  10.911  18.676  0.00  0.00    +0.000 NA
ATOM      6  C   UNL     1      -1.244  11.850  19.638  0.00  0.00    +0.000 A 
ATOM      7  C   UNL     1      -2.553  12.250  19.985  0.00  0.00    +0.000 A 
ATOM      8  C   UNL     1      -2.747  13.239  20.954  0.00  0.00    +0.000 A 
ATOM      9  C   UNL     1      -1.656  13.836  21.578  0.00  0.00    +0.000 A 
ATOM     10  C   UNL     1      -0.349  13.447  21.263  0.00  0.00    +0.000 A 
ATOM     11  C   UNL     1      -0.167  12.440  20.296  0.00  0.00    +0.000 A 
ATOM     12  S   UNL     1       1.290  11.723  19.725  0.00  0.00    +0.000 S 
ATOM     13  H   UNL     1       0.281   9.391  17.174  0.00  0.00    +0.000 HD
ENDBRANCH   2   3
BRANCH   1  17
ATOM     14  C   UNL     1       5.392   5.338  18.628  0.00  0.00    +0.000 A 
ATOM     15  C   UNL     1       5.412   6.202  17.535  0.00  0.00    +0.000 A 
ATOM     16  C   UNL     1       4.319   7.027  17.266  0.00  0.00    +0.000 A 
ATOM     17  C   UNL     1       3.202   7.003  18.108  0.00  0.00    +0.000 A 
ATOM     18  C   UNL     1       3.177   6.158  19.230  0.00  0.00    +0.000 A 
ATOM     19  C   UNL     1       4.275   5.317  19.470  0.00  0.00    +0.000 A 
BRANCH  14  21
ATOM     20  C   UNL     1       7.511   4.680  17.762  0.00  0.00    +0.000 C 
ATOM     21  O   UNL     1       6.517   4.572  18.775  0.00  0.00    +0.000 OA
ENDBRANCH  14  21
BRANCH  18  22
ATOM     22  O   UNL     1       2.058   6.205  20.024  0.00  0.00    +0.000 OA
ATOM     23  C   UNL     1       1.644   4.991  20.643  0.00  0.00    +0.000 C 
ENDBRANCH  18  22
ENDBRANCH   1  17
TORSDOF 4
ENDMDL
