MODEL 1
REMARK VINA RESULT:      -8.7      0.000      0.000
REMARK  Name = 
REMARK  8 active torsions:
REMARK  status: ('A' for Active; 'I' for Inactive)
REMARK    1  A    between atoms: C_1  and  C_2
REMARK    2  A    between atoms: C_2  and  C_3
REMARK    3  A    between atoms: N_16  and  C_17
REMARK    4  A    between atoms: C_17  and  C_18
REMARK    5  A    between atoms: N_20  and  C_21
REMARK    6  A    between atoms: C_26  and  S_27
REMARK    7  A    between atoms: S_27  and  C_28
REMARK    8  A    between atoms: C_28  and  C_29
REMARK                            x       y       z     vdW  Elec       q    Type
REMARK                         _______ _______ _______ _____ _____    ______ ____
ROOT
ATOM      1  C   UNL     1       0.760  11.860  20.203  0.00  0.00    +0.000 C 
ATOM      2  C   UNL     1       0.432  10.689  19.270  0.00  0.00    +0.000 C 
ATOM      3  N   UNL     1       1.394  10.568  18.192  0.00  0.00    +0.000 N 
ATOM      4  C   UNL     1       1.953   9.319  18.122  0.00  0.00    +0.000 C 
ATOM      5  O   UNL     1       2.665   8.929  17.212  0.00  0.00    +0.000 OA
ATOM      6  N   UNL     1       1.583   8.611  19.216  0.00  0.00    +0.000 N 
ATOM      7  C   UNL     1       0.738   9.354  19.996  0.00  0.00    +0.000 C 
ATOM      8  O   UNL     1       0.291   9.007  21.082  0.00  0.00    +0.000 OA
ATOM      9  H   UNL     1       1.463  11.196  17.401  0.00  0.00    +0.000 HD
ENDROOT
BRANCH   2  10
ATOM     10  C   UNL     1      -0.965  10.805  18.672  0.00  0.00    +0.000 A 
ATOM     11  C   UNL     1      -1.303  10.030  17.541  0.00  0.00    +0.000 A 
ATOM     12  C   UNL     1      -2.579  10.080  16.979  0.00  0.00    +0.000 A 
ATOM     13  C   UNL     1      -3.548  10.903  17.540  0.00  0.00    +0.000 A 
ATOM     14  C   UNL     1      -3.244  11.659  18.674  0.00  0.00    +0.000 A 
ATOM     15  C   UNL     1      -1.960  11.628  19.224  0.00  0.00    +0.000 A 
ATOM     16  O   UNL     1      -4.162  12.457  19.308  0.00  0.00    +0.000 OA
ATOM     17  C   UNL     1      -5.496  12.104  18.924  0.00  0.00    +0.000 C 
ATOM     18  C   UNL     1      -5.598  11.977  17.413  0.00  0.00    +0.000 C 
ATOM     19  O   UNL     1      -4.778  10.906  16.936  0.00  0.00    +0.000 OA
ENDBRANCH   2  10
BRANCH   6  20
ATOM     20  C   UNL     1       2.188   7.359  19.610  0.00  0.00    +0.000 C 
BRANCH  20  21
ATOM     21  C   UNL     1       2.658   6.434  18.489  0.00  0.00    +0.000 C 
ATOM     22  O   UNL     1       1.816   5.750  17.903  0.00  0.00    +0.000 OA
ATOM     23  N   UNL     1       4.024   6.298  18.312  0.00  0.00    +0.000 N 
ATOM     24  H   UNL     1       4.642   6.615  19.054  0.00  0.00    +0.000 HD
BRANCH  23  25
ATOM     25  C   UNL     1       4.644   5.608  17.231  0.00  0.00    +0.000 A 
ATOM     26  C   UNL     1       5.007   6.265  16.048  0.00  0.00    +0.000 A 
ATOM     27  C   UNL     1       5.635   5.586  15.001  0.00  0.00    +0.000 A 
ATOM     28  C   UNL     1       5.940   4.237  15.128  0.00  0.00    +0.000 A 
ATOM     29  C   UNL     1       5.601   3.564  16.299  0.00  0.00    +0.000 A 
ATOM     30  C   UNL     1       4.938   4.234  17.343  0.00  0.00    +0.000 A 
BRANCH  30  31
ATOM     31  S   UNL     1       4.392   3.253  18.734  0.00  0.00    +0.000 S 
BRANCH  31  32
ATOM     32  C   UNL     1       3.129   2.265  17.846  0.00  0.00    +0.000 C 
BRANCH  32  33
ATOM     33  C   UNL     1       1.782   2.351  18.543  0.00  0.00    +0.000 C 
ATOM     34  N   UNL     1       0.662   2.423  19.119  0.00  0.00    +0.000 NA
ENDBRANCH  32  33
ENDBRANCH  31  32
ENDBRANCH  30  31
ENDBRANCH  23  25
ENDBRANCH  20  21
ENDBRANCH   6  20
TORSDOF 7
ENDMDL
MODEL 2
REMARK VINA RESULT:      -8.2      1.513      2.884
REMARK  Name = 
REMARK  8 active torsions:
REMARK  status: ('A' for Active; 'I' for Inactive)
REMARK    1  A    between atoms: C_1  and  C_2
REMARK    2  A    between atoms: C_2  and  C_3
REMARK    3  A    between atoms: N_16  and  C_17
REMARK    4  A    between atoms: C_17  and  C_18
REMARK    5  A    between atoms: N_20  and  C_21
REMARK    6  A    between atoms: C_26  and  S_27
REMARK    7  A    between atoms: S_27  and  C_28
REMARK    8  A    between atoms: C_28  and  C_29
REMARK                            x       y       z     vdW  Elec       q    Type
REMARK                         _______ _______ _______ _____ _____    ______ ____
ROOT
ATOM      1  C   UNL     1       1.091  12.076  19.659  0.00  0.00    +0.000 C 
ATOM      2  C   UNL     1       0.551  10.694  19.279  0.00  0.00    +0.000 C 
ATOM      3  N   UNL     1       1.441   9.993  18.374  0.00  0.00    +0.000 N 
ATOM      4  C   UNL     1       1.795   8.754  18.839  0.00  0.00    +0.000 C 
ATOM      5  O   UNL     1       2.403   7.919  18.191  0.00  0.00    +0.000 OA
ATOM      6  N   UNL     1       1.362   8.624  20.116  0.00  0.00    +0.000 N 
ATOM      7  C   UNL     1       0.673   9.743  20.497  0.00  0.00    +0.000 C 
ATOM      8  O   UNL     1       0.219   9.947  21.617  0.00  0.00    +0.000 OA
ATOM      9  H   UNL     1       1.576  10.222  17.398  0.00  0.00    +0.000 HD
ENDROOT
BRANCH   2  10
ATOM     10  C   UNL     1      -0.833  10.773  18.645  0.00  0.00    +0.000 A 
ATOM     11  C   UNL     1      -1.118   9.995  17.502  0.00  0.00    +0.000 A 
ATOM     12  C   UNL     1      -2.381  10.012  16.907  0.00  0.00    +0.000 A 
ATOM     13  C   UNL     1      -3.388  10.802  17.447  0.00  0.00    +0.000 A 
ATOM     14  C   UNL     1      -3.136  11.559  18.593  0.00  0.00    +0.000 A 
ATOM     15  C   UNL     1      -1.866  11.563  19.176  0.00  0.00    +0.000 A 
ATOM     16  O   UNL     1      -4.093  12.326  19.207  0.00  0.00    +0.000 OA
ATOM     17  C   UNL     1      -5.406  11.937  18.787  0.00  0.00    +0.000 C 
ATOM     18  C   UNL     1      -5.465  11.816  17.273  0.00  0.00    +0.000 C 
ATOM     19  O   UNL     1      -4.601  10.772  16.811  0.00  0.00    +0.000 OA
ENDBRANCH   2  10
BRANCH   6  20
ATOM     20  C   UNL     1       1.780   7.564  21.006  0.00  0.00    +0.000 C 
BRANCH  20  21
ATOM     21  C   UNL     1       1.760   6.143  20.449  0.00  0.00    +0.000 C 
ATOM     22  O   UNL     1       0.711   5.499  20.523  0.00  0.00    +0.000 OA
ATOM     23  N   UNL     1       2.969   5.605  20.043  0.00  0.00    +0.000 N 
ATOM     24  H   UNL     1       3.826   6.064  20.340  0.00  0.00    +0.000 HD
BRANCH  23  25
ATOM     25  C   UNL     1       3.125   4.364  19.361  0.00  0.00    +0.000 A 
ATOM     26  C   UNL     1       2.394   3.226  19.725  0.00  0.00    +0.000 A 
ATOM     27  C   UNL     1       2.537   2.019  19.035  0.00  0.00    +0.000 A 
ATOM     28  C   UNL     1       3.394   1.933  17.946  0.00  0.00    +0.000 A 
ATOM     29  C   UNL     1       4.123   3.055  17.557  0.00  0.00    +0.000 A 
ATOM     30  C   UNL     1       4.009   4.264  18.268  0.00  0.00    +0.000 A 
BRANCH  30  31
ATOM     31  S   UNL     1       5.105   5.597  17.802  0.00  0.00    +0.000 S 
BRANCH  31  32
ATOM     32  C   UNL     1       6.534   4.565  17.300  0.00  0.00    +0.000 C 
BRANCH  32  33
ATOM     33  C   UNL     1       7.020   4.945  15.912  0.00  0.00    +0.000 C 
ATOM     34  N   UNL     1       7.422   5.261  14.759  0.00  0.00    +0.000 NA
ENDBRANCH  32  33
ENDBRANCH  31  32
ENDBRANCH  30  31
ENDBRANCH  23  25
ENDBRANCH  20  21
ENDBRANCH   6  20
TORSDOF 7
ENDMDL
MODEL 3
REMARK VINA RESULT:      -7.9      1.809      3.084
REMARK  Name = 
REMARK  8 active torsions:
REMARK  status: ('A' for Active; 'I' for Inactive)
REMARK    1  A    between atoms: C_1  and  C_2
REMARK    2  A    between atoms: C_2  and  C_3
REMARK    3  A    between atoms: N_16  and  C_17
REMARK    4  A    between atoms: C_17  and  C_18
REMARK    5  A    between atoms: N_20  and  C_21
REMARK    6  A    between atoms: C_26  and  S_27
REMARK    7  A    between atoms: S_27  and  C_28
REMARK    8  A    between atoms: C_28  and  C_29
REMARK                            x       y       z     vdW  Elec       q    Type
REMARK                         _______ _______ _______ _____ _____    ______ ____
ROOT
ATOM      1  C   UNL     1       1.147  11.612  20.113  0.00  0.00    +0.000 C 
ATOM      2  C   UNL     1       0.779  10.428  19.213  0.00  0.00    +0.000 C 
ATOM      3  N   UNL     1       1.734  10.247  18.136  0.00  0.00    +0.000 N 
ATOM      4  C   UNL     1       2.251   8.979  18.099  0.00  0.00    +0.000 C 
ATOM      5  O   UNL     1       2.948   8.542  17.199  0.00  0.00    +0.000 OA
ATOM      6  N   UNL     1       1.861   8.313  19.213  0.00  0.00    +0.000 N 
ATOM      7  C   UNL     1       1.042   9.103  19.974  0.00  0.00    +0.000 C 
ATOM      8  O   UNL     1       0.587   8.801  21.069  0.00  0.00    +0.000 OA
ATOM      9  H   UNL     1       1.821  10.851  17.329  0.00  0.00    +0.000 HD
ENDROOT
BRANCH   2  10
ATOM     10  C   UNL     1      -0.615  10.574  18.614  0.00  0.00    +0.000 A 
ATOM     11  C   UNL     1      -0.963   9.819  17.473  0.00  0.00    +0.000 A 
ATOM     12  C   UNL     1      -2.238   9.896  16.909  0.00  0.00    +0.000 A 
ATOM     13  C   UNL     1      -3.195  10.727  17.480  0.00  0.00    +0.000 A 
ATOM     14  C   UNL     1      -2.881  11.463  18.624  0.00  0.00    +0.000 A 
ATOM     15  C   UNL     1      -1.599  11.405  19.176  0.00  0.00    +0.000 A 
ATOM     16  O   UNL     1      -3.788  12.266  19.268  0.00  0.00    +0.000 OA
ATOM     17  C   UNL     1      -5.126  11.939  18.877  0.00  0.00    +0.000 C 
ATOM     18  C   UNL     1      -5.228  11.834  17.365  0.00  0.00    +0.000 C 
ATOM     19  O   UNL     1      -4.423  10.756  16.874  0.00  0.00    +0.000 OA
ENDBRANCH   2  10
BRANCH   6  20
ATOM     20  C   UNL     1       2.426   7.052  19.638  0.00  0.00    +0.000 C 
BRANCH  20  21
ATOM     21  C   UNL     1       2.970   6.134  18.547  0.00  0.00    +0.000 C 
ATOM     22  O   UNL     1       2.175   5.423  17.929  0.00  0.00    +0.000 OA
ATOM     23  N   UNL     1       4.346   6.033  18.432  0.00  0.00    +0.000 N 
ATOM     24  H   UNL     1       4.922   6.372  19.199  0.00  0.00    +0.000 HD
BRANCH  23  25
ATOM     25  C   UNL     1       5.033   5.354  17.386  0.00  0.00    +0.000 A 
ATOM     26  C   UNL     1       4.359   4.525  16.478  0.00  0.00    +0.000 A 
ATOM     27  C   UNL     1       5.036   3.880  15.441  0.00  0.00    +0.000 A 
ATOM     28  C   UNL     1       6.401   4.073  15.271  0.00  0.00    +0.000 A 
ATOM     29  C   UNL     1       7.091   4.902  16.153  0.00  0.00    +0.000 A 
ATOM     30  C   UNL     1       6.421   5.527  17.220  0.00  0.00    +0.000 A 
BRANCH  30  31
ATOM     31  S   UNL     1       7.416   6.434  18.397  0.00  0.00    +0.000 S 
BRANCH  31  32
ATOM     32  C   UNL     1       7.600   7.972  17.416  0.00  0.00    +0.000 C 
BRANCH  32  33
ATOM     33  C   UNL     1       8.336   9.039  18.209  0.00  0.00    +0.000 C 
ATOM     34  N   UNL     1       8.948   9.923  18.868  0.00  0.00    +0.000 NA
ENDBRANCH  32  33
ENDBRANCH  31  32
ENDBRANCH  30  31
ENDBRANCH  23  25
ENDBRANCH  20  21
ENDBRANCH   6  20
TORSDOF 7
ENDMDL
MODEL 4
REMARK VINA RESULT:      -7.7      3.154      5.494
REMARK  Name = 
REMARK  8 active torsions:
REMARK  status: ('A' for Active; 'I' for Inactive)
REMARK    1  A    between atoms: C_1  and  C_2
REMARK    2  A    between atoms: C_2  and  C_3
REMARK    3  A    between atoms: N_16  and  C_17
REMARK    4  A    between atoms: C_17  and  C_18
REMARK    5  A    between atoms: N_20  and  C_21
REMARK    6  A    between atoms: C_26  and  S_27
REMARK    7  A    between atoms: S_27  and  C_28
REMARK    8  A    between atoms: C_28  and  C_29
REMARK                            x       y       z     vdW  Elec       q    Type
REMARK                         _______ _______ _______ _____ _____    ______ ____
ROOT
ATOM      1  C   UNL     1      -1.409  11.308  18.535  0.00  0.00    +0.000 C 
ATOM      2  C   UNL     1      -0.300  11.690  19.521  0.00  0.00    +0.000 C 
ATOM      3  N   UNL     1      -0.789  11.769  20.884  0.00  0.00    +0.000 N 
ATOM      4  C   UNL     1      -0.071  10.982  21.747  0.00  0.00    +0.000 C 
ATOM      5  O   UNL     1      -0.190  11.000  22.960  0.00  0.00    +0.000 OA
ATOM      6  N   UNL     1       0.771  10.200  21.030  0.00  0.00    +0.000 N 
ATOM      7  C   UNL     1       0.666  10.491  19.696  0.00  0.00    +0.000 C 
ATOM      8  O   UNL     1       1.253   9.903  18.797  0.00  0.00    +0.000 OA
ATOM      9  H   UNL     1      -1.382  12.503  21.247  0.00  0.00    +0.000 HD
ENDROOT
BRANCH   2  10
ATOM     10  C   UNL     1       0.359  13.016  19.158  0.00  0.00    +0.000 A 
ATOM     11  C   UNL     1      -0.386  14.211  19.252  0.00  0.00    +0.000 A 
ATOM     12  C   UNL     1       0.185  15.450  18.960  0.00  0.00    +0.000 A 
ATOM     13  C   UNL     1       1.518  15.521  18.573  0.00  0.00    +0.000 A 
ATOM     14  C   UNL     1       2.281  14.355  18.498  0.00  0.00    +0.000 A 
ATOM     15  C   UNL     1       1.705  13.111  18.767  0.00  0.00    +0.000 A 
ATOM     16  O   UNL     1       3.614  14.353  18.168  0.00  0.00    +0.000 OA
ATOM     17  C   UNL     1       4.177  15.662  18.316  0.00  0.00    +0.000 C 
ATOM     18  C   UNL     1       3.289  16.701  17.652  0.00  0.00    +0.000 C 
ATOM     19  O   UNL     1       2.013  16.769  18.299  0.00  0.00    +0.000 OA
ENDBRANCH   2  10
BRANCH   6  20
ATOM     20  C   UNL     1       1.486   9.070  21.579  0.00  0.00    +0.000 C 
BRANCH  20  21
ATOM     21  C   UNL     1       1.095   7.687  21.064  0.00  0.00    +0.000 C 
ATOM     22  O   UNL     1      -0.084   7.339  21.157  0.00  0.00    +0.000 OA
ATOM     23  N   UNL     1       2.121   6.843  20.675  0.00  0.00    +0.000 N 
ATOM     24  H   UNL     1       3.070   7.072  20.959  0.00  0.00    +0.000 HD
BRANCH  23  25
ATOM     25  C   UNL     1       1.946   5.585  20.030  0.00  0.00    +0.000 A 
ATOM     26  C   UNL     1       1.246   4.535  20.640  0.00  0.00    +0.000 A 
ATOM     27  C   UNL     1       1.060   3.312  19.991  0.00  0.00    +0.000 A 
ATOM     28  C   UNL     1       1.545   3.123  18.703  0.00  0.00    +0.000 A 
ATOM     29  C   UNL     1       2.234   4.156  18.072  0.00  0.00    +0.000 A 
ATOM     30  C   UNL     1       2.454   5.378  18.732  0.00  0.00    +0.000 A 
BRANCH  30  31
ATOM     31  S   UNL     1       3.491   6.581  17.911  0.00  0.00    +0.000 S 
BRANCH  31  32
ATOM     32  C   UNL     1       5.107   5.812  18.308  0.00  0.00    +0.000 C 
BRANCH  32  33
ATOM     33  C   UNL     1       6.177   6.255  17.324  0.00  0.00    +0.000 C 
ATOM     34  N   UNL     1       7.065   6.624  16.508  0.00  0.00    +0.000 NA
ENDBRANCH  32  33
ENDBRANCH  31  32
ENDBRANCH  30  31
ENDBRANCH  23  25
ENDBRANCH  20  21
ENDBRANCH   6  20
TORSDOF 7
ENDMDL
MODEL 5
REMARK VINA RESULT:      -7.6      2.856      4.541
REMARK  Name = 
REMARK  8 active torsions:
REMARK  status: ('A' for Active; 'I' for Inactive)
REMARK    1  A    between atoms: C_1  and  C_2
REMARK    2  A    between atoms: C_2  and  C_3
REMARK    3  A    between atoms: N_16  and  C_17
REMARK    4  A    between atoms: C_17  and  C_18
REMARK    5  A    between atoms: N_20  and  C_21
REMARK    6  A    between atoms: C_26  and  S_27
REMARK    7  A    between atoms: S_27  and  C_28
REMARK    8  A    between atoms: C_28  and  C_29
REMARK                            x       y       z     vdW  Elec       q    Type
REMARK                         _______ _______ _______ _____ _____    ______ ____
ROOT
ATOM      1  C   UNL     1      -0.564  13.931  18.997  0.00  0.00    +0.000 C 
ATOM      2  C   UNL     1      -0.801  12.479  19.425  0.00  0.00    +0.000 C 
ATOM      3  N   UNL     1      -1.457  11.707  18.388  0.00  0.00    +0.000 N 
ATOM      4  C   UNL     1      -0.765  10.571  18.059  0.00  0.00    +0.000 C 
ATOM      5  O   UNL     1      -1.189   9.688  17.333  0.00  0.00    +0.000 OA
ATOM      6  N   UNL     1       0.444  10.603  18.668  0.00  0.00    +0.000 N 
ATOM      7  C   UNL     1       0.553  11.723  19.447  0.00  0.00    +0.000 C 
ATOM      8  O   UNL     1       1.554  12.060  20.065  0.00  0.00    +0.000 OA
ATOM      9  H   UNL     1      -2.429  11.800  18.121  0.00  0.00    +0.000 HD
ENDROOT
BRANCH   2  10
ATOM     10  C   UNL     1      -1.625  12.384  20.704  0.00  0.00    +0.000 A 
ATOM     11  C   UNL     1      -1.141  11.617  21.787  0.00  0.00    +0.000 A 
ATOM     12  C   UNL     1      -1.846  11.527  22.988  0.00  0.00    +0.000 A 
ATOM     13  C   UNL     1      -3.048  12.209  23.134  0.00  0.00    +0.000 A 
ATOM     14  C   UNL     1      -3.532  12.994  22.086  0.00  0.00    +0.000 A 
ATOM     15  C   UNL     1      -2.840  13.066  20.875  0.00  0.00    +0.000 A 
ATOM     16  O   UNL     1      -4.687  13.731  22.176  0.00  0.00    +0.000 OA
ATOM     17  C   UNL     1      -5.075  13.906  23.543  0.00  0.00    +0.000 C 
ATOM     18  C   UNL     1      -5.027  12.579  24.283  0.00  0.00    +0.000 C 
ATOM     19  O   UNL     1      -3.689  12.075  24.338  0.00  0.00    +0.000 OA
ENDBRANCH   2  10
BRANCH   6  20
ATOM     20  C   UNL     1       1.534   9.709  18.345  0.00  0.00    +0.000 C 
BRANCH  20  21
ATOM     21  C   UNL     1       1.697   8.470  19.222  0.00  0.00    +0.000 C 
ATOM     22  O   UNL     1       1.304   8.523  20.390  0.00  0.00    +0.000 OA
ATOM     23  N   UNL     1       2.428   7.417  18.700  0.00  0.00    +0.000 N 
ATOM     24  H   UNL     1       3.009   7.589  17.884  0.00  0.00    +0.000 HD
BRANCH  23  25
ATOM     25  C   UNL     1       2.556   6.132  19.301  0.00  0.00    +0.000 A 
ATOM     26  C   UNL     1       1.861   5.792  20.470  0.00  0.00    +0.000 A 
ATOM     27  C   UNL     1       1.975   4.522  21.040  0.00  0.00    +0.000 A 
ATOM     28  C   UNL     1       2.765   3.553  20.437  0.00  0.00    +0.000 A 
ATOM     29  C   UNL     1       3.456   3.863  19.268  0.00  0.00    +0.000 A 
ATOM     30  C   UNL     1       3.373   5.150  18.707  0.00  0.00    +0.000 A 
BRANCH  30  31
ATOM     31  S   UNL     1       4.424   5.505  17.304  0.00  0.00    +0.000 S 
BRANCH  31  32
ATOM     32  C   UNL     1       5.997   5.688  18.229  0.00  0.00    +0.000 C 
BRANCH  32  33
ATOM     33  C   UNL     1       6.884   6.744  17.590  0.00  0.00    +0.000 C 
ATOM     34  N   UNL     1       7.621   7.619  17.060  0.00  0.00    +0.000 NA
ENDBRANCH  32  33
ENDBRANCH  31  32
ENDBRANCH  30  31
ENDBRANCH  23  25
ENDBRANCH  20  21
ENDBRANCH   6  20
TORSDOF 7
ENDMDL
MODEL 6
REMARK VINA RESULT:      -7.6      1.736      2.922
REMARK  Name = 
REMARK  8 active torsions:
REMARK  status: ('A' for Active; 'I' for Inactive)
REMARK    1  A    between atoms: C_1  and  C_2
REMARK    2  A    between atoms: C_2  and  C_3
REMARK    3  A    between atoms: N_16  and  C_17
REMARK    4  A    between atoms: C_17  and  C_18
REMARK    5  A    between atoms: N_20  and  C_21
REMARK    6  A    between atoms: C_26  and  S_27
REMARK    7  A    between atoms: S_27  and  C_28
REMARK    8  A    between atoms: C_28  and  C_29
REMARK                            x       y       z     vdW  Elec       q    Type
REMARK                         _______ _______ _______ _____ _____    ______ ____
ROOT
ATOM      1  C   UNL     1       1.318  11.112  20.777  0.00  0.00    +0.000 C 
ATOM      2  C   UNL     1       0.869  10.121  19.698  0.00  0.00    +0.000 C 
ATOM      3  N   UNL     1       1.849   9.994  18.636  0.00  0.00    +0.000 N 
ATOM      4  C   UNL     1       2.230   8.695  18.424  0.00  0.00    +0.000 C 
ATOM      5  O   UNL     1       2.917   8.319  17.490  0.00  0.00    +0.000 OA
ATOM      6  N   UNL     1       1.719   7.921  19.412  0.00  0.00    +0.000 N 
ATOM      7  C   UNL     1       0.954   8.679  20.258  0.00  0.00    +0.000 C 
ATOM      8  O   UNL     1       0.419   8.271  21.281  0.00  0.00    +0.000 OA
ATOM      9  H   UNL     1       2.037  10.696  17.933  0.00  0.00    +0.000 HD
ENDROOT
BRANCH   2  10
ATOM     10  C   UNL     1      -0.472  10.508  19.086  0.00  0.00    +0.000 A 
ATOM     11  C   UNL     1      -1.335  11.374  19.794  0.00  0.00    +0.000 A 
ATOM     12  C   UNL     1      -2.559  11.779  19.258  0.00  0.00    +0.000 A 
ATOM     13  C   UNL     1      -2.942  11.334  17.999  0.00  0.00    +0.000 A 
ATOM     14  C   UNL     1      -2.093  10.499  17.270  0.00  0.00    +0.000 A 
ATOM     15  C   UNL     1      -0.879  10.072  17.814  0.00  0.00    +0.000 A 
ATOM     16  O   UNL     1      -2.385  10.057  16.004  0.00  0.00    +0.000 OA
ATOM     17  C   UNL     1      -3.412  10.858  15.409  0.00  0.00    +0.000 C 
ATOM     18  C   UNL     1      -4.570  11.041  16.375  0.00  0.00    +0.000 C 
ATOM     19  O   UNL     1      -4.156  11.769  17.536  0.00  0.00    +0.000 OA
ENDBRANCH   2  10
BRANCH   6  20
ATOM     20  C   UNL     1       2.126   6.557  19.660  0.00  0.00    +0.000 C 
BRANCH  20  21
ATOM     21  C   UNL     1       2.712   5.784  18.481  0.00  0.00    +0.000 C 
ATOM     22  O   UNL     1       1.937   5.189  17.727  0.00  0.00    +0.000 OA
ATOM     23  N   UNL     1       4.089   5.660  18.426  0.00  0.00    +0.000 N 
ATOM     24  H   UNL     1       4.627   5.871  19.263  0.00  0.00    +0.000 HD
BRANCH  23  25
ATOM     25  C   UNL     1       4.819   5.113  17.332  0.00  0.00    +0.000 A 
ATOM     26  C   UNL     1       4.563   3.824  16.846  0.00  0.00    +0.000 A 
ATOM     27  C   UNL     1       5.269   3.304  15.758  0.00  0.00    +0.000 A 
ATOM     28  C   UNL     1       6.227   4.075  15.113  0.00  0.00    +0.000 A 
ATOM     29  C   UNL     1       6.491   5.364  15.570  0.00  0.00    +0.000 A 
ATOM     30  C   UNL     1       5.809   5.881  16.686  0.00  0.00    +0.000 A 
BRANCH  30  31
ATOM     31  S   UNL     1       6.332   7.476  17.303  0.00  0.00    +0.000 S 
BRANCH  31  32
ATOM     32  C   UNL     1       7.943   6.944  17.997  0.00  0.00    +0.000 C 
BRANCH  32  33
ATOM     33  C   UNL     1       7.745   6.030  19.195  0.00  0.00    +0.000 C 
ATOM     34  N   UNL     1       7.581   5.273  20.190  0.00  0.00    +0.000 NA
ENDBRANCH  32  33
ENDBRANCH  31  32
ENDBRANCH  30  31
ENDBRANCH  23  25
ENDBRANCH  20  21
ENDBRANCH   6  20
TORSDOF 7
ENDMDL
MODEL 7
REMARK VINA RESULT:      -7.5      2.233      3.610
REMARK  Name = 
REMARK  8 active torsions:
REMARK  status: ('A' for Active; 'I' for Inactive)
REMARK    1  A    between atoms: C_1  and  C_2
REMARK    2  A    between atoms: C_2  and  C_3
REMARK    3  A    between atoms: N_16  and  C_17
REMARK    4  A    between atoms: C_17  and  C_18
REMARK    5  A    between atoms: N_20  and  C_21
REMARK    6  A    between atoms: C_26  and  S_27
REMARK    7  A    between atoms: S_27  and  C_28
REMARK    8  A    between atoms: C_28  and  C_29
REMARK                            x       y       z     vdW  Elec       q    Type
REMARK                         _______ _______ _______ _____ _____    ______ ____
ROOT
ATOM      1  C   UNL     1      -0.812  10.065  17.548  0.00  0.00    +0.000 C 
ATOM      2  C   UNL     1       0.239  10.276  18.642  0.00  0.00    +0.000 C 
ATOM      3  N   UNL     1      -0.266   9.923  19.955  0.00  0.00    +0.000 N 
ATOM      4  C   UNL     1       0.528   9.008  20.597  0.00  0.00    +0.000 C 
ATOM      5  O   UNL     1       0.399   8.678  21.763  0.00  0.00    +0.000 OA
ATOM      6  N   UNL     1       1.459   8.549  19.727  0.00  0.00    +0.000 N 
ATOM      7  C   UNL     1       1.333   9.184  18.520  0.00  0.00    +0.000 C 
ATOM      8  O   UNL     1       1.990   8.933  17.518  0.00  0.00    +0.000 OA
ATOM      9  H   UNL     1      -0.941  10.461  20.482  0.00  0.00    +0.000 HD
ENDROOT
BRANCH   2  10
ATOM     10  C   UNL     1       0.748  11.712  18.682  0.00  0.00    +0.000 A 
ATOM     11  C   UNL     1       2.120  11.969  18.471  0.00  0.00    +0.000 A 
ATOM     12  C   UNL     1       2.625  13.270  18.467  0.00  0.00    +0.000 A 
ATOM     13  C   UNL     1       1.766  14.344  18.667  0.00  0.00    +0.000 A 
ATOM     14  C   UNL     1       0.401  14.115  18.852  0.00  0.00    +0.000 A 
ATOM     15  C   UNL     1      -0.102  12.812  18.880  0.00  0.00    +0.000 A 
ATOM     16  O   UNL     1      -0.512  15.127  19.009  0.00  0.00    +0.000 OA
ATOM     17  C   UNL     1       0.031  16.376  18.564  0.00  0.00    +0.000 C 
ATOM     18  C   UNL     1       1.421  16.587  19.139  0.00  0.00    +0.000 C 
ATOM     19  O   UNL     1       2.329  15.593  18.653  0.00  0.00    +0.000 OA
ENDBRANCH   2  10
BRANCH   6  20
ATOM     20  C   UNL     1       2.293   7.394  19.972  0.00  0.00    +0.000 C 
BRANCH  20  21
ATOM     21  C   UNL     1       2.681   6.550  18.761  0.00  0.00    +0.000 C 
ATOM     22  O   UNL     1       1.795   5.924  18.175  0.00  0.00    +0.000 OA
ATOM     23  N   UNL     1       4.032   6.407  18.496  0.00  0.00    +0.000 N 
ATOM     24  H   UNL     1       4.697   6.659  19.223  0.00  0.00    +0.000 HD
BRANCH  23  25
ATOM     25  C   UNL     1       4.577   5.792  17.332  0.00  0.00    +0.000 A 
ATOM     26  C   UNL     1       4.909   6.535  16.192  0.00  0.00    +0.000 A 
ATOM     27  C   UNL     1       5.464   5.927  15.063  0.00  0.00    +0.000 A 
ATOM     28  C   UNL     1       5.727   4.564  15.062  0.00  0.00    +0.000 A 
ATOM     29  C   UNL     1       5.417   3.805  16.189  0.00  0.00    +0.000 A 
ATOM     30  C   UNL     1       4.827   4.405  17.316  0.00  0.00    +0.000 A 
BRANCH  30  31
ATOM     31  S   UNL     1       4.311   3.327  18.646  0.00  0.00    +0.000 S 
BRANCH  31  32
ATOM     32  C   UNL     1       2.986   2.447  17.736  0.00  0.00    +0.000 C 
BRANCH  32  33
ATOM     33  C   UNL     1       1.691   2.440  18.531  0.00  0.00    +0.000 C 
ATOM     34  N   UNL     1       0.617   2.434  19.192  0.00  0.00    +0.000 NA
ENDBRANCH  32  33
ENDBRANCH  31  32
ENDBRANCH  30  31
ENDBRANCH  23  25
ENDBRANCH  20  21
ENDBRANCH   6  20
TORSDOF 7
ENDMDL
MODEL 8
REMARK VINA RESULT:      -7.5      3.090      9.387
REMARK  Name = 
REMARK  8 active torsions:
REMARK  status: ('A' for Active; 'I' for Inactive)
REMARK    1  A    between atoms: C_1  and  C_2
REMARK    2  A    between atoms: C_2  and  C_3
REMARK    3  A    between atoms: N_16  and  C_17
REMARK    4  A    between atoms: C_17  and  C_18
REMARK    5  A    between atoms: N_20  and  C_21
REMARK    6  A    between atoms: C_26  and  S_27
REMARK    7  A    between atoms: S_27  and  C_28
REMARK    8  A    between atoms: C_28  and  C_29
REMARK                            x       y       z     vdW  Elec       q    Type
REMARK                         _______ _______ _______ _____ _____    ______ ____
ROOT
ATOM      1  C   UNL     1       1.416   4.807  17.967  0.00  0.00    +0.000 C 
ATOM      2  C   UNL     1       2.403   5.847  18.508  0.00  0.00    +0.000 C 
ATOM      3  N   UNL     1       2.160   7.165  17.954  0.00  0.00    +0.000 N 
ATOM      4  C   UNL     1       1.987   8.119  18.923  0.00  0.00    +0.000 C 
ATOM      5  O   UNL     1       1.926   9.318  18.710  0.00  0.00    +0.000 OA
ATOM      6  N   UNL     1       1.898   7.509  20.128  0.00  0.00    +0.000 N 
ATOM      7  C   UNL     1       2.062   6.157  19.988  0.00  0.00    +0.000 C 
ATOM      8  O   UNL     1       1.966   5.336  20.891  0.00  0.00    +0.000 OA
ATOM      9  H   UNL     1       2.367   7.444  17.004  0.00  0.00    +0.000 HD
ENDROOT
BRANCH   2  10
ATOM     10  C   UNL     1       3.852   5.459  18.236  0.00  0.00    +0.000 A 
ATOM     11  C   UNL     1       4.225   5.027  16.945  0.00  0.00    +0.000 A 
ATOM     12  C   UNL     1       5.546   4.692  16.643  0.00  0.00    +0.000 A 
ATOM     13  C   UNL     1       6.524   4.789  17.625  0.00  0.00    +0.000 A 
ATOM     14  C   UNL     1       6.182   5.238  18.902  0.00  0.00    +0.000 A 
ATOM     15  C   UNL     1       4.857   5.551  19.213  0.00  0.00    +0.000 A 
ATOM     16  O   UNL     1       7.102   5.403  19.907  0.00  0.00    +0.000 OA
ATOM     17  C   UNL     1       8.432   5.451  19.379  0.00  0.00    +0.000 C 
ATOM     18  C   UNL     1       8.656   4.311  18.399  0.00  0.00    +0.000 C 
ATOM     19  O   UNL     1       7.798   4.442  17.260  0.00  0.00    +0.000 OA
ENDBRANCH   2  10
BRANCH   6  20
ATOM     20  C   UNL     1       1.454   8.169  21.336  0.00  0.00    +0.000 C 
BRANCH  20  21
ATOM     21  C   UNL     1       0.118   8.904  21.272  0.00  0.00    +0.000 C 
ATOM     22  O   UNL     1      -0.907   8.283  21.559  0.00  0.00    +0.000 OA
ATOM     23  N   UNL     1       0.123  10.180  20.735  0.00  0.00    +0.000 N 
ATOM     24  H   UNL     1       0.937  10.479  20.204  0.00  0.00    +0.000 HD
BRANCH  23  25
ATOM     25  C   UNL     1      -0.988  11.072  20.735  0.00  0.00    +0.000 A 
ATOM     26  C   UNL     1      -1.390  11.750  21.894  0.00  0.00    +0.000 A 
ATOM     27  C   UNL     1      -2.466  12.640  21.880  0.00  0.00    +0.000 A 
ATOM     28  C   UNL     1      -3.148  12.894  20.697  0.00  0.00    +0.000 A 
ATOM     29  C   UNL     1      -2.760  12.241  19.529  0.00  0.00    +0.000 A 
ATOM     30  C   UNL     1      -1.699  11.318  19.543  0.00  0.00    +0.000 A 
BRANCH  30  31
ATOM     31  S   UNL     1      -1.382  10.405  18.039  0.00  0.00    +0.000 S 
BRANCH  31  32
ATOM     32  C   UNL     1      -3.125  10.220  17.503  0.00  0.00    +0.000 C 
BRANCH  32  33
ATOM     33  C   UNL     1      -3.245  10.328  15.992  0.00  0.00    +0.000 C 
ATOM     34  N   UNL     1      -3.343  10.418  14.738  0.00  0.00    +0.000 NA
ENDBRANCH  32  33
ENDBRANCH  31  32
ENDBRANCH  30  31
ENDBRANCH  23  25
ENDBRANCH  20  21
ENDBRANCH   6  20
TORSDOF 7
ENDMDL
MODEL 9
REMARK VINA RESULT:      -7.4      2.359      3.961
REMARK  Name = 
REMARK  8 active torsions:
REMARK  status: ('A' for Active; 'I' for Inactive)
REMARK    1  A    between atoms: C_1  and  C_2
REMARK    2  A    between atoms: C_2  and  C_3
REMARK    3  A    between atoms: N_16  and  C_17
REMARK    4  A    between atoms: C_17  and  C_18
REMARK    5  A    between atoms: N_20  and  C_21
REMARK    6  A    between atoms: C_26  and  S_27
REMARK    7  A    between atoms: S_27  and  C_28
REMARK    8  A    between atoms: C_28  and  C_29
REMARK                            x       y       z     vdW  Elec       q    Type
REMARK                         _______ _______ _______ _____ _____    ______ ____
ROOT
ATOM      1  C   UNL     1      -0.908  10.016  17.457  0.00  0.00    +0.000 C 
ATOM      2  C   UNL     1       0.092  10.300  18.583  0.00  0.00    +0.000 C 
ATOM      3  N   UNL     1      -0.417   9.885  19.877  0.00  0.00    +0.000 N 
ATOM      4  C   UNL     1       0.436   9.033  20.529  0.00  0.00    +0.000 C 
ATOM      5  O   UNL     1       0.304   8.675  21.687  0.00  0.00    +0.000 OA
ATOM      6  N   UNL     1       1.426   8.668  19.680  0.00  0.00    +0.000 N 
ATOM      7  C   UNL     1       1.278   9.307  18.479  0.00  0.00    +0.000 C 
ATOM      8  O   UNL     1       1.980   9.128  17.492  0.00  0.00    +0.000 OA
ATOM      9  H   UNL     1      -1.149  10.356  20.392  0.00  0.00    +0.000 HD
ENDROOT
BRANCH   2  10
ATOM     10  C   UNL     1       0.474  11.773  18.655  0.00  0.00    +0.000 A 
ATOM     11  C   UNL     1      -0.541  12.755  18.644  0.00  0.00    +0.000 A 
ATOM     12  C   UNL     1      -0.239  14.115  18.739  0.00  0.00    +0.000 A 
ATOM     13  C   UNL     1       1.085  14.521  18.853  0.00  0.00    +0.000 A 
ATOM     14  C   UNL     1       2.103  13.566  18.892  0.00  0.00    +0.000 A 
ATOM     15  C   UNL     1       1.805  12.206  18.773  0.00  0.00    +0.000 A 
ATOM     16  O   UNL     1       3.427  13.890  19.050  0.00  0.00    +0.000 OA
ATOM     17  C   UNL     1       3.569  15.221  19.559  0.00  0.00    +0.000 C 
ATOM     18  C   UNL     1       2.696  16.187  18.774  0.00  0.00    +0.000 C 
ATOM     19  O   UNL     1       1.309  15.870  18.940  0.00  0.00    +0.000 OA
ENDBRANCH   2  10
BRANCH   6  20
ATOM     20  C   UNL     1       2.348   7.584  19.934  0.00  0.00    +0.000 C 
BRANCH  20  21
ATOM     21  C   UNL     1       2.718   6.697  18.749  0.00  0.00    +0.000 C 
ATOM     22  O   UNL     1       1.812   6.130  18.136  0.00  0.00    +0.000 OA
ATOM     23  N   UNL     1       4.065   6.452  18.537  0.00  0.00    +0.000 N 
ATOM     24  H   UNL     1       4.718   6.665  19.287  0.00  0.00    +0.000 HD
BRANCH  23  25
ATOM     25  C   UNL     1       4.606   5.783  17.403  0.00  0.00    +0.000 A 
ATOM     26  C   UNL     1       4.841   6.451  16.194  0.00  0.00    +0.000 A 
ATOM     27  C   UNL     1       5.394   5.792  15.094  0.00  0.00    +0.000 A 
ATOM     28  C   UNL     1       5.751   4.453  15.188  0.00  0.00    +0.000 A 
ATOM     29  C   UNL     1       5.538   3.770  16.382  0.00  0.00    +0.000 A 
ATOM     30  C   UNL     1       4.951   4.418  17.484  0.00  0.00    +0.000 A 
BRANCH  30  31
ATOM     31  S   UNL     1       4.562   3.420  18.915  0.00  0.00    +0.000 S 
BRANCH  31  32
ATOM     32  C   UNL     1       3.522   2.176  18.060  0.00  0.00    +0.000 C 
BRANCH  32  33
ATOM     33  C   UNL     1       2.045   2.492  18.232  0.00  0.00    +0.000 C 
ATOM     34  N   UNL     1       0.819   2.752  18.374  0.00  0.00    +0.000 NA
ENDBRANCH  32  33
ENDBRANCH  31  32
ENDBRANCH  30  31
ENDBRANCH  23  25
ENDBRANCH  20  21
ENDBRANCH   6  20
TORSDOF 7
ENDMDL
