MODEL 1
REMARK VINA RESULT:      -7.6      0.000      0.000
REMARK  Name = 
REMARK  5 active torsions:
REMARK  status: ('A' for Active; 'I' for Inactive)
REMARK    1  A    between atoms: C_2  and  C_3
REMARK    2  A    between atoms: C_3  and  N_4
REMARK    3  A    between atoms: C_5  and  C_7
REMARK    4  A    between atoms: N_13  and  C_14
REMARK    5  A    between atoms: C_14  and  C_15
REMARK                            x       y       z     vdW  Elec       q    Type
REMARK                         _______ _______ _______ _____ _____    ______ ____
ROOT
ATOM      1  O   UNL     1       2.495   2.641  21.845  0.00  0.00    +0.000 OA
ATOM      2  C   UNL     1       3.080   3.078  20.856  0.00  0.00    +0.000 C 
ATOM      3  N   UNL     1       2.910   4.353  20.368  0.00  0.00    +0.000 N 
ATOM      4  H   UNL     1       3.573   4.701  19.681  0.00  0.00    +0.000 HD
ENDROOT
BRANCH   2   5
ATOM      5  C   UNL     1       4.130   2.257  20.110  0.00  0.00    +0.000 C 
BRANCH   5   6
ATOM      6  N   UNL     1       4.962   3.113  19.294  0.00  0.00    +0.000 N 
ATOM      7  C   UNL     1       4.610   3.456  18.008  0.00  0.00    +0.000 C 
ATOM      8  O   UNL     1       3.580   3.034  17.485  0.00  0.00    +0.000 OA
ATOM      9  H   UNL     1       5.735   3.612  19.722  0.00  0.00    +0.000 HD
BRANCH   7  10
ATOM     10  C   UNL     1       5.548   4.341  17.349  0.00  0.00    +0.000 A 
ATOM     11  C   UNL     1       6.177   4.249  16.122  0.00  0.00    +0.000 A 
ATOM     12  C   UNL     1       7.000   5.396  15.995  0.00  0.00    +0.000 A 
ATOM     13  C   UNL     1       6.826   6.120  17.152  0.00  0.00    +0.000 A 
ATOM     14 BR   UNL     1       7.672   7.736  17.544  0.00  0.00    +0.000 Br
ATOM     15  O   UNL     1       5.950   5.490  17.981  0.00  0.00    +0.000 OA
ENDBRANCH   7  10
ENDBRANCH   5   6
ENDBRANCH   2   5
BRANCH   3  16
ATOM     16  C   UNL     1       1.964   5.283  20.943  0.00  0.00    +0.000 C 
BRANCH  16  17
ATOM     17  C   UNL     1       1.898   6.556  20.140  0.00  0.00    +0.000 A 
ATOM     18  C   UNL     1       2.434   6.604  18.831  0.00  0.00    +0.000 A 
ATOM     19  C   UNL     1       2.397   7.784  18.081  0.00  0.00    +0.000 A 
ATOM     20  C   UNL     1       1.832   8.896  18.665  0.00  0.00    +0.000 A 
ATOM     21  C   UNL     1       1.315   8.861  19.938  0.00  0.00    +0.000 A 
ATOM     22  C   UNL     1       1.333   7.713  20.700  0.00  0.00    +0.000 A 
ATOM     23  O   UNL     1       0.809  10.064  20.324  0.00  0.00    +0.000 OA
ATOM     24  C   UNL     1       1.111  10.869  19.166  0.00  0.00    +0.000 C 
ATOM     25  O   UNL     1       1.721  10.124  18.092  0.00  0.00    +0.000 OA
ENDBRANCH  16  17
ENDBRANCH   3  16
TORSDOF 5
ENDMDL
MODEL 2
REMARK VINA RESULT:      -7.5      2.810      3.818
REMARK  Name = 
REMARK  5 active torsions:
REMARK  status: ('A' for Active; 'I' for Inactive)
REMARK    1  A    between atoms: C_2  and  C_3
REMARK    2  A    between atoms: C_3  and  N_4
REMARK    3  A    between atoms: C_5  and  C_7
REMARK    4  A    between atoms: N_13  and  C_14
REMARK    5  A    between atoms: C_14  and  C_15
REMARK                            x       y       z     vdW  Elec       q    Type
REMARK                         _______ _______ _______ _____ _____    ______ ____
ROOT
ATOM      1  O   UNL     1       5.933   4.027  19.412  0.00  0.00    +0.000 OA
ATOM      2  C   UNL     1       5.953   4.819  18.473  0.00  0.00    +0.000 C 
ATOM      3  N   UNL     1       4.836   5.460  17.990  0.00  0.00    +0.000 N 
ATOM      4  H   UNL     1       4.964   6.244  17.355  0.00  0.00    +0.000 HD
ENDROOT
BRANCH   2   5
ATOM      5  C   UNL     1       7.256   5.233  17.791  0.00  0.00    +0.000 C 
BRANCH   5   6
ATOM      6  N   UNL     1       7.286   4.768  16.423  0.00  0.00    +0.000 N 
ATOM      7  C   UNL     1       6.661   5.456  15.407  0.00  0.00    +0.000 C 
ATOM      8  O   UNL     1       6.030   6.490  15.620  0.00  0.00    +0.000 OA
ATOM      9  H   UNL     1       7.916   4.015  16.166  0.00  0.00    +0.000 HD
BRANCH   7  10
ATOM     10  C   UNL     1       6.818   4.859  14.098  0.00  0.00    +0.000 A 
ATOM     11  C   UNL     1       7.676   5.162  13.057  0.00  0.00    +0.000 A 
ATOM     12  C   UNL     1       7.382   4.257  12.006  0.00  0.00    +0.000 A 
ATOM     13  C   UNL     1       6.361   3.457  12.466  0.00  0.00    +0.000 A 
ATOM     14 BR   UNL     1       5.559   2.078  11.498  0.00  0.00    +0.000 Br
ATOM     15  O   UNL     1       6.009   3.813  13.731  0.00  0.00    +0.000 OA
ENDBRANCH   7  10
ENDBRANCH   5   6
ENDBRANCH   2   5
BRANCH   3  16
ATOM     16  C   UNL     1       3.511   5.206  18.509  0.00  0.00    +0.000 C 
BRANCH  16  17
ATOM     17  C   UNL     1       2.817   6.491  18.880  0.00  0.00    +0.000 A 
ATOM     18  C   UNL     1       2.231   6.644  20.158  0.00  0.00    +0.000 A 
ATOM     19  C   UNL     1       1.567   7.824  20.509  0.00  0.00    +0.000 A 
ATOM     20  C   UNL     1       1.496   8.823  19.564  0.00  0.00    +0.000 A 
ATOM     21  C   UNL     1       2.056   8.682  18.317  0.00  0.00    +0.000 A 
ATOM     22  C   UNL     1       2.720   7.533  17.943  0.00  0.00    +0.000 A 
ATOM     23  O   UNL     1       1.870   9.782  17.538  0.00  0.00    +0.000 OA
ATOM     24  C   UNL     1       1.087  10.610  18.421  0.00  0.00    +0.000 C 
ATOM     25  O   UNL     1       0.883  10.027  19.725  0.00  0.00    +0.000 OA
ENDBRANCH  16  17
ENDBRANCH   3  16
TORSDOF 5
ENDMDL
MODEL 3
REMARK VINA RESULT:      -7.5      3.739      5.509
REMARK  Name = 
REMARK  5 active torsions:
REMARK  status: ('A' for Active; 'I' for Inactive)
REMARK    1  A    between atoms: C_2  and  C_3
REMARK    2  A    between atoms: C_3  and  N_4
REMARK    3  A    between atoms: C_5  and  C_7
REMARK    4  A    between atoms: N_13  and  C_14
REMARK    5  A    between atoms: C_14  and  C_15
REMARK                            x       y       z     vdW  Elec       q    Type
REMARK                         _______ _______ _______ _____ _____    ______ ____
ROOT
ATOM      1  O   UNL     1       6.100   5.008  18.740  0.00  0.00    +0.000 OA
ATOM      2  C   UNL     1       6.036   5.148  17.521  0.00  0.00    +0.000 C 
ATOM      3  N   UNL     1       5.009   5.799  16.879  0.00  0.00    +0.000 N 
ATOM      4  H   UNL     1       5.130   6.049  15.901  0.00  0.00    +0.000 HD
ENDROOT
BRANCH   2   5
ATOM      5  C   UNL     1       7.151   4.670  16.592  0.00  0.00    +0.000 C 
BRANCH   5   6
ATOM      6  N   UNL     1       6.600   4.054  15.407  0.00  0.00    +0.000 N 
ATOM      7  C   UNL     1       6.900   4.512  14.143  0.00  0.00    +0.000 C 
ATOM      8  O   UNL     1       7.637   5.480  13.965  0.00  0.00    +0.000 OA
ATOM      9  H   UNL     1       6.117   3.165  15.485  0.00  0.00    +0.000 HD
BRANCH   7  10
ATOM     10  C   UNL     1       6.280   3.759  13.073  0.00  0.00    +0.000 A 
ATOM     11  C   UNL     1       6.750   2.706  12.311  0.00  0.00    +0.000 A 
ATOM     12  C   UNL     1       5.719   2.367  11.399  0.00  0.00    +0.000 A 
ATOM     13  C   UNL     1       4.682   3.234  11.656  0.00  0.00    +0.000 A 
ATOM     14 BR   UNL     1       3.052   3.255  10.749  0.00  0.00    +0.000 Br
ATOM     15  O   UNL     1       5.010   4.083  12.667  0.00  0.00    +0.000 OA
ENDBRANCH   7  10
ENDBRANCH   5   6
ENDBRANCH   2   5
BRANCH   3  16
ATOM     16  C   UNL     1       3.864   6.328  17.586  0.00  0.00    +0.000 C 
BRANCH  16  17
ATOM     17  C   UNL     1       3.107   5.232  18.288  0.00  0.00    +0.000 A 
ATOM     18  C   UNL     1       2.392   4.265  17.543  0.00  0.00    +0.000 A 
ATOM     19  C   UNL     1       1.668   3.254  18.182  0.00  0.00    +0.000 A 
ATOM     20  C   UNL     1       1.668   3.239  19.559  0.00  0.00    +0.000 A 
ATOM     21  C   UNL     1       2.355   4.176  20.293  0.00  0.00    +0.000 A 
ATOM     22  C   UNL     1       3.080   5.183  19.692  0.00  0.00    +0.000 A 
ATOM     23  O   UNL     1       2.221   3.983  21.633  0.00  0.00    +0.000 OA
ATOM     24  C   UNL     1       1.335   2.846  21.657  0.00  0.00    +0.000 C 
ATOM     25  O   UNL     1       1.014   2.341  20.344  0.00  0.00    +0.000 OA
ENDBRANCH  16  17
ENDBRANCH   3  16
TORSDOF 5
ENDMDL
MODEL 4
REMARK VINA RESULT:      -7.4      3.697      5.329
REMARK  Name = 
REMARK  5 active torsions:
REMARK  status: ('A' for Active; 'I' for Inactive)
REMARK    1  A    between atoms: C_2  and  C_3
REMARK    2  A    between atoms: C_3  and  N_4
REMARK    3  A    between atoms: C_5  and  C_7
REMARK    4  A    between atoms: N_13  and  C_14
REMARK    5  A    between atoms: C_14  and  C_15
REMARK                            x       y       z     vdW  Elec       q    Type
REMARK                         _______ _______ _______ _____ _____    ______ ____
ROOT
ATOM      1  O   UNL     1       6.559   5.356  19.438  0.00  0.00    +0.000 OA
ATOM      2  C   UNL     1       6.457   5.265  18.217  0.00  0.00    +0.000 C 
ATOM      3  N   UNL     1       5.467   5.878  17.485  0.00  0.00    +0.000 N 
ATOM      4  H   UNL     1       5.569   5.921  16.474  0.00  0.00    +0.000 HD
ENDROOT
BRANCH   2   5
ATOM      5  C   UNL     1       7.484   4.511  17.374  0.00  0.00    +0.000 C 
BRANCH   5   6
ATOM      6  N   UNL     1       6.885   4.031  16.149  0.00  0.00    +0.000 N 
ATOM      7  C   UNL     1       7.034   4.701  14.955  0.00  0.00    +0.000 C 
ATOM      8  O   UNL     1       7.668   5.752  14.879  0.00  0.00    +0.000 OA
ATOM      9  H   UNL     1       6.488   3.097  16.120  0.00  0.00    +0.000 HD
BRANCH   7  10
ATOM     10  C   UNL     1       6.389   4.062  13.828  0.00  0.00    +0.000 A 
ATOM     11  C   UNL     1       5.092   4.143  13.357  0.00  0.00    +0.000 A 
ATOM     12  C   UNL     1       5.013   3.294  12.225  0.00  0.00    +0.000 A 
ATOM     13  C   UNL     1       6.264   2.742  12.073  0.00  0.00    +0.000 A 
ATOM     14 BR   UNL     1       6.749   1.532  10.738  0.00  0.00    +0.000 Br
ATOM     15  O   UNL     1       7.106   3.198  13.040  0.00  0.00    +0.000 OA
ENDBRANCH   7  10
ENDBRANCH   5   6
ENDBRANCH   2   5
BRANCH   3  16
ATOM     16  C   UNL     1       4.406   6.641  18.102  0.00  0.00    +0.000 C 
BRANCH  16  17
ATOM     17  C   UNL     1       3.334   5.736  18.650  0.00  0.00    +0.000 A 
ATOM     18  C   UNL     1       2.754   5.999  19.913  0.00  0.00    +0.000 A 
ATOM     19  C   UNL     1       1.772   5.156  20.443  0.00  0.00    +0.000 A 
ATOM     20  C   UNL     1       1.399   4.060  19.698  0.00  0.00    +0.000 A 
ATOM     21  C   UNL     1       1.960   3.792  18.472  0.00  0.00    +0.000 A 
ATOM     22  C   UNL     1       2.928   4.606  17.922  0.00  0.00    +0.000 A 
ATOM     23  O   UNL     1       1.455   2.663  17.907  0.00  0.00    +0.000 OA
ATOM     24  C   UNL     1       0.546   2.227  18.938  0.00  0.00    +0.000 C 
ATOM     25  O   UNL     1       0.473   3.132  20.059  0.00  0.00    +0.000 OA
ENDBRANCH  16  17
ENDBRANCH   3  16
TORSDOF 5
ENDMDL
MODEL 5
REMARK VINA RESULT:      -7.3      3.622      5.888
REMARK  Name = 
REMARK  5 active torsions:
REMARK  status: ('A' for Active; 'I' for Inactive)
REMARK    1  A    between atoms: C_2  and  C_3
REMARK    2  A    between atoms: C_3  and  N_4
REMARK    3  A    between atoms: C_5  and  C_7
REMARK    4  A    between atoms: N_13  and  C_14
REMARK    5  A    between atoms: C_14  and  C_15
REMARK                            x       y       z     vdW  Elec       q    Type
REMARK                         _______ _______ _______ _____ _____    ______ ____
ROOT
ATOM      1  O   UNL     1       6.957   6.946  16.885  0.00  0.00    +0.000 OA
ATOM      2  C   UNL     1       6.541   5.817  16.638  0.00  0.00    +0.000 C 
ATOM      3  N   UNL     1       5.232   5.430  16.804  0.00  0.00    +0.000 N 
ATOM      4  H   UNL     1       4.929   4.553  16.389  0.00  0.00    +0.000 HD
ENDROOT
BRANCH   2   5
ATOM      5  C   UNL     1       7.441   4.738  16.038  0.00  0.00    +0.000 C 
BRANCH   5   6
ATOM      6  N   UNL     1       6.767   4.054  14.957  0.00  0.00    +0.000 N 
ATOM      7  C   UNL     1       6.913   4.448  13.645  0.00  0.00    +0.000 C 
ATOM      8  O   UNL     1       7.608   5.413  13.334  0.00  0.00    +0.000 OA
ATOM      9  H   UNL     1       6.312   3.166  15.136  0.00  0.00    +0.000 HD
BRANCH   7  10
ATOM     10  C   UNL     1       6.186   3.633  12.694  0.00  0.00    +0.000 A 
ATOM     11  C   UNL     1       6.478   2.399  12.145  0.00  0.00    +0.000 A 
ATOM     12  C   UNL     1       5.416   2.082  11.260  0.00  0.00    +0.000 A 
ATOM     13  C   UNL     1       4.541   3.142  11.320  0.00  0.00    +0.000 A 
ATOM     14 BR   UNL     1       2.951   3.276  10.354  0.00  0.00    +0.000 Br
ATOM     15  O   UNL     1       4.997   4.088  12.184  0.00  0.00    +0.000 OA
ENDBRANCH   7  10
ENDBRANCH   5   6
ENDBRANCH   2   5
BRANCH   3  16
ATOM     16  C   UNL     1       4.227   6.312  17.354  0.00  0.00    +0.000 C 
BRANCH  16  17
ATOM     17  C   UNL     1       3.517   5.668  18.516  0.00  0.00    +0.000 A 
ATOM     18  C   UNL     1       2.571   6.401  19.270  0.00  0.00    +0.000 A 
ATOM     19  C   UNL     1       1.919   5.822  20.364  0.00  0.00    +0.000 A 
ATOM     20  C   UNL     1       2.238   4.521  20.684  0.00  0.00    +0.000 A 
ATOM     21  C   UNL     1       3.160   3.802  19.961  0.00  0.00    +0.000 A 
ATOM     22  C   UNL     1       3.816   4.344  18.876  0.00  0.00    +0.000 A 
ATOM     23  O   UNL     1       3.329   2.542  20.445  0.00  0.00    +0.000 OA
ATOM     24  C   UNL     1       2.443   2.568  21.583  0.00  0.00    +0.000 C 
ATOM     25  O   UNL     1       1.714   3.806  21.715  0.00  0.00    +0.000 OA
ENDBRANCH  16  17
ENDBRANCH   3  16
TORSDOF 5
ENDMDL
MODEL 6
REMARK VINA RESULT:      -7.3      3.539      5.844
REMARK  Name = 
REMARK  5 active torsions:
REMARK  status: ('A' for Active; 'I' for Inactive)
REMARK    1  A    between atoms: C_2  and  C_3
REMARK    2  A    between atoms: C_3  and  N_4
REMARK    3  A    between atoms: C_5  and  C_7
REMARK    4  A    between atoms: N_13  and  C_14
REMARK    5  A    between atoms: C_14  and  C_15
REMARK                            x       y       z     vdW  Elec       q    Type
REMARK                         _______ _______ _______ _____ _____    ______ ____
ROOT
ATOM      1  O   UNL     1       4.895   6.371  15.485  0.00  0.00    +0.000 OA
ATOM      2  C   UNL     1       5.438   6.598  16.564  0.00  0.00    +0.000 C 
ATOM      3  N   UNL     1       4.751   6.813  17.736  0.00  0.00    +0.000 N 
ATOM      4  H   UNL     1       5.267   6.790  18.611  0.00  0.00    +0.000 HD
ENDROOT
BRANCH   2   5
ATOM      5  C   UNL     1       6.957   6.583  16.723  0.00  0.00    +0.000 C 
BRANCH   5   6
ATOM      6  N   UNL     1       7.442   7.886  17.118  0.00  0.00    +0.000 N 
ATOM      7  C   UNL     1       8.197   8.067  18.255  0.00  0.00    +0.000 C 
ATOM      8  O   UNL     1       8.479   7.130  19.000  0.00  0.00    +0.000 OA
ATOM      9  H   UNL     1       7.375   8.662  16.467  0.00  0.00    +0.000 HD
BRANCH   7  10
ATOM     10  C   UNL     1       8.618   9.434  18.481  0.00  0.00    +0.000 A 
ATOM     11  C   UNL     1       9.477   9.978  19.416  0.00  0.00    +0.000 A 
ATOM     12  C   UNL     1       9.510  11.376  19.180  0.00  0.00    +0.000 A 
ATOM     13  C   UNL     1       8.667  11.602  18.116  0.00  0.00    +0.000 A 
ATOM     14 BR   UNL     1       8.313  13.273  17.365  0.00  0.00    +0.000 Br
ATOM     15  O   UNL     1       8.120  10.434  17.684  0.00  0.00    +0.000 OA
ENDBRANCH   7  10
ENDBRANCH   5   6
ENDBRANCH   2   5
BRANCH   3  16
ATOM     16  C   UNL     1       3.307   6.858  17.790  0.00  0.00    +0.000 C 
BRANCH  16  17
ATOM     17  C   UNL     1       2.749   5.618  18.438  0.00  0.00    +0.000 A 
ATOM     18  C   UNL     1       2.082   4.644  17.660  0.00  0.00    +0.000 A 
ATOM     19  C   UNL     1       1.541   3.497  18.251  0.00  0.00    +0.000 A 
ATOM     20  C   UNL     1       1.674   3.357  19.615  0.00  0.00    +0.000 A 
ATOM     21  C   UNL     1       2.315   4.301  20.381  0.00  0.00    +0.000 A 
ATOM     22  C   UNL     1       2.861   5.439  19.827  0.00  0.00    +0.000 A 
ATOM     23  O   UNL     1       2.332   3.972  21.701  0.00  0.00    +0.000 OA
ATOM     24  C   UNL     1       1.587   2.738  21.682  0.00  0.00    +0.000 C 
ATOM     25  O   UNL     1       1.204   2.318  20.356  0.00  0.00    +0.000 OA
ENDBRANCH  16  17
ENDBRANCH   3  16
TORSDOF 5
ENDMDL
MODEL 7
REMARK VINA RESULT:      -7.3      5.889      7.818
REMARK  Name = 
REMARK  5 active torsions:
REMARK  status: ('A' for Active; 'I' for Inactive)
REMARK    1  A    between atoms: C_2  and  C_3
REMARK    2  A    between atoms: C_3  and  N_4
REMARK    3  A    between atoms: C_5  and  C_7
REMARK    4  A    between atoms: N_13  and  C_14
REMARK    5  A    between atoms: C_14  and  C_15
REMARK                            x       y       z     vdW  Elec       q    Type
REMARK                         _______ _______ _______ _____ _____    ______ ____
ROOT
ATOM      1  O   UNL     1       7.781   7.603  16.723  0.00  0.00    +0.000 OA
ATOM      2  C   UNL     1       8.078   7.696  17.912  0.00  0.00    +0.000 C 
ATOM      3  N   UNL     1       8.355   8.888  18.541  0.00  0.00    +0.000 N 
ATOM      4  H   UNL     1       8.390   8.903  19.557  0.00  0.00    +0.000 HD
ENDROOT
BRANCH   2   5
ATOM      5  C   UNL     1       8.092   6.481  18.839  0.00  0.00    +0.000 C 
BRANCH   5   6
ATOM      6  N   UNL     1       6.846   5.755  18.747  0.00  0.00    +0.000 N 
ATOM      7  C   UNL     1       6.667   4.730  17.845  0.00  0.00    +0.000 C 
ATOM      8  O   UNL     1       7.554   4.397  17.060  0.00  0.00    +0.000 OA
ATOM      9  H   UNL     1       6.142   5.879  19.466  0.00  0.00    +0.000 HD
BRANCH   7  10
ATOM     10  C   UNL     1       5.366   4.098  17.910  0.00  0.00    +0.000 A 
ATOM     11  C   UNL     1       4.512   3.670  16.911  0.00  0.00    +0.000 A 
ATOM     12  C   UNL     1       3.367   3.134  17.552  0.00  0.00    +0.000 A 
ATOM     13  C   UNL     1       3.588   3.269  18.903  0.00  0.00    +0.000 A 
ATOM     14 BR   UNL     1       2.404   2.735  20.243  0.00  0.00    +0.000 Br
ATOM     15  O   UNL     1       4.795   3.853  19.133  0.00  0.00    +0.000 OA
ENDBRANCH   7  10
ENDBRANCH   5   6
ENDBRANCH   2   5
BRANCH   3  16
ATOM     16  C   UNL     1       8.385  10.148  17.834  0.00  0.00    +0.000 C 
BRANCH  16  17
ATOM     17  C   UNL     1       9.390  11.089  18.446  0.00  0.00    +0.000 A 
ATOM     18  C   UNL     1       9.702  11.005  19.823  0.00  0.00    +0.000 A 
ATOM     19  C   UNL     1      10.617  11.885  20.409  0.00  0.00    +0.000 A 
ATOM     20  C   UNL     1      11.195  12.840  19.601  0.00  0.00    +0.000 A 
ATOM     21  C   UNL     1      10.894  12.934  18.263  0.00  0.00    +0.000 A 
ATOM     22  C   UNL     1       9.999  12.079  17.656  0.00  0.00    +0.000 A 
ATOM     23  O   UNL     1      11.570  13.943  17.650  0.00  0.00    +0.000 OA
ATOM     24  C   UNL     1      12.292  14.502  18.766  0.00  0.00    +0.000 C 
ATOM     25  O   UNL     1      12.093  13.780  19.999  0.00  0.00    +0.000 OA
ENDBRANCH  16  17
ENDBRANCH   3  16
TORSDOF 5
ENDMDL
MODEL 8
REMARK VINA RESULT:      -7.3      3.641      5.332
REMARK  Name = 
REMARK  5 active torsions:
REMARK  status: ('A' for Active; 'I' for Inactive)
REMARK    1  A    between atoms: C_2  and  C_3
REMARK    2  A    between atoms: C_3  and  N_4
REMARK    3  A    between atoms: C_5  and  C_7
REMARK    4  A    between atoms: N_13  and  C_14
REMARK    5  A    between atoms: C_14  and  C_15
REMARK                            x       y       z     vdW  Elec       q    Type
REMARK                         _______ _______ _______ _____ _____    ______ ____
ROOT
ATOM      1  O   UNL     1       6.058   5.032  19.149  0.00  0.00    +0.000 OA
ATOM      2  C   UNL     1       6.191   5.112  17.929  0.00  0.00    +0.000 C 
ATOM      3  N   UNL     1       5.399   5.894  17.123  0.00  0.00    +0.000 N 
ATOM      4  H   UNL     1       5.699   6.064  16.166  0.00  0.00    +0.000 HD
ENDROOT
BRANCH   2   5
ATOM      5  C   UNL     1       7.322   4.396  17.192  0.00  0.00    +0.000 C 
BRANCH   5   6
ATOM      6  N   UNL     1       6.870   3.918  15.906  0.00  0.00    +0.000 N 
ATOM      7  C   UNL     1       7.029   4.659  14.756  0.00  0.00    +0.000 C 
ATOM      8  O   UNL     1       7.548   5.775  14.774  0.00  0.00    +0.000 OA
ATOM      9  H   UNL     1       6.581   2.950  15.807  0.00  0.00    +0.000 HD
BRANCH   7  10
ATOM     10  C   UNL     1       6.541   4.013  13.556  0.00  0.00    +0.000 A 
ATOM     11  C   UNL     1       7.200   3.280  12.587  0.00  0.00    +0.000 A 
ATOM     12  C   UNL     1       6.225   2.897  11.631  0.00  0.00    +0.000 A 
ATOM     13  C   UNL     1       5.032   3.420  12.072  0.00  0.00    +0.000 A 
ATOM     14 BR   UNL     1       3.392   3.234  11.201  0.00  0.00    +0.000 Br
ATOM     15  O   UNL     1       5.210   4.100  13.236  0.00  0.00    +0.000 OA
ENDBRANCH   7  10
ENDBRANCH   5   6
ENDBRANCH   2   5
BRANCH   3  16
ATOM     16  C   UNL     1       4.280   6.652  17.636  0.00  0.00    +0.000 C 
BRANCH  16  17
ATOM     17  C   UNL     1       3.270   5.750  18.296  0.00  0.00    +0.000 A 
ATOM     18  C   UNL     1       2.746   6.074  19.569  0.00  0.00    +0.000 A 
ATOM     19  C   UNL     1       1.823   5.236  20.203  0.00  0.00    +0.000 A 
ATOM     20  C   UNL     1       1.452   4.083  19.548  0.00  0.00    +0.000 A 
ATOM     21  C   UNL     1       1.960   3.755  18.314  0.00  0.00    +0.000 A 
ATOM     22  C   UNL     1       2.868   4.562  17.663  0.00  0.00    +0.000 A 
ATOM     23  O   UNL     1       1.466   2.576  17.847  0.00  0.00    +0.000 OA
ATOM     24  C   UNL     1       0.628   2.178  18.951  0.00  0.00    +0.000 C 
ATOM     25  O   UNL     1       0.579   3.150  20.016  0.00  0.00    +0.000 OA
ENDBRANCH  16  17
ENDBRANCH   3  16
TORSDOF 5
ENDMDL
MODEL 9
REMARK VINA RESULT:      -7.2      4.645      6.818
REMARK  Name = 
REMARK  5 active torsions:
REMARK  status: ('A' for Active; 'I' for Inactive)
REMARK    1  A    between atoms: C_2  and  C_3
REMARK    2  A    between atoms: C_3  and  N_4
REMARK    3  A    between atoms: C_5  and  C_7
REMARK    4  A    between atoms: N_13  and  C_14
REMARK    5  A    between atoms: C_14  and  C_15
REMARK                            x       y       z     vdW  Elec       q    Type
REMARK                         _______ _______ _______ _____ _____    ______ ____
ROOT
ATOM      1  O   UNL     1       7.712   6.627  16.260  0.00  0.00    +0.000 OA
ATOM      2  C   UNL     1       7.194   7.160  17.239  0.00  0.00    +0.000 C 
ATOM      3  N   UNL     1       5.842   7.145  17.491  0.00  0.00    +0.000 N 
ATOM      4  H   UNL     1       5.519   7.426  18.413  0.00  0.00    +0.000 HD
ENDROOT
BRANCH   2   5
ATOM      5  C   UNL     1       8.027   7.833  18.327  0.00  0.00    +0.000 C 
BRANCH   5   6
ATOM      6  N   UNL     1       8.428   9.160  17.916  0.00  0.00    +0.000 N 
ATOM      7  C   UNL     1       9.051  10.032  18.780  0.00  0.00    +0.000 C 
ATOM      8  O   UNL     1       9.277   9.730  19.951  0.00  0.00    +0.000 OA
ATOM      9  H   UNL     1       8.410   9.403  16.931  0.00  0.00    +0.000 HD
BRANCH   7  10
ATOM     10  C   UNL     1       9.405  11.306  18.190  0.00  0.00    +0.000 A 
ATOM     11  C   UNL     1       8.623  12.382  17.815  0.00  0.00    +0.000 A 
ATOM     12  C   UNL     1       9.500  13.359  17.280  0.00  0.00    +0.000 A 
ATOM     13  C   UNL     1      10.764  12.822  17.359  0.00  0.00    +0.000 A 
ATOM     14 BR   UNL     1      12.328  13.668  16.793  0.00  0.00    +0.000 Br
ATOM     15  O   UNL     1      10.719  11.577  17.908  0.00  0.00    +0.000 OA
ENDBRANCH   7  10
ENDBRANCH   5   6
ENDBRANCH   2   5
BRANCH   3  16
ATOM     16  C   UNL     1       4.890   6.550  16.581  0.00  0.00    +0.000 C 
BRANCH  16  17
ATOM     17  C   UNL     1       4.118   5.443  17.251  0.00  0.00    +0.000 A 
ATOM     18  C   UNL     1       4.326   4.096  16.870  0.00  0.00    +0.000 A 
ATOM     19  C   UNL     1       3.603   3.059  17.469  0.00  0.00    +0.000 A 
ATOM     20  C   UNL     1       2.677   3.397  18.432  0.00  0.00    +0.000 A 
ATOM     21  C   UNL     1       2.464   4.703  18.804  0.00  0.00    +0.000 A 
ATOM     22  C   UNL     1       3.163   5.746  18.235  0.00  0.00    +0.000 A 
ATOM     23  O   UNL     1       1.508   4.818  19.766  0.00  0.00    +0.000 OA
ATOM     24  C   UNL     1       1.112   3.439  19.920  0.00  0.00    +0.000 C 
ATOM     25  O   UNL     1       1.881   2.527  19.108  0.00  0.00    +0.000 OA
ENDBRANCH  16  17
ENDBRANCH   3  16
TORSDOF 5
ENDMDL
