MODEL 1
REMARK VINA RESULT:      -6.8      0.000      0.000
REMARK  Name = 
REMARK  2 active torsions:
REMARK  status: ('A' for Active; 'I' for Inactive)
REMARK    1  A    between atoms: C_2  and  O_3
REMARK    2  A    between atoms: C_2  and  C_4
REMARK                            x       y       z     vdW  Elec       q    Type
REMARK                         _______ _______ _______ _____ _____    ______ ____
ROOT
ATOM      1  C   UNL     1       6.010   4.991  17.967  0.00  0.00    +0.000 A 
ATOM      2  N   UNL     1       5.164   5.968  18.093  0.00  0.00    +0.000 NA
ATOM      3  C   UNL     1       4.044   5.725  18.916  0.00  0.00    +0.000 A 
ATOM      4  C   UNL     1       3.077   6.723  19.055  0.00  0.00    +0.000 A 
ATOM      5  C   UNL     1       1.948   6.516  19.856  0.00  0.00    +0.000 A 
ATOM      6  C   UNL     1       1.778   5.307  20.532  0.00  0.00    +0.000 A 
ATOM      7  C   UNL     1       2.734   4.301  20.406  0.00  0.00    +0.000 A 
ATOM      8  C   UNL     1       3.854   4.515  19.597  0.00  0.00    +0.000 A 
ATOM      9  C   UNL     1       4.870   3.460  19.423  0.00  0.00    +0.000 A 
ATOM     10  O   UNL     1       4.799   2.384  20.000  0.00  0.00    +0.000 OA
ATOM     11  N   UNL     1       5.897   3.771  18.575  0.00  0.00    +0.000 N 
ATOM     12  H   UNL     1       6.613   3.069  18.420  0.00  0.00    +0.000 HD
ENDROOT
BRANCH   1  14
ATOM     13  O   UNL     1       7.392   6.149  16.382  0.00  0.00    +0.000 OA
ATOM     14  C   UNL     1       7.243   5.171  17.088  0.00  0.00    +0.000 C 
BRANCH  14  15
ATOM     15  O   UNL     1       8.083   4.129  17.207  0.00  0.00    +0.000 OA
ATOM     16  H   UNL     1       8.435   3.902  16.315  0.00  0.00    +0.000 HD
ENDBRANCH  14  15
ENDBRANCH   1  14
TORSDOF 2
ENDMDL
MODEL 2
REMARK VINA RESULT:      -6.7      2.141      2.964
REMARK  Name = 
REMARK  2 active torsions:
REMARK  status: ('A' for Active; 'I' for Inactive)
REMARK    1  A    between atoms: C_2  and  O_3
REMARK    2  A    between atoms: C_2  and  C_4
REMARK                            x       y       z     vdW  Elec       q    Type
REMARK                         _______ _______ _______ _____ _____    ______ ____
ROOT
ATOM      1  C   UNL     1       5.790   4.810  16.853  0.00  0.00    +0.000 A 
ATOM      2  N   UNL     1       5.215   3.654  16.992  0.00  0.00    +0.000 NA
ATOM      3  C   UNL     1       3.888   3.667  17.470  0.00  0.00    +0.000 A 
ATOM      4  C   UNL     1       3.232   2.452  17.681  0.00  0.00    +0.000 A 
ATOM      5  C   UNL     1       1.918   2.425  18.163  0.00  0.00    +0.000 A 
ATOM      6  C   UNL     1       1.243   3.617  18.431  0.00  0.00    +0.000 A 
ATOM      7  C   UNL     1       1.881   4.838  18.224  0.00  0.00    +0.000 A 
ATOM      8  C   UNL     1       3.197   4.854  17.750  0.00  0.00    +0.000 A 
ATOM      9  C   UNL     1       3.909   6.129  17.546  0.00  0.00    +0.000 A 
ATOM     10  O   UNL     1       3.375   7.213  17.740  0.00  0.00    +0.000 OA
ATOM     11  N   UNL     1       5.204   6.015  17.121  0.00  0.00    +0.000 N 
ATOM     12  H   UNL     1       5.732   6.870  16.976  0.00  0.00    +0.000 HD
ENDROOT
BRANCH   1  14
ATOM     13  O   UNL     1       7.535   5.533  15.371  0.00  0.00    +0.000 OA
ATOM     14  C   UNL     1       7.228   4.880  16.349  0.00  0.00    +0.000 C 
BRANCH  14  15
ATOM     15  O   UNL     1       8.048   4.137  17.111  0.00  0.00    +0.000 OA
ATOM     16  H   UNL     1       7.508   3.654  17.780  0.00  0.00    +0.000 HD
ENDBRANCH  14  15
ENDBRANCH   1  14
TORSDOF 2
ENDMDL
MODEL 3
REMARK VINA RESULT:      -6.6      1.471      1.757
REMARK  Name = 
REMARK  2 active torsions:
REMARK  status: ('A' for Active; 'I' for Inactive)
REMARK    1  A    between atoms: C_2  and  O_3
REMARK    2  A    between atoms: C_2  and  C_4
REMARK                            x       y       z     vdW  Elec       q    Type
REMARK                         _______ _______ _______ _____ _____    ______ ____
ROOT
ATOM      1  C   UNL     1       4.967   4.289  18.203  0.00  0.00    +0.000 A 
ATOM      2  N   UNL     1       3.774   4.786  18.317  0.00  0.00    +0.000 NA
ATOM      3  C   UNL     1       2.934   4.185  19.279  0.00  0.00    +0.000 A 
ATOM      4  C   UNL     1       1.623   4.649  19.416  0.00  0.00    +0.000 A 
ATOM      5  C   UNL     1       0.758   4.072  20.354  0.00  0.00    +0.000 A 
ATOM      6  C   UNL     1       1.199   3.029  21.169  0.00  0.00    +0.000 A 
ATOM      7  C   UNL     1       2.503   2.556  21.046  0.00  0.00    +0.000 A 
ATOM      8  C   UNL     1       3.358   3.133  20.101  0.00  0.00    +0.000 A 
ATOM      9  C   UNL     1       4.736   2.637  19.928  0.00  0.00    +0.000 A 
ATOM     10  O   UNL     1       5.198   1.740  20.621  0.00  0.00    +0.000 OA
ATOM     11  N   UNL     1       5.460   3.252  18.945  0.00  0.00    +0.000 N 
ATOM     12  H   UNL     1       6.411   2.934  18.788  0.00  0.00    +0.000 HD
ENDROOT
BRANCH   1  14
ATOM     13  O   UNL     1       5.692   5.911  16.587  0.00  0.00    +0.000 OA
ATOM     14  C   UNL     1       5.933   4.877  17.179  0.00  0.00    +0.000 C 
BRANCH  14  15
ATOM     15  O   UNL     1       7.025   4.106  17.041  0.00  0.00    +0.000 OA
ATOM     16  H   UNL     1       7.027   3.720  16.134  0.00  0.00    +0.000 HD
ENDBRANCH  14  15
ENDBRANCH   1  14
TORSDOF 2
ENDMDL
MODEL 4
REMARK VINA RESULT:      -6.6      2.099      2.522
REMARK  Name = 
REMARK  2 active torsions:
REMARK  status: ('A' for Active; 'I' for Inactive)
REMARK    1  A    between atoms: C_2  and  O_3
REMARK    2  A    between atoms: C_2  and  C_4
REMARK                            x       y       z     vdW  Elec       q    Type
REMARK                         _______ _______ _______ _____ _____    ______ ____
ROOT
ATOM      1  C   UNL     1       6.232   5.331  18.852  0.00  0.00    +0.000 A 
ATOM      2  N   UNL     1       5.231   5.279  19.678  0.00  0.00    +0.000 NA
ATOM      3  C   UNL     1       4.025   4.754  19.168  0.00  0.00    +0.000 A 
ATOM      4  C   UNL     1       2.901   4.713  19.996  0.00  0.00    +0.000 A 
ATOM      5  C   UNL     1       1.684   4.207  19.523  0.00  0.00    +0.000 A 
ATOM      6  C   UNL     1       1.582   3.730  18.216  0.00  0.00    +0.000 A 
ATOM      7  C   UNL     1       2.693   3.761  17.376  0.00  0.00    +0.000 A 
ATOM      8  C   UNL     1       3.902   4.276  17.856  0.00  0.00    +0.000 A 
ATOM      9  C   UNL     1       5.090   4.348  16.984  0.00  0.00    +0.000 A 
ATOM     10  O   UNL     1       5.081   3.930  15.834  0.00  0.00    +0.000 OA
ATOM     11  N   UNL     1       6.200   4.909  17.552  0.00  0.00    +0.000 N 
ATOM     12  H   UNL     1       7.036   4.985  16.982  0.00  0.00    +0.000 HD
ENDROOT
BRANCH   1  14
ATOM     13  O   UNL     1       8.176   6.730  18.685  0.00  0.00    +0.000 OA
ATOM     14  C   UNL     1       7.568   5.893  19.324  0.00  0.00    +0.000 C 
BRANCH  14  15
ATOM     15  O   UNL     1       7.947   5.338  20.487  0.00  0.00    +0.000 OA
ATOM     16  H   UNL     1       8.829   5.699  20.739  0.00  0.00    +0.000 HD
ENDBRANCH  14  15
ENDBRANCH   1  14
TORSDOF 2
ENDMDL
MODEL 5
REMARK VINA RESULT:      -6.5      2.559      3.202
REMARK  Name = 
REMARK  2 active torsions:
REMARK  status: ('A' for Active; 'I' for Inactive)
REMARK    1  A    between atoms: C_2  and  O_3
REMARK    2  A    between atoms: C_2  and  C_4
REMARK                            x       y       z     vdW  Elec       q    Type
REMARK                         _______ _______ _______ _____ _____    ______ ____
ROOT
ATOM      1  C   UNL     1       6.433   5.126  18.733  0.00  0.00    +0.000 A 
ATOM      2  N   UNL     1       5.747   4.343  19.508  0.00  0.00    +0.000 NA
ATOM      3  C   UNL     1       4.646   3.685  18.919  0.00  0.00    +0.000 A 
ATOM      4  C   UNL     1       3.844   2.863  19.714  0.00  0.00    +0.000 A 
ATOM      5  C   UNL     1       2.739   2.201  19.167  0.00  0.00    +0.000 A 
ATOM      6  C   UNL     1       2.429   2.350  17.814  0.00  0.00    +0.000 A 
ATOM      7  C   UNL     1       3.220   3.164  17.006  0.00  0.00    +0.000 A 
ATOM      8  C   UNL     1       4.317   3.827  17.564  0.00  0.00    +0.000 A 
ATOM      9  C   UNL     1       5.158   4.717  16.742  0.00  0.00    +0.000 A 
ATOM     10  O   UNL     1       4.960   4.880  15.545  0.00  0.00    +0.000 OA
ATOM     11  N   UNL     1       6.175   5.343  17.408  0.00  0.00    +0.000 N 
ATOM     12  H   UNL     1       6.772   5.970  16.880  0.00  0.00    +0.000 HD
ENDROOT
BRANCH   1  14
ATOM     13  O   UNL     1       8.157   6.796  18.695  0.00  0.00    +0.000 OA
ATOM     14  C   UNL     1       7.633   5.880  19.297  0.00  0.00    +0.000 C 
BRANCH  14  15
ATOM     15  O   UNL     1       8.000   5.388  20.491  0.00  0.00    +0.000 OA
ATOM     16  H   UNL     1       8.610   4.626  20.347  0.00  0.00    +0.000 HD
ENDBRANCH  14  15
ENDBRANCH   1  14
TORSDOF 2
ENDMDL
MODEL 6
REMARK VINA RESULT:      -6.5      2.130      2.348
REMARK  Name = 
REMARK  2 active torsions:
REMARK  status: ('A' for Active; 'I' for Inactive)
REMARK    1  A    between atoms: C_2  and  O_3
REMARK    2  A    between atoms: C_2  and  C_4
REMARK                            x       y       z     vdW  Elec       q    Type
REMARK                         _______ _______ _______ _____ _____    ______ ____
ROOT
ATOM      1  C   UNL     1       5.815   4.341  16.315  0.00  0.00    +0.000 A 
ATOM      2  N   UNL     1       4.548   4.092  16.177  0.00  0.00    +0.000 NA
ATOM      3  C   UNL     1       3.784   4.059  17.363  0.00  0.00    +0.000 A 
ATOM      4  C   UNL     1       2.424   3.752  17.283  0.00  0.00    +0.000 A 
ATOM      5  C   UNL     1       1.635   3.701  18.439  0.00  0.00    +0.000 A 
ATOM      6  C   UNL     1       2.200   3.965  19.688  0.00  0.00    +0.000 A 
ATOM      7  C   UNL     1       3.554   4.274  19.786  0.00  0.00    +0.000 A 
ATOM      8  C   UNL     1       4.335   4.315  18.626  0.00  0.00    +0.000 A 
ATOM      9  C   UNL     1       5.778   4.613  18.699  0.00  0.00    +0.000 A 
ATOM     10  O   UNL     1       6.338   4.874  19.755  0.00  0.00    +0.000 OA
ATOM     11  N   UNL     1       6.443   4.582  17.505  0.00  0.00    +0.000 N 
ATOM     12  H   UNL     1       7.440   4.773  17.512  0.00  0.00    +0.000 HD
ENDROOT
BRANCH   1  14
ATOM     13  O   UNL     1       7.602   5.204  14.963  0.00  0.00    +0.000 OA
ATOM     14  C   UNL     1       6.711   4.386  15.081  0.00  0.00    +0.000 C 
BRANCH  14  15
ATOM     15  O   UNL     1       6.367   3.437  14.195  0.00  0.00    +0.000 OA
ATOM     16  H   UNL     1       6.382   2.561  14.647  0.00  0.00    +0.000 HD
ENDBRANCH  14  15
ENDBRANCH   1  14
TORSDOF 2
ENDMDL
MODEL 7
REMARK VINA RESULT:      -6.5      2.360      3.183
REMARK  Name = 
REMARK  2 active torsions:
REMARK  status: ('A' for Active; 'I' for Inactive)
REMARK    1  A    between atoms: C_2  and  O_3
REMARK    2  A    between atoms: C_2  and  C_4
REMARK                            x       y       z     vdW  Elec       q    Type
REMARK                         _______ _______ _______ _____ _____    ______ ____
ROOT
ATOM      1  C   UNL     1       6.486   4.541  15.339  0.00  0.00    +0.000 A 
ATOM      2  N   UNL     1       5.220   4.315  15.513  0.00  0.00    +0.000 NA
ATOM      3  C   UNL     1       4.781   4.200  16.849  0.00  0.00    +0.000 A 
ATOM      4  C   UNL     1       3.437   3.913  17.098  0.00  0.00    +0.000 A 
ATOM      5  C   UNL     1       2.967   3.783  18.410  0.00  0.00    +0.000 A 
ATOM      6  C   UNL     1       3.838   3.946  19.488  0.00  0.00    +0.000 A 
ATOM      7  C   UNL     1       5.181   4.234  19.259  0.00  0.00    +0.000 A 
ATOM      8  C   UNL     1       5.643   4.354  17.944  0.00  0.00    +0.000 A 
ATOM      9  C   UNL     1       7.064   4.632  17.667  0.00  0.00    +0.000 A 
ATOM     10  O   UNL     1       7.882   4.808  18.560  0.00  0.00    +0.000 OA
ATOM     11  N   UNL     1       7.403   4.685  16.343  0.00  0.00    +0.000 N 
ATOM     12  H   UNL     1       8.374   4.866  16.109  0.00  0.00    +0.000 HD
ENDROOT
BRANCH   1  14
ATOM     13  O   UNL     1       6.628   3.988  13.007  0.00  0.00    +0.000 OA
ATOM     14  C   UNL     1       7.041   4.670  13.924  0.00  0.00    +0.000 C 
BRANCH  14  15
ATOM     15  O   UNL     1       8.009   5.599  13.864  0.00  0.00    +0.000 OA
ATOM     16  H   UNL     1       8.819   5.189  13.479  0.00  0.00    +0.000 HD
ENDBRANCH  14  15
ENDBRANCH   1  14
TORSDOF 2
ENDMDL
MODEL 8
REMARK VINA RESULT:      -6.5      1.608      1.779
REMARK  Name = 
REMARK  2 active torsions:
REMARK  status: ('A' for Active; 'I' for Inactive)
REMARK    1  A    between atoms: C_2  and  O_3
REMARK    2  A    between atoms: C_2  and  C_4
REMARK                            x       y       z     vdW  Elec       q    Type
REMARK                         _______ _______ _______ _____ _____    ______ ____
ROOT
ATOM      1  C   UNL     1       5.831   4.932  16.338  0.00  0.00    +0.000 A 
ATOM      2  N   UNL     1       5.085   5.994  16.313  0.00  0.00    +0.000 NA
ATOM      3  C   UNL     1       4.248   6.198  17.431  0.00  0.00    +0.000 A 
ATOM      4  C   UNL     1       3.391   7.301  17.442  0.00  0.00    +0.000 A 
ATOM      5  C   UNL     1       2.539   7.532  18.529  0.00  0.00    +0.000 A 
ATOM      6  C   UNL     1       2.543   6.662  19.621  0.00  0.00    +0.000 A 
ATOM      7  C   UNL     1       3.393   5.559  19.628  0.00  0.00    +0.000 A 
ATOM      8  C   UNL     1       4.234   5.333  18.533  0.00  0.00    +0.000 A 
ATOM      9  C   UNL     1       5.126   4.159  18.498  0.00  0.00    +0.000 A 
ATOM     10  O   UNL     1       5.199   3.366  19.427  0.00  0.00    +0.000 OA
ATOM     11  N   UNL     1       5.868   4.022  17.358  0.00  0.00    +0.000 N 
ATOM     12  H   UNL     1       6.489   3.223  17.290  0.00  0.00    +0.000 HD
ENDROOT
BRANCH   1  14
ATOM     13  O   UNL     1       7.681   5.370  14.872  0.00  0.00    +0.000 OA
ATOM     14  C   UNL     1       6.758   4.636  15.163  0.00  0.00    +0.000 C 
BRANCH  14  15
ATOM     15  O   UNL     1       6.401   3.503  14.535  0.00  0.00    +0.000 OA
ATOM     16  H   UNL     1       6.217   2.810  15.211  0.00  0.00    +0.000 HD
ENDBRANCH  14  15
ENDBRANCH   1  14
TORSDOF 2
ENDMDL
MODEL 9
REMARK VINA RESULT:      -6.5      2.236      3.122
REMARK  Name = 
REMARK  2 active torsions:
REMARK  status: ('A' for Active; 'I' for Inactive)
REMARK    1  A    between atoms: C_2  and  O_3
REMARK    2  A    between atoms: C_2  and  C_4
REMARK                            x       y       z     vdW  Elec       q    Type
REMARK                         _______ _______ _______ _____ _____    ______ ____
ROOT
ATOM      1  C   UNL     1       5.941   5.284  18.956  0.00  0.00    +0.000 A 
ATOM      2  N   UNL     1       5.638   4.038  19.156  0.00  0.00    +0.000 NA
ATOM      3  C   UNL     1       4.306   3.663  18.878  0.00  0.00    +0.000 A 
ATOM      4  C   UNL     1       3.910   2.345  19.116  0.00  0.00    +0.000 A 
ATOM      5  C   UNL     1       2.595   1.939  18.861  0.00  0.00    +0.000 A 
ATOM      6  C   UNL     1       1.664   2.848  18.357  0.00  0.00    +0.000 A 
ATOM      7  C   UNL     1       2.042   4.166  18.113  0.00  0.00    +0.000 A 
ATOM      8  C   UNL     1       3.356   4.564  18.378  0.00  0.00    +0.000 A 
ATOM      9  C   UNL     1       3.781   5.959  18.155  0.00  0.00    +0.000 A 
ATOM     10  O   UNL     1       3.026   6.806  17.697  0.00  0.00    +0.000 OA
ATOM     11  N   UNL     1       5.077   6.237  18.492  0.00  0.00    +0.000 N 
ATOM     12  H   UNL     1       5.407   7.188  18.362  0.00  0.00    +0.000 HD
ENDROOT
BRANCH   1  14
ATOM     13  O   UNL     1       7.979   6.445  18.443  0.00  0.00    +0.000 OA
ATOM     14  C   UNL     1       7.358   5.770  19.241  0.00  0.00    +0.000 C 
BRANCH  14  15
ATOM     15  O   UNL     1       7.786   5.346  20.441  0.00  0.00    +0.000 OA
ATOM     16  H   UNL     1       7.374   5.905  21.141  0.00  0.00    +0.000 HD
ENDBRANCH  14  15
ENDBRANCH   1  14
TORSDOF 2
ENDMDL
