MODEL 1
REMARK VINA RESULT:      -7.4      0.000      0.000
REMARK  Name = 
REMARK  8 active torsions:
REMARK  status: ('A' for Active; 'I' for Inactive)
REMARK    1  A    between atoms: C_1  and  C_2
REMARK    2  A    between atoms: C_5  and  S_6
REMARK    3  A    between atoms: S_6  and  N_9
REMARK    4  A    between atoms: N_9  and  C_10
REMARK    5  A    between atoms: C_10  and  C_11
REMARK    6  A    between atoms: C_10  and  C_21
REMARK    7  A    between atoms: C_11  and  N_18
REMARK    8  A    between atoms: C_12  and  C_13
REMARK                            x       y       z     vdW  Elec       q    Type
REMARK                         _______ _______ _______ _____ _____    ______ ____
ROOT
ATOM      1  C   UNL     1       3.189   5.686  19.648  0.00  0.00    +0.000 C 
ENDROOT
BRANCH   1   2
ATOM      2  C   UNL     1       2.324   4.565  20.184  0.00  0.00    +0.000 A 
ATOM      3  C   UNL     1       2.339   3.831  21.358  0.00  0.00    +0.000 A 
ATOM      4  C   UNL     1       1.290   2.890  21.263  0.00  0.00    +0.000 A 
ATOM      5  C   UNL     1       0.689   3.111  20.048  0.00  0.00    +0.000 A 
ATOM      6  O   UNL     1       1.298   4.136  19.390  0.00  0.00    +0.000 OA
ENDBRANCH   1   2
BRANCH   1   7
ATOM      7  N   UNL     1       3.655   5.225  18.307  0.00  0.00    +0.000 NA
ATOM      8  H   UNL     1       2.858   5.075  17.684  0.00  0.00    +0.000 HD
BRANCH   7   9
ATOM      9  S   UNL     1       4.735   3.924  18.220  0.00  0.00    +0.000 S 
ATOM     10  O   UNL     1       3.986   2.697  18.084  0.00  0.00    +0.000 OA
ATOM     11  O   UNL     1       5.677   4.115  19.301  0.00  0.00    +0.000 OA
BRANCH   9  16
ATOM     12  C   UNL     1       7.660   5.154  13.061  0.00  0.00    +0.000 C 
ATOM     13  C   UNL     1       6.947   4.809  14.337  0.00  0.00    +0.000 A 
ATOM     14  C   UNL     1       5.639   4.309  14.311  0.00  0.00    +0.000 A 
ATOM     15  C   UNL     1       4.975   4.006  15.500  0.00  0.00    +0.000 A 
ATOM     16  C   UNL     1       5.632   4.187  16.719  0.00  0.00    +0.000 A 
ATOM     17  C   UNL     1       6.931   4.700  16.763  0.00  0.00    +0.000 A 
ATOM     18  C   UNL     1       7.585   5.010  15.569  0.00  0.00    +0.000 A 
ENDBRANCH   9  16
ENDBRANCH   7   9
ENDBRANCH   1   7
BRANCH   1  19
ATOM     19  C   UNL     1       2.420   6.973  19.570  0.00  0.00    +0.000 C 
ATOM     20  C   UNL     1       1.855   7.680  20.569  0.00  0.00    +0.000 C 
BRANCH  20  21
ATOM     21  C   UNL     1       1.065   8.854  20.433  0.00  0.00    +0.000 A 
ATOM     22  C   UNL     1       1.086   9.855  19.478  0.00  0.00    +0.000 A 
ATOM     23  C   UNL     1       0.121  10.874  19.714  0.00  0.00    +0.000 A 
ATOM     24  C   UNL     1      -0.654  10.600  20.814  0.00  0.00    +0.000 A 
ATOM     25  S   UNL     1      -0.219   9.124  21.554  0.00  0.00    +0.000 S 
ENDBRANCH  20  21
BRANCH  19  26
ATOM     26  N   UNL     1       2.410   7.482  18.224  0.00  0.00    +0.000 N 
ATOM     27  O   UNL     1       1.461   7.143  17.507  0.00  0.00    +0.000 OA
ATOM     28  O   UNL     1       3.381   8.159  17.863  0.00  0.00    +0.000 OA
ENDBRANCH  19  26
ENDBRANCH   1  19
TORSDOF 7
ENDMDL
MODEL 2
REMARK VINA RESULT:      -7.2      0.725      1.239
REMARK  Name = 
REMARK  8 active torsions:
REMARK  status: ('A' for Active; 'I' for Inactive)
REMARK    1  A    between atoms: C_1  and  C_2
REMARK    2  A    between atoms: C_5  and  S_6
REMARK    3  A    between atoms: S_6  and  N_9
REMARK    4  A    between atoms: N_9  and  C_10
REMARK    5  A    between atoms: C_10  and  C_11
REMARK    6  A    between atoms: C_10  and  C_21
REMARK    7  A    between atoms: C_11  and  N_18
REMARK    8  A    between atoms: C_12  and  C_13
REMARK                            x       y       z     vdW  Elec       q    Type
REMARK                         _______ _______ _______ _____ _____    ______ ____
ROOT
ATOM      1  C   UNL     1       3.256   5.750  19.677  0.00  0.00    +0.000 C 
ENDROOT
BRANCH   1   2
ATOM      2  C   UNL     1       2.390   4.582  20.099  0.00  0.00    +0.000 A 
ATOM      3  C   UNL     1       2.094   4.014  21.326  0.00  0.00    +0.000 A 
ATOM      4  C   UNL     1       1.247   2.913  21.071  0.00  0.00    +0.000 A 
ATOM      5  C   UNL     1       1.064   2.881  19.709  0.00  0.00    +0.000 A 
ATOM      6  O   UNL     1       1.741   3.898  19.110  0.00  0.00    +0.000 OA
ENDBRANCH   1   2
BRANCH   1   7
ATOM      7  N   UNL     1       3.832   5.364  18.356  0.00  0.00    +0.000 NA
ATOM      8  H   UNL     1       3.293   4.601  17.939  0.00  0.00    +0.000 HD
BRANCH   7   9
ATOM      9  S   UNL     1       5.493   5.049  18.249  0.00  0.00    +0.000 S 
ATOM     10  O   UNL     1       5.788   3.826  18.958  0.00  0.00    +0.000 OA
ATOM     11  O   UNL     1       6.155   6.291  18.583  0.00  0.00    +0.000 OA
BRANCH   9  16
ATOM     12  C   UNL     1       6.676   3.788  12.445  0.00  0.00    +0.000 C 
ATOM     13  C   UNL     1       6.368   4.138  13.872  0.00  0.00    +0.000 A 
ATOM     14  C   UNL     1       7.296   4.842  14.651  0.00  0.00    +0.000 A 
ATOM     15  C   UNL     1       7.012   5.150  15.981  0.00  0.00    +0.000 A 
ATOM     16  C   UNL     1       5.785   4.768  16.528  0.00  0.00    +0.000 A 
ATOM     17  C   UNL     1       4.855   4.052  15.770  0.00  0.00    +0.000 A 
ATOM     18  C   UNL     1       5.151   3.739  14.442  0.00  0.00    +0.000 A 
ENDBRANCH   9  16
ENDBRANCH   7   9
ENDBRANCH   1   7
BRANCH   1  19
ATOM     19  C   UNL     1       2.454   7.017  19.596  0.00  0.00    +0.000 C 
ATOM     20  C   UNL     1       1.873   7.712  20.594  0.00  0.00    +0.000 C 
BRANCH  20  21
ATOM     21  C   UNL     1       1.052   8.864  20.457  0.00  0.00    +0.000 A 
ATOM     22  C   UNL     1       1.022   9.844  19.480  0.00  0.00    +0.000 A 
ATOM     23  C   UNL     1       0.042  10.847  19.722  0.00  0.00    +0.000 A 
ATOM     24  C   UNL     1      -0.694  10.580  20.851  0.00  0.00    +0.000 A 
ATOM     25  S   UNL     1      -0.203   9.132  21.609  0.00  0.00    +0.000 S 
ENDBRANCH  20  21
BRANCH  19  26
ATOM     26  N   UNL     1       2.429   7.522  18.249  0.00  0.00    +0.000 N 
ATOM     27  O   UNL     1       1.516   7.117  17.519  0.00  0.00    +0.000 OA
ATOM     28  O   UNL     1       3.356   8.264  17.901  0.00  0.00    +0.000 OA
ENDBRANCH  19  26
ENDBRANCH   1  19
TORSDOF 7
ENDMDL
MODEL 3
REMARK VINA RESULT:      -7.2      1.860      2.581
REMARK  Name = 
REMARK  8 active torsions:
REMARK  status: ('A' for Active; 'I' for Inactive)
REMARK    1  A    between atoms: C_1  and  C_2
REMARK    2  A    between atoms: C_5  and  S_6
REMARK    3  A    between atoms: S_6  and  N_9
REMARK    4  A    between atoms: N_9  and  C_10
REMARK    5  A    between atoms: C_10  and  C_11
REMARK    6  A    between atoms: C_10  and  C_21
REMARK    7  A    between atoms: C_11  and  N_18
REMARK    8  A    between atoms: C_12  and  C_13
REMARK                            x       y       z     vdW  Elec       q    Type
REMARK                         _______ _______ _______ _____ _____    ______ ____
ROOT
ATOM      1  C   UNL     1       3.908   5.195  19.188  0.00  0.00    +0.000 C 
ENDROOT
BRANCH   1   2
ATOM      2  C   UNL     1       3.367   3.890  18.642  0.00  0.00    +0.000 A 
ATOM      3  C   UNL     1       2.444   3.583  17.657  0.00  0.00    +0.000 A 
ATOM      4  C   UNL     1       2.331   2.175  17.630  0.00  0.00    +0.000 A 
ATOM      5  C   UNL     1       3.198   1.706  18.587  0.00  0.00    +0.000 A 
ATOM      6  O   UNL     1       3.844   2.736  19.197  0.00  0.00    +0.000 OA
ENDBRANCH   1   2
BRANCH   1   7
ATOM      7  N   UNL     1       4.558   5.875  18.029  0.00  0.00    +0.000 NA
ATOM      8  H   UNL     1       4.025   5.707  17.172  0.00  0.00    +0.000 HD
BRANCH   7   9
ATOM      9  S   UNL     1       6.212   5.633  17.762  0.00  0.00    +0.000 S 
ATOM     10  O   UNL     1       6.707   4.661  18.709  0.00  0.00    +0.000 OA
ATOM     11  O   UNL     1       6.796   6.953  17.665  0.00  0.00    +0.000 OA
BRANCH   9  16
ATOM     12  C   UNL     1       6.339   3.470  12.107  0.00  0.00    +0.000 C 
ATOM     13  C   UNL     1       6.324   3.970  13.522  0.00  0.00    +0.000 A 
ATOM     14  C   UNL     1       5.242   3.689  14.368  0.00  0.00    +0.000 A 
ATOM     15  C   UNL     1       5.225   4.170  15.677  0.00  0.00    +0.000 A 
ATOM     16  C   UNL     1       6.305   4.920  16.147  0.00  0.00    +0.000 A 
ATOM     17  C   UNL     1       7.385   5.222  15.312  0.00  0.00    +0.000 A 
ATOM     18  C   UNL     1       7.389   4.745  14.000  0.00  0.00    +0.000 A 
ENDBRANCH   9  16
ENDBRANCH   7   9
ENDBRANCH   1   7
BRANCH   1  19
ATOM     19  C   UNL     1       2.812   6.024  19.791  0.00  0.00    +0.000 C 
ATOM     20  C   UNL     1       2.521   7.323  19.575  0.00  0.00    +0.000 C 
BRANCH  20  21
ATOM     21  C   UNL     1       1.520   8.086  20.234  0.00  0.00    +0.000 A 
ATOM     22  C   UNL     1       1.032   8.018  21.527  0.00  0.00    +0.000 A 
ATOM     23  C   UNL     1       0.008   8.970  21.791  0.00  0.00    +0.000 A 
ATOM     24  C   UNL     1      -0.225   9.783  20.708  0.00  0.00    +0.000 A 
ATOM     25  S   UNL     1       0.785   9.398  19.387  0.00  0.00    +0.000 S 
ENDBRANCH  20  21
BRANCH  19  26
ATOM     26  N   UNL     1       1.963   5.220  20.629  0.00  0.00    +0.000 N 
ATOM     27  O   UNL     1       2.464   4.782  21.673  0.00  0.00    +0.000 OA
ATOM     28  O   UNL     1       0.825   4.968  20.215  0.00  0.00    +0.000 OA
ENDBRANCH  19  26
ENDBRANCH   1  19
TORSDOF 7
ENDMDL
MODEL 4
REMARK VINA RESULT:      -7.1      0.888      1.312
REMARK  Name = 
REMARK  8 active torsions:
REMARK  status: ('A' for Active; 'I' for Inactive)
REMARK    1  A    between atoms: C_1  and  C_2
REMARK    2  A    between atoms: C_5  and  S_6
REMARK    3  A    between atoms: S_6  and  N_9
REMARK    4  A    between atoms: N_9  and  C_10
REMARK    5  A    between atoms: C_10  and  C_11
REMARK    6  A    between atoms: C_10  and  C_21
REMARK    7  A    between atoms: C_11  and  N_18
REMARK    8  A    between atoms: C_12  and  C_13
REMARK                            x       y       z     vdW  Elec       q    Type
REMARK                         _______ _______ _______ _____ _____    ______ ____
ROOT
ATOM      1  C   UNL     1       3.244   5.691  19.586  0.00  0.00    +0.000 C 
ENDROOT
BRANCH   1   2
ATOM      2  C   UNL     1       2.351   4.508  19.895  0.00  0.00    +0.000 A 
ATOM      3  C   UNL     1       1.505   3.730  19.123  0.00  0.00    +0.000 A 
ATOM      4  C   UNL     1       0.910   2.790  19.995  0.00  0.00    +0.000 A 
ATOM      5  C   UNL     1       1.435   3.039  21.239  0.00  0.00    +0.000 A 
ATOM      6  O   UNL     1       2.322   4.070  21.189  0.00  0.00    +0.000 OA
ENDBRANCH   1   2
BRANCH   1   7
ATOM      7  N   UNL     1       3.893   5.372  18.281  0.00  0.00    +0.000 NA
ATOM      8  H   UNL     1       3.421   4.584  17.830  0.00  0.00    +0.000 HD
BRANCH   7   9
ATOM      9  S   UNL     1       5.573   5.168  18.232  0.00  0.00    +0.000 S 
ATOM     10  O   UNL     1       5.942   4.071  19.096  0.00  0.00    +0.000 OA
ATOM     11  O   UNL     1       6.139   6.488  18.408  0.00  0.00    +0.000 OA
BRANCH   9  16
ATOM     12  C   UNL     1       6.590   3.835  12.412  0.00  0.00    +0.000 C 
ATOM     13  C   UNL     1       6.351   4.126  13.866  0.00  0.00    +0.000 A 
ATOM     14  C   UNL     1       5.140   3.774  14.475  0.00  0.00    +0.000 A 
ATOM     15  C   UNL     1       4.917   4.063  15.821  0.00  0.00    +0.000 A 
ATOM     16  C   UNL     1       5.918   4.691  16.565  0.00  0.00    +0.000 A 
ATOM     17  C   UNL     1       7.126   5.063  15.968  0.00  0.00    +0.000 A 
ATOM     18  C   UNL     1       7.337   4.779  14.618  0.00  0.00    +0.000 A 
ENDBRANCH   9  16
ENDBRANCH   7   9
ENDBRANCH   1   7
BRANCH   1  19
ATOM     19  C   UNL     1       2.452   6.966  19.528  0.00  0.00    +0.000 C 
ATOM     20  C   UNL     1       1.916   7.672  20.543  0.00  0.00    +0.000 C 
BRANCH  20  21
ATOM     21  C   UNL     1       1.103   8.833  20.429  0.00  0.00    +0.000 A 
ATOM     22  C   UNL     1       1.070   9.826  19.466  0.00  0.00    +0.000 A 
ATOM     23  C   UNL     1       0.100  10.832  19.732  0.00  0.00    +0.000 A 
ATOM     24  C   UNL     1      -0.625  10.556  20.865  0.00  0.00    +0.000 A 
ATOM     25  S   UNL     1      -0.138   9.095  21.599  0.00  0.00    +0.000 S 
ENDBRANCH  20  21
BRANCH  19  26
ATOM     26  N   UNL     1       2.382   7.464  18.180  0.00  0.00    +0.000 N 
ATOM     27  O   UNL     1       3.281   8.236  17.824  0.00  0.00    +0.000 OA
ATOM     28  O   UNL     1       1.398   7.143  17.503  0.00  0.00    +0.000 OA
ENDBRANCH  19  26
ENDBRANCH   1  19
TORSDOF 7
ENDMDL
MODEL 5
REMARK VINA RESULT:      -7.1      1.586      7.289
REMARK  Name = 
REMARK  8 active torsions:
REMARK  status: ('A' for Active; 'I' for Inactive)
REMARK    1  A    between atoms: C_1  and  C_2
REMARK    2  A    between atoms: C_5  and  S_6
REMARK    3  A    between atoms: S_6  and  N_9
REMARK    4  A    between atoms: N_9  and  C_10
REMARK    5  A    between atoms: C_10  and  C_11
REMARK    6  A    between atoms: C_10  and  C_21
REMARK    7  A    between atoms: C_11  and  N_18
REMARK    8  A    between atoms: C_12  and  C_13
REMARK                            x       y       z     vdW  Elec       q    Type
REMARK                         _______ _______ _______ _____ _____    ______ ____
ROOT
ATOM      1  C   UNL     1       2.149   5.525  18.588  0.00  0.00    +0.000 C 
ENDROOT
BRANCH   1   2
ATOM      2  C   UNL     1       1.914   4.555  19.727  0.00  0.00    +0.000 A 
ATOM      3  C   UNL     1       0.916   3.636  20.001  0.00  0.00    +0.000 A 
ATOM      4  C   UNL     1       1.235   3.049  21.246  0.00  0.00    +0.000 A 
ATOM      5  C   UNL     1       2.411   3.632  21.652  0.00  0.00    +0.000 A 
ATOM      6  O   UNL     1       2.841   4.537  20.731  0.00  0.00    +0.000 OA
ENDBRANCH   1   2
BRANCH   1   7
ATOM      7  N   UNL     1       2.491   6.825  19.234  0.00  0.00    +0.000 NA
ATOM      8  H   UNL     1       2.295   6.788  20.238  0.00  0.00    +0.000 HD
BRANCH   7   9
ATOM      9  S   UNL     1       1.889   8.256  18.559  0.00  0.00    +0.000 S 
ATOM     10  O   UNL     1       0.883   7.929  17.576  0.00  0.00    +0.000 OA
ATOM     11  O   UNL     1       3.046   9.053  18.215  0.00  0.00    +0.000 OA
BRANCH   9  16
ATOM     12  C   UNL     1      -1.145  10.901  23.086  0.00  0.00    +0.000 C 
ATOM     13  C   UNL     1      -0.362  10.273  21.969  0.00  0.00    +0.000 A 
ATOM     14  C   UNL     1      -0.440  10.783  20.667  0.00  0.00    +0.000 A 
ATOM     15  C   UNL     1       0.277  10.185  19.630  0.00  0.00    +0.000 A 
ATOM     16  C   UNL     1       1.090   9.083  19.903  0.00  0.00    +0.000 A 
ATOM     17  C   UNL     1       1.167   8.552  21.194  0.00  0.00    +0.000 A 
ATOM     18  C   UNL     1       0.439   9.150  22.224  0.00  0.00    +0.000 A 
ENDBRANCH   9  16
ENDBRANCH   7   9
ENDBRANCH   1   7
BRANCH   1  19
ATOM     19  C   UNL     1       3.241   5.038  17.680  0.00  0.00    +0.000 C 
ATOM     20  C   UNL     1       4.278   5.727  17.164  0.00  0.00    +0.000 C 
BRANCH  20  21
ATOM     21  C   UNL     1       5.243   5.239  16.241  0.00  0.00    +0.000 A 
ATOM     22  C   UNL     1       5.091   4.601  15.022  0.00  0.00    +0.000 A 
ATOM     23  C   UNL     1       6.329   4.264  14.408  0.00  0.00    +0.000 A 
ATOM     24  C   UNL     1       7.402   4.701  15.145  0.00  0.00    +0.000 A 
ATOM     25  S   UNL     1       6.916   5.513  16.566  0.00  0.00    +0.000 S 
ENDBRANCH  20  21
BRANCH  19  26
ATOM     26  N   UNL     1       3.128   3.621  17.457  0.00  0.00    +0.000 N 
ATOM     27  O   UNL     1       2.167   3.239  16.778  0.00  0.00    +0.000 OA
ATOM     28  O   UNL     1       3.954   2.888  18.015  0.00  0.00    +0.000 OA
ENDBRANCH  19  26
ENDBRANCH   1  19
TORSDOF 7
ENDMDL
MODEL 6
REMARK VINA RESULT:      -7.0      1.874      2.658
REMARK  Name = 
REMARK  8 active torsions:
REMARK  status: ('A' for Active; 'I' for Inactive)
REMARK    1  A    between atoms: C_1  and  C_2
REMARK    2  A    between atoms: C_5  and  S_6
REMARK    3  A    between atoms: S_6  and  N_9
REMARK    4  A    between atoms: N_9  and  C_10
REMARK    5  A    between atoms: C_10  and  C_11
REMARK    6  A    between atoms: C_10  and  C_21
REMARK    7  A    between atoms: C_11  and  N_18
REMARK    8  A    between atoms: C_12  and  C_13
REMARK                            x       y       z     vdW  Elec       q    Type
REMARK                         _______ _______ _______ _____ _____    ______ ____
ROOT
ATOM      1  C   UNL     1       3.933   5.189  19.166  0.00  0.00    +0.000 C 
ENDROOT
BRANCH   1   2
ATOM      2  C   UNL     1       3.398   3.880  18.624  0.00  0.00    +0.000 A 
ATOM      3  C   UNL     1       2.492   3.565  17.626  0.00  0.00    +0.000 A 
ATOM      4  C   UNL     1       2.375   2.157  17.612  0.00  0.00    +0.000 A 
ATOM      5  C   UNL     1       3.223   1.696  18.589  0.00  0.00    +0.000 A 
ATOM      6  O   UNL     1       3.861   2.731  19.200  0.00  0.00    +0.000 OA
ENDBRANCH   1   2
BRANCH   1   7
ATOM      7  N   UNL     1       4.576   5.869  18.004  0.00  0.00    +0.000 NA
ATOM      8  H   UNL     1       4.012   5.746  17.160  0.00  0.00    +0.000 HD
BRANCH   7   9
ATOM      9  S   UNL     1       6.210   5.564  17.681  0.00  0.00    +0.000 S 
ATOM     10  O   UNL     1       6.658   4.466  18.506  0.00  0.00    +0.000 OA
ATOM     11  O   UNL     1       6.870   6.850  17.716  0.00  0.00    +0.000 OA
BRANCH   9  16
ATOM     12  C   UNL     1       6.498   3.441  12.015  0.00  0.00    +0.000 C 
ATOM     13  C   UNL     1       6.411   4.004  13.405  0.00  0.00    +0.000 A 
ATOM     14  C   UNL     1       7.457   4.775  13.930  0.00  0.00    +0.000 A 
ATOM     15  C   UNL     1       7.378   5.281  15.227  0.00  0.00    +0.000 A 
ATOM     16  C   UNL     1       6.240   5.029  15.996  0.00  0.00    +0.000 A 
ATOM     17  C   UNL     1       5.195   4.248  15.492  0.00  0.00    +0.000 A 
ATOM     18  C   UNL     1       5.286   3.738  14.196  0.00  0.00    +0.000 A 
ENDBRANCH   9  16
ENDBRANCH   7   9
ENDBRANCH   1   7
BRANCH   1  19
ATOM     19  C   UNL     1       2.833   6.014  19.769  0.00  0.00    +0.000 C 
ATOM     20  C   UNL     1       2.553   7.317  19.573  0.00  0.00    +0.000 C 
BRANCH  20  21
ATOM     21  C   UNL     1       1.547   8.075  20.231  0.00  0.00    +0.000 A 
ATOM     22  C   UNL     1       1.073   8.017  21.530  0.00  0.00    +0.000 A 
ATOM     23  C   UNL     1       0.038   8.958  21.792  0.00  0.00    +0.000 A 
ATOM     24  C   UNL     1      -0.218   9.753  20.701  0.00  0.00    +0.000 A 
ATOM     25  S   UNL     1       0.784   9.365  19.375  0.00  0.00    +0.000 S 
ENDBRANCH  20  21
BRANCH  19  26
ATOM     26  N   UNL     1       1.969   5.200  20.582  0.00  0.00    +0.000 N 
ATOM     27  O   UNL     1       0.820   5.014  20.160  0.00  0.00    +0.000 OA
ATOM     28  O   UNL     1       2.410   4.807  21.668  0.00  0.00    +0.000 OA
ENDBRANCH  19  26
ENDBRANCH   1  19
TORSDOF 7
ENDMDL
MODEL 7
REMARK VINA RESULT:      -7.0      1.856      2.458
REMARK  Name = 
REMARK  8 active torsions:
REMARK  status: ('A' for Active; 'I' for Inactive)
REMARK    1  A    between atoms: C_1  and  C_2
REMARK    2  A    between atoms: C_5  and  S_6
REMARK    3  A    between atoms: S_6  and  N_9
REMARK    4  A    between atoms: N_9  and  C_10
REMARK    5  A    between atoms: C_10  and  C_11
REMARK    6  A    between atoms: C_10  and  C_21
REMARK    7  A    between atoms: C_11  and  N_18
REMARK    8  A    between atoms: C_12  and  C_13
REMARK                            x       y       z     vdW  Elec       q    Type
REMARK                         _______ _______ _______ _____ _____    ______ ____
ROOT
ATOM      1  C   UNL     1       3.253   5.561  19.534  0.00  0.00    +0.000 C 
ENDROOT
BRANCH   1   2
ATOM      2  C   UNL     1       2.405   4.409  20.031  0.00  0.00    +0.000 A 
ATOM      3  C   UNL     1       1.420   3.632  19.445  0.00  0.00    +0.000 A 
ATOM      4  C   UNL     1       0.970   2.731  20.435  0.00  0.00    +0.000 A 
ATOM      5  C   UNL     1       1.713   2.999  21.559  0.00  0.00    +0.000 A 
ATOM      6  O   UNL     1       2.598   4.005  21.322  0.00  0.00    +0.000 OA
ENDBRANCH   1   2
BRANCH   1   7
ATOM      7  N   UNL     1       3.711   5.160  18.171  0.00  0.00    +0.000 NA
ATOM      8  H   UNL     1       3.002   4.585  17.710  0.00  0.00    +0.000 HD
BRANCH   7   9
ATOM      9  S   UNL     1       5.247   4.470  17.996  0.00  0.00    +0.000 S 
ATOM     10  O   UNL     1       5.323   3.804  16.716  0.00  0.00    +0.000 OA
ATOM     11  O   UNL     1       5.508   3.761  19.230  0.00  0.00    +0.000 OA
BRANCH   9  16
ATOM     12  C   UNL     1       8.827   9.354  18.118  0.00  0.00    +0.000 C 
ATOM     13  C   UNL     1       7.962   8.129  18.055  0.00  0.00    +0.000 A 
ATOM     14  C   UNL     1       6.856   8.078  17.197  0.00  0.00    +0.000 A 
ATOM     15  C   UNL     1       6.046   6.944  17.155  0.00  0.00    +0.000 A 
ATOM     16  C   UNL     1       6.355   5.848  17.962  0.00  0.00    +0.000 A 
ATOM     17  C   UNL     1       7.446   5.888  18.835  0.00  0.00    +0.000 A 
ATOM     18  C   UNL     1       8.246   7.030  18.878  0.00  0.00    +0.000 A 
ENDBRANCH   9  16
ENDBRANCH   7   9
ENDBRANCH   1   7
BRANCH   1  19
ATOM     19  C   UNL     1       2.468   6.841  19.515  0.00  0.00    +0.000 C 
ATOM     20  C   UNL     1       1.969   7.539  20.553  0.00  0.00    +0.000 C 
BRANCH  20  21
ATOM     21  C   UNL     1       1.160   8.706  20.478  0.00  0.00    +0.000 A 
ATOM     22  C   UNL     1       1.150   9.744  19.563  0.00  0.00    +0.000 A 
ATOM     23  C   UNL     1       0.176  10.739  19.856  0.00  0.00    +0.000 A 
ATOM     24  C   UNL     1      -0.575  10.411  20.958  0.00  0.00    +0.000 A 
ATOM     25  S   UNL     1      -0.106   8.915  21.631  0.00  0.00    +0.000 S 
ENDBRANCH  20  21
BRANCH  19  26
ATOM     26  N   UNL     1       2.359   7.354  18.175  0.00  0.00    +0.000 N 
ATOM     27  O   UNL     1       3.220   8.169  17.819  0.00  0.00    +0.000 OA
ATOM     28  O   UNL     1       1.381   7.001  17.505  0.00  0.00    +0.000 OA
ENDBRANCH  19  26
ENDBRANCH   1  19
TORSDOF 7
ENDMDL
MODEL 8
REMARK VINA RESULT:      -7.0      1.687      2.210
REMARK  Name = 
REMARK  8 active torsions:
REMARK  status: ('A' for Active; 'I' for Inactive)
REMARK    1  A    between atoms: C_1  and  C_2
REMARK    2  A    between atoms: C_5  and  S_6
REMARK    3  A    between atoms: S_6  and  N_9
REMARK    4  A    between atoms: N_9  and  C_10
REMARK    5  A    between atoms: C_10  and  C_11
REMARK    6  A    between atoms: C_10  and  C_21
REMARK    7  A    between atoms: C_11  and  N_18
REMARK    8  A    between atoms: C_12  and  C_13
REMARK                            x       y       z     vdW  Elec       q    Type
REMARK                         _______ _______ _______ _____ _____    ______ ____
ROOT
ATOM      1  C   UNL     1       3.106   5.661  19.396  0.00  0.00    +0.000 C 
ENDROOT
BRANCH   1   2
ATOM      2  C   UNL     1       2.306   4.537  20.020  0.00  0.00    +0.000 A 
ATOM      3  C   UNL     1       2.298   3.962  21.280  0.00  0.00    +0.000 A 
ATOM      4  C   UNL     1       1.347   2.918  21.244  0.00  0.00    +0.000 A 
ATOM      5  C   UNL     1       0.822   2.925  19.974  0.00  0.00    +0.000 A 
ATOM      6  O   UNL     1       1.385   3.913  19.226  0.00  0.00    +0.000 OA
ENDBRANCH   1   2
BRANCH   1   7
ATOM      7  N   UNL     1       3.357   5.239  17.987  0.00  0.00    +0.000 NA
ATOM      8  H   UNL     1       2.553   4.724  17.620  0.00  0.00    +0.000 HD
BRANCH   7   9
ATOM      9  S   UNL     1       4.801   4.435  17.620  0.00  0.00    +0.000 S 
ATOM     10  O   UNL     1       4.766   4.006  16.241  0.00  0.00    +0.000 OA
ATOM     11  O   UNL     1       5.017   3.492  18.695  0.00  0.00    +0.000 OA
BRANCH   9  16
ATOM     12  C   UNL     1       8.872   8.855  18.375  0.00  0.00    +0.000 C 
ATOM     13  C   UNL     1       7.887   7.743  18.157  0.00  0.00    +0.000 A 
ATOM     14  C   UNL     1       6.890   7.854  17.179  0.00  0.00    +0.000 A 
ATOM     15  C   UNL     1       5.967   6.825  16.992  0.00  0.00    +0.000 A 
ATOM     16  C   UNL     1       6.054   5.672  17.776  0.00  0.00    +0.000 A 
ATOM     17  C   UNL     1       7.033   5.553  18.767  0.00  0.00    +0.000 A 
ATOM     18  C   UNL     1       7.947   6.592  18.954  0.00  0.00    +0.000 A 
ENDBRANCH   9  16
ENDBRANCH   7   9
ENDBRANCH   1   7
BRANCH   1  19
ATOM     19  C   UNL     1       2.362   6.963  19.474  0.00  0.00    +0.000 C 
ATOM     20  C   UNL     1       1.850   7.578  20.558  0.00  0.00    +0.000 C 
BRANCH  20  21
ATOM     21  C   UNL     1       1.080   8.772  20.569  0.00  0.00    +0.000 A 
ATOM     22  C   UNL     1       1.100   9.871  19.727  0.00  0.00    +0.000 A 
ATOM     23  C   UNL     1       0.161  10.875  20.095  0.00  0.00    +0.000 A 
ATOM     24  C   UNL     1      -0.594  10.497  21.178  0.00  0.00    +0.000 A 
ATOM     25  S   UNL     1      -0.172   8.943  21.744  0.00  0.00    +0.000 S 
ENDBRANCH  20  21
BRANCH  19  26
ATOM     26  N   UNL     1       2.314   7.603  18.186  0.00  0.00    +0.000 N 
ATOM     27  O   UNL     1       1.344   7.334  17.467  0.00  0.00    +0.000 OA
ATOM     28  O   UNL     1       3.274   8.314  17.866  0.00  0.00    +0.000 OA
ENDBRANCH  19  26
ENDBRANCH   1  19
TORSDOF 7
ENDMDL
MODEL 9
REMARK VINA RESULT:      -7.0      1.563      7.338
REMARK  Name = 
REMARK  8 active torsions:
REMARK  status: ('A' for Active; 'I' for Inactive)
REMARK    1  A    between atoms: C_1  and  C_2
REMARK    2  A    between atoms: C_5  and  S_6
REMARK    3  A    between atoms: S_6  and  N_9
REMARK    4  A    between atoms: N_9  and  C_10
REMARK    5  A    between atoms: C_10  and  C_11
REMARK    6  A    between atoms: C_10  and  C_21
REMARK    7  A    between atoms: C_11  and  N_18
REMARK    8  A    between atoms: C_12  and  C_13
REMARK                            x       y       z     vdW  Elec       q    Type
REMARK                         _______ _______ _______ _____ _____    ______ ____
ROOT
ATOM      1  C   UNL     1       2.133   5.578  18.632  0.00  0.00    +0.000 C 
ENDROOT
BRANCH   1   2
ATOM      2  C   UNL     1       1.900   4.599  19.763  0.00  0.00    +0.000 A 
ATOM      3  C   UNL     1       0.899   3.682  20.034  0.00  0.00    +0.000 A 
ATOM      4  C   UNL     1       1.222   3.082  21.271  0.00  0.00    +0.000 A 
ATOM      5  C   UNL     1       2.403   3.654  21.675  0.00  0.00    +0.000 A 
ATOM      6  O   UNL     1       2.833   4.566  20.761  0.00  0.00    +0.000 OA
ENDBRANCH   1   2
BRANCH   1   7
ATOM      7  N   UNL     1       2.441   6.882  19.290  0.00  0.00    +0.000 NA
ATOM      8  H   UNL     1       2.221   6.840  20.288  0.00  0.00    +0.000 HD
BRANCH   7   9
ATOM      9  S   UNL     1       1.835   8.307  18.603  0.00  0.00    +0.000 S 
ATOM     10  O   UNL     1       0.932   7.967  17.529  0.00  0.00    +0.000 OA
ATOM     11  O   UNL     1       2.982   9.160  18.381  0.00  0.00    +0.000 OA
BRANCH   9  16
ATOM     12  C   UNL     1      -1.120  11.099  23.092  0.00  0.00    +0.000 C 
ATOM     13  C   UNL     1      -0.418  10.378  21.978  0.00  0.00    +0.000 A 
ATOM     14  C   UNL     1       0.439   9.304  22.250  0.00  0.00    +0.000 A 
ATOM     15  C   UNL     1       1.101   8.648  21.213  0.00  0.00    +0.000 A 
ATOM     16  C   UNL     1       0.890   9.059  19.895  0.00  0.00    +0.000 A 
ATOM     17  C   UNL     1       0.051  10.139  19.607  0.00  0.00    +0.000 A 
ATOM     18  C   UNL     1      -0.601  10.796  20.652  0.00  0.00    +0.000 A 
ENDBRANCH   9  16
ENDBRANCH   7   9
ENDBRANCH   1   7
BRANCH   1  19
ATOM     19  C   UNL     1       3.248   5.117  17.738  0.00  0.00    +0.000 C 
ATOM     20  C   UNL     1       4.305   5.816  17.279  0.00  0.00    +0.000 C 
BRANCH  20  21
ATOM     21  C   UNL     1       5.292   5.356  16.366  0.00  0.00    +0.000 A 
ATOM     22  C   UNL     1       5.251   5.193  14.992  0.00  0.00    +0.000 A 
ATOM     23  C   UNL     1       6.468   4.691  14.452  0.00  0.00    +0.000 A 
ATOM     24  C   UNL     1       7.431   4.533  15.418  0.00  0.00    +0.000 A 
ATOM     25  S   UNL     1       6.869   4.989  16.964  0.00  0.00    +0.000 S 
ENDBRANCH  20  21
BRANCH  19  26
ATOM     26  N   UNL     1       3.131   3.711  17.458  0.00  0.00    +0.000 N 
ATOM     27  O   UNL     1       3.994   2.972  17.947  0.00  0.00    +0.000 OA
ATOM     28  O   UNL     1       2.224   3.354  16.696  0.00  0.00    +0.000 OA
ENDBRANCH  19  26
ENDBRANCH   1  19
TORSDOF 7
ENDMDL
