MODEL 1
REMARK VINA RESULT:      -7.0      0.000      0.000
REMARK  Name = 
REMARK  5 active torsions:
REMARK  status: ('A' for Active; 'I' for Inactive)
REMARK    1  A    between atoms: C_2  and  O_3
REMARK    2  A    between atoms: C_2  and  C_14
REMARK    3  A    between atoms: O_3  and  C_4
REMARK    4  A    between atoms: C_4  and  C_5
REMARK    5  A    between atoms: C_8  and  N_9
REMARK                            x       y       z     vdW  Elec       q    Type
REMARK                         _______ _______ _______ _____ _____    ______ ____
ROOT
ATOM      1  C   UNL     1       4.397   4.644  16.166  0.00  0.00    +0.000 C 
ENDROOT
BRANCH   1   2
ATOM      2  C   UNL     1       3.765   4.142  17.441  0.00  0.00    +0.000 A 
ATOM      3  C   UNL     1       3.211   5.043  18.363  0.00  0.00    +0.000 A 
ATOM      4  C   UNL     1       2.688   4.588  19.575  0.00  0.00    +0.000 A 
ATOM      5  C   UNL     1       2.724   3.219  19.872  0.00  0.00    +0.000 A 
ATOM      6  C   UNL     1       3.258   2.306  18.955  0.00  0.00    +0.000 A 
ATOM      7  C   UNL     1       3.777   2.770  17.744  0.00  0.00    +0.000 A 
BRANCH   5   8
ATOM      8  N   UNL     1       2.218   2.743  21.166  0.00  0.00    +0.000 N 
ATOM      9  O   UNL     1       0.996   2.794  21.363  0.00  0.00    +0.000 OA
ATOM     10  O   UNL     1       3.044   2.322  21.989  0.00  0.00    +0.000 OA
ENDBRANCH   5   8
ENDBRANCH   1   2
BRANCH   1  11
ATOM     11  O   UNL     1       5.545   3.835  15.877  0.00  0.00    +0.000 OA
BRANCH  11  13
ATOM     12  O   UNL     1       7.271   4.487  14.511  0.00  0.00    +0.000 OA
ATOM     13  C   UNL     1       6.687   4.506  15.586  0.00  0.00    +0.000 C 
BRANCH  13  14
ATOM     14  C   UNL     1       7.176   5.302  16.743  0.00  0.00    +0.000 A 
ATOM     15  C   UNL     1       7.497   4.626  17.912  0.00  0.00    +0.000 A 
ATOM     16  N   UNL     1       7.946   5.260  19.027  0.00  0.00    +0.000 NA
ATOM     17  C   UNL     1       8.056   6.603  18.920  0.00  0.00    +0.000 A 
ATOM     18  C   UNL     1       7.736   7.281  17.753  0.00  0.00    +0.000 A 
ATOM     19  N   UNL     1       7.291   6.654  16.637  0.00  0.00    +0.000 NA
ENDBRANCH  13  14
ENDBRANCH  11  13
ENDBRANCH   1  11
TORSDOF 5
ENDMDL
MODEL 2
REMARK VINA RESULT:      -6.9      2.243      3.294
REMARK  Name = 
REMARK  5 active torsions:
REMARK  status: ('A' for Active; 'I' for Inactive)
REMARK    1  A    between atoms: C_2  and  O_3
REMARK    2  A    between atoms: C_2  and  C_14
REMARK    3  A    between atoms: O_3  and  C_4
REMARK    4  A    between atoms: C_4  and  C_5
REMARK    5  A    between atoms: C_8  and  N_9
REMARK                            x       y       z     vdW  Elec       q    Type
REMARK                         _______ _______ _______ _____ _____    ______ ____
ROOT
ATOM      1  C   UNL     1       5.779   5.799  18.015  0.00  0.00    +0.000 C 
ENDROOT
BRANCH   1   2
ATOM      2  C   UNL     1       4.491   5.091  18.358  0.00  0.00    +0.000 A 
ATOM      3  C   UNL     1       3.844   5.345  19.577  0.00  0.00    +0.000 A 
ATOM      4  C   UNL     1       2.690   4.642  19.928  0.00  0.00    +0.000 A 
ATOM      5  C   UNL     1       2.179   3.672  19.056  0.00  0.00    +0.000 A 
ATOM      6  C   UNL     1       2.803   3.421  17.828  0.00  0.00    +0.000 A 
ATOM      7  C   UNL     1       3.958   4.130  17.484  0.00  0.00    +0.000 A 
BRANCH   5   8
ATOM      8  N   UNL     1       0.993   2.899  19.444  0.00  0.00    +0.000 N 
ATOM      9  O   UNL     1       0.320   2.381  18.541  0.00  0.00    +0.000 OA
ATOM     10  O   UNL     1       0.731   2.811  20.652  0.00  0.00    +0.000 OA
ENDBRANCH   5   8
ENDBRANCH   1   2
BRANCH   1  11
ATOM     11  O   UNL     1       5.985   5.708  16.598  0.00  0.00    +0.000 OA
BRANCH  11  13
ATOM     12  O   UNL     1       7.907   4.497  16.931  0.00  0.00    +0.000 OA
ATOM     13  C   UNL     1       7.046   4.964  16.198  0.00  0.00    +0.000 C 
BRANCH  13  14
ATOM     14  C   UNL     1       7.059   4.758  14.725  0.00  0.00    +0.000 A 
ATOM     15  C   UNL     1       6.210   3.798  14.192  0.00  0.00    +0.000 A 
ATOM     16  N   UNL     1       6.151   3.528  12.862  0.00  0.00    +0.000 NA
ATOM     17  C   UNL     1       6.983   4.261  12.088  0.00  0.00    +0.000 A 
ATOM     18  C   UNL     1       7.833   5.221  12.618  0.00  0.00    +0.000 A 
ATOM     19  N   UNL     1       7.893   5.496  13.944  0.00  0.00    +0.000 NA
ENDBRANCH  13  14
ENDBRANCH  11  13
ENDBRANCH   1  11
TORSDOF 5
ENDMDL
MODEL 3
REMARK VINA RESULT:      -6.8      0.518      1.394
REMARK  Name = 
REMARK  5 active torsions:
REMARK  status: ('A' for Active; 'I' for Inactive)
REMARK    1  A    between atoms: C_2  and  O_3
REMARK    2  A    between atoms: C_2  and  C_14
REMARK    3  A    between atoms: O_3  and  C_4
REMARK    4  A    between atoms: C_4  and  C_5
REMARK    5  A    between atoms: C_8  and  N_9
REMARK                            x       y       z     vdW  Elec       q    Type
REMARK                         _______ _______ _______ _____ _____    ______ ____
ROOT
ATOM      1  C   UNL     1       4.606   4.612  15.677  0.00  0.00    +0.000 C 
ENDROOT
BRANCH   1   2
ATOM      2  C   UNL     1       4.010   4.193  16.999  0.00  0.00    +0.000 A 
ATOM      3  C   UNL     1       4.291   2.928  17.536  0.00  0.00    +0.000 A 
ATOM      4  C   UNL     1       3.687   2.510  18.724  0.00  0.00    +0.000 A 
ATOM      5  C   UNL     1       2.788   3.363  19.379  0.00  0.00    +0.000 A 
ATOM      6  C   UNL     1       2.511   4.636  18.864  0.00  0.00    +0.000 A 
ATOM      7  C   UNL     1       3.122   5.045  17.676  0.00  0.00    +0.000 A 
BRANCH   5   8
ATOM      8  N   UNL     1       2.115   2.908  20.602  0.00  0.00    +0.000 N 
ATOM      9  O   UNL     1       2.825   2.574  21.561  0.00  0.00    +0.000 OA
ATOM     10  O   UNL     1       0.876   2.881  20.603  0.00  0.00    +0.000 OA
ENDBRANCH   5   8
ENDBRANCH   1   2
BRANCH   1  11
ATOM     11  O   UNL     1       5.904   4.014  15.553  0.00  0.00    +0.000 OA
BRANCH  11  13
ATOM     12  O   UNL     1       7.509   5.151  14.370  0.00  0.00    +0.000 OA
ATOM     13  C   UNL     1       6.944   4.873  15.418  0.00  0.00    +0.000 C 
BRANCH  13  14
ATOM     14  C   UNL     1       7.343   5.474  16.720  0.00  0.00    +0.000 A 
ATOM     15  C   UNL     1       7.562   4.622  17.793  0.00  0.00    +0.000 A 
ATOM     16  N   UNL     1       7.923   5.069  19.024  0.00  0.00    +0.000 NA
ATOM     17  C   UNL     1       8.051   6.411  19.134  0.00  0.00    +0.000 A 
ATOM     18  C   UNL     1       7.833   7.265  18.063  0.00  0.00    +0.000 A 
ATOM     19  N   UNL     1       7.476   6.824  16.832  0.00  0.00    +0.000 NA
ENDBRANCH  13  14
ENDBRANCH  11  13
ENDBRANCH   1  11
TORSDOF 5
ENDMDL
MODEL 4
REMARK VINA RESULT:      -6.7      2.598      6.606
REMARK  Name = 
REMARK  5 active torsions:
REMARK  status: ('A' for Active; 'I' for Inactive)
REMARK    1  A    between atoms: C_2  and  O_3
REMARK    2  A    between atoms: C_2  and  C_14
REMARK    3  A    between atoms: O_3  and  C_4
REMARK    4  A    between atoms: C_4  and  C_5
REMARK    5  A    between atoms: C_8  and  N_9
REMARK                            x       y       z     vdW  Elec       q    Type
REMARK                         _______ _______ _______ _____ _____    ______ ____
ROOT
ATOM      1  C   UNL     1       4.513   5.552  19.324  0.00  0.00    +0.000 C 
ENDROOT
BRANCH   1   2
ATOM      2  C   UNL     1       5.216   5.440  17.993  0.00  0.00    +0.000 A 
ATOM      3  C   UNL     1       4.675   6.049  16.851  0.00  0.00    +0.000 A 
ATOM      4  C   UNL     1       5.286   5.890  15.605  0.00  0.00    +0.000 A 
ATOM      5  C   UNL     1       6.445   5.110  15.498  0.00  0.00    +0.000 A 
ATOM      6  C   UNL     1       7.006   4.510  16.632  0.00  0.00    +0.000 A 
ATOM      7  C   UNL     1       6.389   4.676  17.875  0.00  0.00    +0.000 A 
BRANCH   5   8
ATOM      8  N   UNL     1       7.062   4.902  14.182  0.00  0.00    +0.000 N 
ATOM      9  O   UNL     1       6.546   4.064  13.428  0.00  0.00    +0.000 OA
ATOM     10  O   UNL     1       8.065   5.574  13.902  0.00  0.00    +0.000 OA
ENDBRANCH   5   8
ENDBRANCH   1   2
BRANCH   1  11
ATOM     11  O   UNL     1       3.395   6.438  19.175  0.00  0.00    +0.000 OA
BRANCH  11  13
ATOM     12  O   UNL     1       1.680   6.900  20.630  0.00  0.00    +0.000 OA
ATOM     13  C   UNL     1       2.292   6.131  19.902  0.00  0.00    +0.000 C 
BRANCH  13  14
ATOM     14  C   UNL     1       1.879   4.714  19.716  0.00  0.00    +0.000 A 
ATOM     15  C   UNL     1       1.768   3.913  20.845  0.00  0.00    +0.000 A 
ATOM     16  N   UNL     1       1.404   2.605  20.783  0.00  0.00    +0.000 NA
ATOM     17  C   UNL     1       1.161   2.133  19.540  0.00  0.00    +0.000 A 
ATOM     18  C   UNL     1       1.272   2.931  18.411  0.00  0.00    +0.000 A 
ATOM     19  N   UNL     1       1.631   4.237  18.466  0.00  0.00    +0.000 NA
ENDBRANCH  13  14
ENDBRANCH  11  13
ENDBRANCH   1  11
TORSDOF 5
ENDMDL
MODEL 5
REMARK VINA RESULT:      -6.6      2.084      3.240
REMARK  Name = 
REMARK  5 active torsions:
REMARK  status: ('A' for Active; 'I' for Inactive)
REMARK    1  A    between atoms: C_2  and  O_3
REMARK    2  A    between atoms: C_2  and  C_14
REMARK    3  A    between atoms: O_3  and  C_4
REMARK    4  A    between atoms: C_4  and  C_5
REMARK    5  A    between atoms: C_8  and  N_9
REMARK                            x       y       z     vdW  Elec       q    Type
REMARK                         _______ _______ _______ _____ _____    ______ ____
ROOT
ATOM      1  C   UNL     1       4.950   5.955  16.282  0.00  0.00    +0.000 C 
ENDROOT
BRANCH   1   2
ATOM      2  C   UNL     1       4.277   5.224  17.418  0.00  0.00    +0.000 A 
ATOM      3  C   UNL     1       3.613   4.010  17.187  0.00  0.00    +0.000 A 
ATOM      4  C   UNL     1       2.930   3.366  18.221  0.00  0.00    +0.000 A 
ATOM      5  C   UNL     1       2.906   3.944  19.498  0.00  0.00    +0.000 A 
ATOM      6  C   UNL     1       3.579   5.146  19.747  0.00  0.00    +0.000 A 
ATOM      7  C   UNL     1       4.261   5.782  18.707  0.00  0.00    +0.000 A 
BRANCH   5   8
ATOM      8  N   UNL     1       2.149   3.293  20.575  0.00  0.00    +0.000 N 
ATOM      9  O   UNL     1       0.916   3.416  20.570  0.00  0.00    +0.000 OA
ATOM     10  O   UNL     1       2.788   2.662  21.429  0.00  0.00    +0.000 OA
ENDBRANCH   5   8
ENDBRANCH   1   2
BRANCH   1  11
ATOM     11  O   UNL     1       6.343   6.099  16.595  0.00  0.00    +0.000 OA
BRANCH  11  13
ATOM     12  O   UNL     1       7.832   4.400  17.003  0.00  0.00    +0.000 OA
ATOM     13  C   UNL     1       7.142   5.063  16.241  0.00  0.00    +0.000 C 
BRANCH  13  14
ATOM     14  C   UNL     1       7.094   4.796  14.778  0.00  0.00    +0.000 A 
ATOM     15  C   UNL     1       6.249   3.792  14.325  0.00  0.00    +0.000 A 
ATOM     16  N   UNL     1       6.137   3.465  13.011  0.00  0.00    +0.000 NA
ATOM     17  C   UNL     1       6.912   4.186  12.170  0.00  0.00    +0.000 A 
ATOM     18  C   UNL     1       7.757   5.190  12.620  0.00  0.00    +0.000 A 
ATOM     19  N   UNL     1       7.870   5.523  13.929  0.00  0.00    +0.000 NA
ENDBRANCH  13  14
ENDBRANCH  11  13
ENDBRANCH   1  11
TORSDOF 5
ENDMDL
MODEL 6
REMARK VINA RESULT:      -6.6      2.452      6.599
REMARK  Name = 
REMARK  5 active torsions:
REMARK  status: ('A' for Active; 'I' for Inactive)
REMARK    1  A    between atoms: C_2  and  O_3
REMARK    2  A    between atoms: C_2  and  C_14
REMARK    3  A    between atoms: O_3  and  C_4
REMARK    4  A    between atoms: C_4  and  C_5
REMARK    5  A    between atoms: C_8  and  N_9
REMARK                            x       y       z     vdW  Elec       q    Type
REMARK                         _______ _______ _______ _____ _____    ______ ____
ROOT
ATOM      1  C   UNL     1       4.688   4.492  18.903  0.00  0.00    +0.000 C 
ENDROOT
BRANCH   1   2
ATOM      2  C   UNL     1       5.381   4.521  17.562  0.00  0.00    +0.000 A 
ATOM      3  C   UNL     1       6.693   5.003  17.451  0.00  0.00    +0.000 A 
ATOM      4  C   UNL     1       7.313   5.095  16.202  0.00  0.00    +0.000 A 
ATOM      5  C   UNL     1       6.611   4.708  15.053  0.00  0.00    +0.000 A 
ATOM      6  C   UNL     1       5.307   4.208  15.150  0.00  0.00    +0.000 A 
ATOM      7  C   UNL     1       4.696   4.118  16.404  0.00  0.00    +0.000 A 
BRANCH   5   8
ATOM      8  N   UNL     1       7.243   4.849  13.735  0.00  0.00    +0.000 N 
ATOM      9  O   UNL     1       8.180   5.653  13.626  0.00  0.00    +0.000 OA
ATOM     10  O   UNL     1       6.800   4.158  12.806  0.00  0.00    +0.000 OA
ENDBRANCH   5   8
ENDBRANCH   1   2
BRANCH   1  11
ATOM     11  O   UNL     1       5.358   3.540  19.741  0.00  0.00    +0.000 OA
BRANCH  11  13
ATOM     12  O   UNL     1       5.163   1.335  20.352  0.00  0.00    +0.000 OA
ATOM     13  C   UNL     1       4.671   2.404  20.015  0.00  0.00    +0.000 C 
BRANCH  13  14
ATOM     14  C   UNL     1       3.202   2.591  19.867  0.00  0.00    +0.000 A 
ATOM     15  C   UNL     1       2.511   3.189  20.912  0.00  0.00    +0.000 A 
ATOM     16  N   UNL     1       1.169   3.399  20.879  0.00  0.00    +0.000 NA
ATOM     17  C   UNL     1       0.548   2.979  19.754  0.00  0.00    +0.000 A 
ATOM     18  C   UNL     1       1.236   2.380  18.709  0.00  0.00    +0.000 A 
ATOM     19  N   UNL     1       2.575   2.172  18.735  0.00  0.00    +0.000 NA
ENDBRANCH  13  14
ENDBRANCH  11  13
ENDBRANCH   1  11
TORSDOF 5
ENDMDL
MODEL 7
REMARK VINA RESULT:      -6.6      2.133      3.243
REMARK  Name = 
REMARK  5 active torsions:
REMARK  status: ('A' for Active; 'I' for Inactive)
REMARK    1  A    between atoms: C_2  and  O_3
REMARK    2  A    between atoms: C_2  and  C_14
REMARK    3  A    between atoms: O_3  and  C_4
REMARK    4  A    between atoms: C_4  and  C_5
REMARK    5  A    between atoms: C_8  and  N_9
REMARK                            x       y       z     vdW  Elec       q    Type
REMARK                         _______ _______ _______ _____ _____    ______ ____
ROOT
ATOM      1  C   UNL     1       4.847   6.351  17.355  0.00  0.00    +0.000 C 
ENDROOT
BRANCH   1   2
ATOM      2  C   UNL     1       4.076   5.462  18.301  0.00  0.00    +0.000 A 
ATOM      3  C   UNL     1       3.246   6.022  19.283  0.00  0.00    +0.000 A 
ATOM      4  C   UNL     1       2.585   5.206  20.204  0.00  0.00    +0.000 A 
ATOM      5  C   UNL     1       2.760   3.817  20.147  0.00  0.00    +0.000 A 
ATOM      6  C   UNL     1       3.572   3.243  19.161  0.00  0.00    +0.000 A 
ATOM      7  C   UNL     1       4.228   4.067  18.243  0.00  0.00    +0.000 A 
BRANCH   5   8
ATOM      8  N   UNL     1       2.105   2.961  21.143  0.00  0.00    +0.000 N 
ATOM      9  O   UNL     1       2.803   2.504  22.061  0.00  0.00    +0.000 OA
ATOM     10  O   UNL     1       0.893   2.740  21.007  0.00  0.00    +0.000 OA
ENDBRANCH   5   8
ENDBRANCH   1   2
BRANCH   1  11
ATOM     11  O   UNL     1       5.160   5.597  16.175  0.00  0.00    +0.000 OA
BRANCH  11  13
ATOM     12  O   UNL     1       7.389   5.571  16.726  0.00  0.00    +0.000 OA
ATOM     13  C   UNL     1       6.479   5.406  15.925  0.00  0.00    +0.000 C 
BRANCH  13  14
ATOM     14  C   UNL     1       6.722   4.953  14.529  0.00  0.00    +0.000 A 
ATOM     15  C   UNL     1       5.910   3.951  14.017  0.00  0.00    +0.000 A 
ATOM     16  N   UNL     1       6.053   3.462  12.757  0.00  0.00    +0.000 NA
ATOM     17  C   UNL     1       7.050   4.019  12.034  0.00  0.00    +0.000 A 
ATOM     18  C   UNL     1       7.864   5.020  12.543  0.00  0.00    +0.000 A 
ATOM     19  N   UNL     1       7.723   5.514  13.797  0.00  0.00    +0.000 NA
ENDBRANCH  13  14
ENDBRANCH  11  13
ENDBRANCH   1  11
TORSDOF 5
ENDMDL
MODEL 8
REMARK VINA RESULT:      -6.6      2.492      6.678
REMARK  Name = 
REMARK  5 active torsions:
REMARK  status: ('A' for Active; 'I' for Inactive)
REMARK    1  A    between atoms: C_2  and  O_3
REMARK    2  A    between atoms: C_2  and  C_14
REMARK    3  A    between atoms: O_3  and  C_4
REMARK    4  A    between atoms: C_4  and  C_5
REMARK    5  A    between atoms: C_8  and  N_9
REMARK                            x       y       z     vdW  Elec       q    Type
REMARK                         _______ _______ _______ _____ _____    ______ ____
ROOT
ATOM      1  C   UNL     1       4.589   5.553  19.219  0.00  0.00    +0.000 C 
ENDROOT
BRANCH   1   2
ATOM      2  C   UNL     1       5.274   5.314  17.895  0.00  0.00    +0.000 A 
ATOM      3  C   UNL     1       6.506   5.923  17.613  0.00  0.00    +0.000 A 
ATOM      4  C   UNL     1       7.110   5.760  16.364  0.00  0.00    +0.000 A 
ATOM      5  C   UNL     1       6.473   4.985  15.385  0.00  0.00    +0.000 A 
ATOM      6  C   UNL     1       5.252   4.356  15.659  0.00  0.00    +0.000 A 
ATOM      7  C   UNL     1       4.657   4.524  16.912  0.00  0.00    +0.000 A 
BRANCH   5   8
ATOM      8  N   UNL     1       7.082   4.850  14.056  0.00  0.00    +0.000 N 
ATOM      9  O   UNL     1       6.625   3.985  13.296  0.00  0.00    +0.000 OA
ATOM     10  O   UNL     1       8.021   5.608  13.772  0.00  0.00    +0.000 OA
ENDBRANCH   5   8
ENDBRANCH   1   2
BRANCH   1  11
ATOM     11  O   UNL     1       3.418   6.349  18.988  0.00  0.00    +0.000 OA
BRANCH  11  13
ATOM     12  O   UNL     1       1.785   6.866  20.516  0.00  0.00    +0.000 OA
ATOM     13  C   UNL     1       2.349   6.074  19.774  0.00  0.00    +0.000 C 
BRANCH  13  14
ATOM     14  C   UNL     1       1.905   4.661  19.637  0.00  0.00    +0.000 A 
ATOM     15  C   UNL     1       1.507   4.219  18.382  0.00  0.00    +0.000 A 
ATOM     16  N   UNL     1       1.079   2.951  18.153  0.00  0.00    +0.000 NA
ATOM     17  C   UNL     1       1.062   2.143  19.237  0.00  0.00    +0.000 A 
ATOM     18  C   UNL     1       1.458   2.582  20.492  0.00  0.00    +0.000 A 
ATOM     19  N   UNL     1       1.890   3.845  20.726  0.00  0.00    +0.000 NA
ENDBRANCH  13  14
ENDBRANCH  11  13
ENDBRANCH   1  11
TORSDOF 5
ENDMDL
MODEL 9
REMARK VINA RESULT:      -6.6      1.031      1.249
REMARK  Name = 
REMARK  5 active torsions:
REMARK  status: ('A' for Active; 'I' for Inactive)
REMARK    1  A    between atoms: C_2  and  O_3
REMARK    2  A    between atoms: C_2  and  C_14
REMARK    3  A    between atoms: O_3  and  C_4
REMARK    4  A    between atoms: C_4  and  C_5
REMARK    5  A    between atoms: C_8  and  N_9
REMARK                            x       y       z     vdW  Elec       q    Type
REMARK                         _______ _______ _______ _____ _____    ______ ____
ROOT
ATOM      1  C   UNL     1       5.086   3.640  15.861  0.00  0.00    +0.000 C 
ENDROOT
BRANCH   1   2
ATOM      2  C   UNL     1       4.091   3.829  16.980  0.00  0.00    +0.000 A 
ATOM      3  C   UNL     1       3.694   5.117  17.369  0.00  0.00    +0.000 A 
ATOM      4  C   UNL     1       2.827   5.298  18.449  0.00  0.00    +0.000 A 
ATOM      5  C   UNL     1       2.356   4.181  19.151  0.00  0.00    +0.000 A 
ATOM      6  C   UNL     1       2.729   2.888  18.764  0.00  0.00    +0.000 A 
ATOM      7  C   UNL     1       3.596   2.716  17.681  0.00  0.00    +0.000 A 
BRANCH   5   8
ATOM      8  N   UNL     1       1.483   4.370  20.317  0.00  0.00    +0.000 N 
ATOM      9  O   UNL     1       1.382   5.514  20.783  0.00  0.00    +0.000 OA
ATOM     10  O   UNL     1       0.901   3.374  20.769  0.00  0.00    +0.000 OA
ENDBRANCH   5   8
ENDBRANCH   1   2
BRANCH   1  11
ATOM     11  O   UNL     1       5.462   4.933  15.364  0.00  0.00    +0.000 OA
BRANCH  11  13
ATOM     12  O   UNL     1       7.537   5.112  14.398  0.00  0.00    +0.000 OA
ATOM     13  C   UNL     1       6.790   5.205  15.363  0.00  0.00    +0.000 C 
BRANCH  13  14
ATOM     14  C   UNL     1       7.270   5.649  16.699  0.00  0.00    +0.000 A 
ATOM     15  C   UNL     1       7.478   4.683  17.673  0.00  0.00    +0.000 A 
ATOM     16  N   UNL     1       7.908   4.984  18.926  0.00  0.00    +0.000 NA
ATOM     17  C   UNL     1       8.117   6.299  19.162  0.00  0.00    +0.000 A 
ATOM     18  C   UNL     1       7.909   7.267  18.191  0.00  0.00    +0.000 A 
ATOM     19  N   UNL     1       7.484   6.972  16.938  0.00  0.00    +0.000 NA
ENDBRANCH  13  14
ENDBRANCH  11  13
ENDBRANCH   1  11
TORSDOF 5
ENDMDL
