MODEL 1
REMARK VINA RESULT:      -8.4      0.000      0.000
REMARK  Name = 
REMARK  8 active torsions:
REMARK  status: ('A' for Active; 'I' for Inactive)
REMARK    1  A    between atoms: C_2  and  C_3
REMARK    2  A    between atoms: C_4  and  N_5
REMARK    3  A    between atoms: C_17  and  C_18
REMARK    4  A    between atoms: C_22  and  C_23
REMARK    5  A    between atoms: C_24  and  C_25
REMARK    6  A    between atoms: C_25  and  C_26
REMARK    7  A    between atoms: C_26  and  C_27
REMARK    8  A    between atoms: C_27  and  O_28
REMARK                            x       y       z     vdW  Elec       q    Type
REMARK                         _______ _______ _______ _____ _____    ______ ____
ROOT
ATOM      1  C   UNL     1       5.420   6.075  17.185  0.00  0.00    +0.000 C 
ATOM      2  C   UNL     1       5.466   5.270  16.104  0.00  0.00    +0.000 C 
ATOM      3  O   UNL     1       4.617   4.182  15.967  0.00  0.00    +0.000 OA
ATOM      4  C   UNL     1       3.849   3.769  17.027  0.00  0.00    +0.000 A 
ATOM      5  C   UNL     1       3.119   2.603  16.823  0.00  0.00    +0.000 A 
ATOM      6  C   UNL     1       2.296   2.110  17.831  0.00  0.00    +0.000 A 
ATOM      7  C   UNL     1       2.217   2.755  19.071  0.00  0.00    +0.000 A 
ATOM      8  C   UNL     1       1.379   2.243  20.076  0.00  0.00    +0.000 A 
ATOM      9  C   UNL     1       1.282   2.862  21.321  0.00  0.00    +0.000 A 
ATOM     10  C   UNL     1       2.038   3.993  21.582  0.00  0.00    +0.000 A 
ATOM     11  C   UNL     1       2.878   4.511  20.594  0.00  0.00    +0.000 A 
ATOM     12  C   UNL     1       2.975   3.931  19.305  0.00  0.00    +0.000 A 
ATOM     13  C   UNL     1       3.768   4.463  18.240  0.00  0.00    +0.000 A 
ATOM     14  C   UNL     1       4.462   5.816  18.331  0.00  0.00    +0.000 C 
ENDROOT
BRANCH  14  15
ATOM     15  C   UNL     1       3.448   6.958  18.437  0.00  0.00    +0.000 A 
ATOM     16  C   UNL     1       3.111   7.723  17.310  0.00  0.00    +0.000 A 
ATOM     17  C   UNL     1       2.167   8.746  17.402  0.00  0.00    +0.000 A 
ATOM     18  C   UNL     1       1.529   9.003  18.614  0.00  0.00    +0.000 A 
ATOM     19  C   UNL     1       1.852   8.252  19.742  0.00  0.00    +0.000 A 
ATOM     20  C   UNL     1       2.817   7.246  19.661  0.00  0.00    +0.000 A 
BRANCH  19  21
ATOM     21  C   UNL     1       1.203   8.503  20.986  0.00  0.00    +0.000 C 
ATOM     22  C   UNL     1       0.654   8.803  22.013  0.00  0.00    +0.000 C 
BRANCH  22  23
ATOM     23  C   UNL     1      -0.038   9.313  23.200  0.00  0.00    +0.000 C 
BRANCH  23  24
ATOM     24  C   UNL     1      -0.688  10.664  22.911  0.00  0.00    +0.000 C 
BRANCH  24  25
ATOM     25  C   UNL     1      -0.317  11.200  21.531  0.00  0.00    +0.000 C 
BRANCH  25  26
ATOM     26  O   UNL     1       0.578  12.296  21.654  0.00  0.00    +0.000 OA
ATOM     27  H   UNL     1       1.073  12.180  22.481  0.00  0.00    +0.000 HD
ENDBRANCH  25  26
ENDBRANCH  24  25
ENDBRANCH  23  24
ENDBRANCH  22  23
ENDBRANCH  19  21
ENDBRANCH  14  15
BRANCH   2  28
ATOM     28  N   UNL     1       6.319   5.414  15.035  0.00  0.00    +0.000 N 
ATOM     29  H   UNL     1       6.248   4.732  14.284  0.00  0.00    +0.000 HD
ATOM     30  H   UNL     1       7.271   5.653  15.304  0.00  0.00    +0.000 HD
ENDBRANCH   2  28
BRANCH   1  32
ATOM     31  N   UNL     1       6.984   8.127  17.350  0.00  0.00    +0.000 NA
ATOM     32  C   UNL     1       6.277   7.212  17.284  0.00  0.00    +0.000 C 
ENDBRANCH   1  32
TORSDOF 8
ENDMDL
MODEL 2
REMARK VINA RESULT:      -8.1      3.841      9.023
REMARK  Name = 
REMARK  8 active torsions:
REMARK  status: ('A' for Active; 'I' for Inactive)
REMARK    1  A    between atoms: C_2  and  C_3
REMARK    2  A    between atoms: C_4  and  N_5
REMARK    3  A    between atoms: C_17  and  C_18
REMARK    4  A    between atoms: C_22  and  C_23
REMARK    5  A    between atoms: C_24  and  C_25
REMARK    6  A    between atoms: C_25  and  C_26
REMARK    7  A    between atoms: C_26  and  C_27
REMARK    8  A    between atoms: C_27  and  O_28
REMARK                            x       y       z     vdW  Elec       q    Type
REMARK                         _______ _______ _______ _____ _____    ______ ____
ROOT
ATOM      1  C   UNL     1       0.337  13.252  20.899  0.00  0.00    +0.000 C 
ATOM      2  C   UNL     1      -0.520  13.996  21.626  0.00  0.00    +0.000 C 
ATOM      3  O   UNL     1      -1.895  13.839  21.520  0.00  0.00    +0.000 OA
ATOM      4  C   UNL     1      -2.425  13.068  20.515  0.00  0.00    +0.000 A 
ATOM      5  C   UNL     1      -3.813  13.067  20.427  0.00  0.00    +0.000 A 
ATOM      6  C   UNL     1      -4.449  12.304  19.452  0.00  0.00    +0.000 A 
ATOM      7  C   UNL     1      -3.706  11.558  18.528  0.00  0.00    +0.000 A 
ATOM      8  C   UNL     1      -4.367  10.793  17.553  0.00  0.00    +0.000 A 
ATOM      9  C   UNL     1      -3.655  10.043  16.618  0.00  0.00    +0.000 A 
ATOM     10  C   UNL     1      -2.269  10.065  16.638  0.00  0.00    +0.000 A 
ATOM     11  C   UNL     1      -1.600  10.824  17.600  0.00  0.00    +0.000 A 
ATOM     12  C   UNL     1      -2.289  11.569  18.588  0.00  0.00    +0.000 A 
ATOM     13  C   UNL     1      -1.649  12.307  19.633  0.00  0.00    +0.000 A 
ATOM     14  C   UNL     1      -0.150  12.226  19.895  0.00  0.00    +0.000 C 
ENDROOT
BRANCH  14  15
ATOM     15  C   UNL     1       0.265  10.819  20.336  0.00  0.00    +0.000 A 
ATOM     16  C   UNL     1      -0.154  10.305  21.573  0.00  0.00    +0.000 A 
ATOM     17  C   UNL     1       0.203   9.014  21.963  0.00  0.00    +0.000 A 
ATOM     18  C   UNL     1       0.961   8.210  21.113  0.00  0.00    +0.000 A 
ATOM     19  C   UNL     1       1.383   8.707  19.881  0.00  0.00    +0.000 A 
ATOM     20  C   UNL     1       1.052  10.008  19.500  0.00  0.00    +0.000 A 
BRANCH  19  21
ATOM     21  C   UNL     1       2.155   7.893  19.002  0.00  0.00    +0.000 C 
ATOM     22  C   UNL     1       2.874   7.209  18.322  0.00  0.00    +0.000 C 
BRANCH  22  23
ATOM     23  C   UNL     1       3.847   6.368  17.618  0.00  0.00    +0.000 C 
BRANCH  23  24
ATOM     24  C   UNL     1       4.710   5.592  18.611  0.00  0.00    +0.000 C 
BRANCH  24  25
ATOM     25  C   UNL     1       5.032   4.184  18.119  0.00  0.00    +0.000 C 
BRANCH  25  26
ATOM     26  O   UNL     1       5.397   3.354  19.212  0.00  0.00    +0.000 OA
ATOM     27  H   UNL     1       5.287   3.872  20.025  0.00  0.00    +0.000 HD
ENDBRANCH  25  26
ENDBRANCH  24  25
ENDBRANCH  23  24
ENDBRANCH  22  23
ENDBRANCH  19  21
ENDBRANCH  14  15
BRANCH   2  28
ATOM     28  N   UNL     1      -0.167  14.964  22.535  0.00  0.00    +0.000 N 
ATOM     29  H   UNL     1       0.787  15.314  22.501  0.00  0.00    +0.000 HD
ATOM     30  H   UNL     1      -0.522  14.790  23.473  0.00  0.00    +0.000 HD
ENDBRANCH   2  28
BRANCH   1  32
ATOM     31  N   UNL     1       2.892  13.519  21.198  0.00  0.00    +0.000 NA
ATOM     32  C   UNL     1       1.748  13.404  21.054  0.00  0.00    +0.000 C 
ENDBRANCH   1  32
TORSDOF 8
ENDMDL
MODEL 3
REMARK VINA RESULT:      -7.8      3.767      8.932
REMARK  Name = 
REMARK  8 active torsions:
REMARK  status: ('A' for Active; 'I' for Inactive)
REMARK    1  A    between atoms: C_2  and  C_3
REMARK    2  A    between atoms: C_4  and  N_5
REMARK    3  A    between atoms: C_17  and  C_18
REMARK    4  A    between atoms: C_22  and  C_23
REMARK    5  A    between atoms: C_24  and  C_25
REMARK    6  A    between atoms: C_25  and  C_26
REMARK    7  A    between atoms: C_26  and  C_27
REMARK    8  A    between atoms: C_27  and  O_28
REMARK                            x       y       z     vdW  Elec       q    Type
REMARK                         _______ _______ _______ _____ _____    ______ ____
ROOT
ATOM      1  C   UNL     1       0.430  13.214  20.880  0.00  0.00    +0.000 C 
ATOM      2  C   UNL     1      -0.423  13.966  21.605  0.00  0.00    +0.000 C 
ATOM      3  O   UNL     1      -1.798  13.811  21.507  0.00  0.00    +0.000 OA
ATOM      4  C   UNL     1      -2.335  13.034  20.511  0.00  0.00    +0.000 A 
ATOM      5  C   UNL     1      -3.723  13.035  20.430  0.00  0.00    +0.000 A 
ATOM      6  C   UNL     1      -4.365  12.266  19.464  0.00  0.00    +0.000 A 
ATOM      7  C   UNL     1      -3.629  11.511  18.543  0.00  0.00    +0.000 A 
ATOM      8  C   UNL     1      -4.297  10.738  17.577  0.00  0.00    +0.000 A 
ATOM      9  C   UNL     1      -3.590   9.980  16.645  0.00  0.00    +0.000 A 
ATOM     10  C   UNL     1      -2.205   9.998  16.657  0.00  0.00    +0.000 A 
ATOM     11  C   UNL     1      -1.529  10.764  17.610  0.00  0.00    +0.000 A 
ATOM     12  C   UNL     1      -2.211  11.519  18.595  0.00  0.00    +0.000 A 
ATOM     13  C   UNL     1      -1.564  12.263  19.631  0.00  0.00    +0.000 A 
ATOM     14  C   UNL     1      -0.065  12.181  19.886  0.00  0.00    +0.000 C 
ENDROOT
BRANCH  14  15
ATOM     15  C   UNL     1       0.349  10.778  20.337  0.00  0.00    +0.000 A 
ATOM     16  C   UNL     1      -0.042  10.284  21.592  0.00  0.00    +0.000 A 
ATOM     17  C   UNL     1       0.313   8.995  21.991  0.00  0.00    +0.000 A 
ATOM     18  C   UNL     1       1.042   8.174  21.133  0.00  0.00    +0.000 A 
ATOM     19  C   UNL     1       1.438   8.649  19.884  0.00  0.00    +0.000 A 
ATOM     20  C   UNL     1       1.108   9.948  19.493  0.00  0.00    +0.000 A 
BRANCH  19  21
ATOM     21  C   UNL     1       2.180   7.816  18.998  0.00  0.00    +0.000 C 
ATOM     22  C   UNL     1       2.810   7.050  18.316  0.00  0.00    +0.000 C 
BRANCH  22  23
ATOM     23  C   UNL     1       3.553   6.010  17.600  0.00  0.00    +0.000 C 
BRANCH  23  24
ATOM     24  C   UNL     1       5.023   6.011  18.012  0.00  0.00    +0.000 C 
BRANCH  24  25
ATOM     25  C   UNL     1       5.872   6.914  17.122  0.00  0.00    +0.000 C 
BRANCH  25  26
ATOM     26  O   UNL     1       6.176   6.255  15.901  0.00  0.00    +0.000 OA
ATOM     27  H   UNL     1       5.412   6.359  15.312  0.00  0.00    +0.000 HD
ENDBRANCH  25  26
ENDBRANCH  24  25
ENDBRANCH  23  24
ENDBRANCH  22  23
ENDBRANCH  19  21
ENDBRANCH  14  15
BRANCH   2  28
ATOM     28  N   UNL     1      -0.063  14.941  22.505  0.00  0.00    +0.000 N 
ATOM     29  H   UNL     1       0.002  15.895  22.161  0.00  0.00    +0.000 HD
ATOM     30  H   UNL     1       0.693  14.661  23.127  0.00  0.00    +0.000 HD
ENDBRANCH   2  28
BRANCH   1  32
ATOM     31  N   UNL     1       2.985  13.487  21.167  0.00  0.00    +0.000 NA
ATOM     32  C   UNL     1       1.841  13.365  21.027  0.00  0.00    +0.000 C 
ENDBRANCH   1  32
TORSDOF 8
ENDMDL
MODEL 4
REMARK VINA RESULT:      -7.8      4.278      9.395
REMARK  Name = 
REMARK  8 active torsions:
REMARK  status: ('A' for Active; 'I' for Inactive)
REMARK    1  A    between atoms: C_2  and  C_3
REMARK    2  A    between atoms: C_4  and  N_5
REMARK    3  A    between atoms: C_17  and  C_18
REMARK    4  A    between atoms: C_22  and  C_23
REMARK    5  A    between atoms: C_24  and  C_25
REMARK    6  A    between atoms: C_25  and  C_26
REMARK    7  A    between atoms: C_26  and  C_27
REMARK    8  A    between atoms: C_27  and  O_28
REMARK                            x       y       z     vdW  Elec       q    Type
REMARK                         _______ _______ _______ _____ _____    ______ ____
ROOT
ATOM      1  C   UNL     1      -0.844  13.799  21.485  0.00  0.00    +0.000 C 
ATOM      2  C   UNL     1      -1.940  14.452  21.919  0.00  0.00    +0.000 C 
ATOM      3  O   UNL     1      -3.215  14.092  21.509  0.00  0.00    +0.000 OA
ATOM      4  C   UNL     1      -3.382  13.196  20.483  0.00  0.00    +0.000 A 
ATOM      5  C   UNL     1      -4.695  12.989  20.073  0.00  0.00    +0.000 A 
ATOM      6  C   UNL     1      -4.971  12.086  19.050  0.00  0.00    +0.000 A 
ATOM      7  C   UNL     1      -3.937  11.403  18.399  0.00  0.00    +0.000 A 
ATOM      8  C   UNL     1      -4.238  10.494  17.370  0.00  0.00    +0.000 A 
ATOM      9  C   UNL     1      -3.230   9.802  16.701  0.00  0.00    +0.000 A 
ATOM     10  C   UNL     1      -1.905  10.025  17.042  0.00  0.00    +0.000 A 
ATOM     11  C   UNL     1      -1.593  10.929  18.060  0.00  0.00    +0.000 A 
ATOM     12  C   UNL     1      -2.591  11.622  18.787  0.00  0.00    +0.000 A 
ATOM     13  C   UNL     1      -2.324  12.504  19.881  0.00  0.00    +0.000 A 
ATOM     14  C   UNL     1      -0.937  12.656  20.492  0.00  0.00    +0.000 C 
ENDROOT
BRANCH  14  15
ATOM     15  C   UNL     1      -0.469  11.353  21.146  0.00  0.00    +0.000 A 
ATOM     16  C   UNL     1      -0.881  11.015  22.444  0.00  0.00    +0.000 A 
ATOM     17  C   UNL     1      -0.474   9.815  23.028  0.00  0.00    +0.000 A 
ATOM     18  C   UNL     1       0.328   8.926  22.315  0.00  0.00    +0.000 A 
ATOM     19  C   UNL     1       0.744   9.247  21.025  0.00  0.00    +0.000 A 
ATOM     20  C   UNL     1       0.363  10.460  20.447  0.00  0.00    +0.000 A 
BRANCH  19  21
ATOM     21  C   UNL     1       1.561   8.344  20.285  0.00  0.00    +0.000 C 
ATOM     22  C   UNL     1       2.177   7.529  19.648  0.00  0.00    +0.000 C 
BRANCH  22  23
ATOM     23  C   UNL     1       2.786   6.471  18.838  0.00  0.00    +0.000 C 
BRANCH  23  24
ATOM     24  C   UNL     1       2.099   5.130  19.092  0.00  0.00    +0.000 C 
BRANCH  24  25
ATOM     25  C   UNL     1       1.916   4.323  17.810  0.00  0.00    +0.000 C 
BRANCH  25  26
ATOM     26  O   UNL     1       2.770   3.189  17.817  0.00  0.00    +0.000 OA
ATOM     27  H   UNL     1       2.463   2.584  17.123  0.00  0.00    +0.000 HD
ENDBRANCH  25  26
ENDBRANCH  24  25
ENDBRANCH  23  24
ENDBRANCH  22  23
ENDBRANCH  19  21
ENDBRANCH  14  15
BRANCH   2  28
ATOM     28  N   UNL     1      -1.945  15.513  22.794  0.00  0.00    +0.000 N 
ATOM     29  H   UNL     1      -1.801  15.309  23.779  0.00  0.00    +0.000 HD
ATOM     30  H   UNL     1      -2.678  16.193  22.604  0.00  0.00    +0.000 HD
ENDBRANCH   2  28
BRANCH   1  32
ATOM     31  N   UNL     1       1.504  14.478  22.328  0.00  0.00    +0.000 NA
ATOM     32  C   UNL     1       0.455  14.163  21.951  0.00  0.00    +0.000 C 
ENDBRANCH   1  32
TORSDOF 8
ENDMDL
MODEL 5
REMARK VINA RESULT:      -7.7      4.549     10.218
REMARK  Name = 
REMARK  8 active torsions:
REMARK  status: ('A' for Active; 'I' for Inactive)
REMARK    1  A    between atoms: C_2  and  C_3
REMARK    2  A    between atoms: C_4  and  N_5
REMARK    3  A    between atoms: C_17  and  C_18
REMARK    4  A    between atoms: C_22  and  C_23
REMARK    5  A    between atoms: C_24  and  C_25
REMARK    6  A    between atoms: C_25  and  C_26
REMARK    7  A    between atoms: C_26  and  C_27
REMARK    8  A    between atoms: C_27  and  O_28
REMARK                            x       y       z     vdW  Elec       q    Type
REMARK                         _______ _______ _______ _____ _____    ______ ____
ROOT
ATOM      1  C   UNL     1      -1.461  11.856  22.413  0.00  0.00    +0.000 C 
ATOM      2  C   UNL     1      -2.577  12.441  22.894  0.00  0.00    +0.000 C 
ATOM      3  O   UNL     1      -3.053  13.638  22.379  0.00  0.00    +0.000 OA
ATOM      4  C   UNL     1      -2.284  14.369  21.509  0.00  0.00    +0.000 A 
ATOM      5  C   UNL     1      -2.803  15.606  21.141  0.00  0.00    +0.000 A 
ATOM      6  C   UNL     1      -2.106  16.417  20.250  0.00  0.00    +0.000 A 
ATOM      7  C   UNL     1      -0.864  16.019  19.740  0.00  0.00    +0.000 A 
ATOM      8  C   UNL     1      -0.178  16.851  18.839  0.00  0.00    +0.000 A 
ATOM      9  C   UNL     1       1.062  16.483  18.318  0.00  0.00    +0.000 A 
ATOM     10  C   UNL     1       1.639  15.284  18.706  0.00  0.00    +0.000 A 
ATOM     11  C   UNL     1       0.968  14.450  19.603  0.00  0.00    +0.000 A 
ATOM     12  C   UNL     1      -0.308  14.772  20.125  0.00  0.00    +0.000 A 
ATOM     13  C   UNL     1      -1.062  13.920  20.992  0.00  0.00    +0.000 A 
ATOM     14  C   UNL     1      -0.640  12.491  21.308  0.00  0.00    +0.000 C 
ENDROOT
BRANCH  14  15
ATOM     15  C   UNL     1      -0.672  11.609  20.057  0.00  0.00    +0.000 A 
ATOM     16  C   UNL     1      -1.779  11.631  19.194  0.00  0.00    +0.000 A 
ATOM     17  C   UNL     1      -1.795  10.847  18.040  0.00  0.00    +0.000 A 
ATOM     18  C   UNL     1      -0.698  10.050  17.719  0.00  0.00    +0.000 A 
ATOM     19  C   UNL     1       0.409  10.019  18.565  0.00  0.00    +0.000 A 
ATOM     20  C   UNL     1       0.418  10.781  19.735  0.00  0.00    +0.000 A 
BRANCH  19  21
ATOM     21  C   UNL     1       1.539   9.212  18.245  0.00  0.00    +0.000 C 
ATOM     22  C   UNL     1       2.436   8.458  17.971  0.00  0.00    +0.000 C 
BRANCH  22  23
ATOM     23  C   UNL     1       3.417   7.432  17.606  0.00  0.00    +0.000 C 
BRANCH  23  24
ATOM     24  C   UNL     1       2.989   6.063  18.129  0.00  0.00    +0.000 C 
BRANCH  24  25
ATOM     25  C   UNL     1       3.732   5.673  19.404  0.00  0.00    +0.000 C 
BRANCH  25  26
ATOM     26  O   UNL     1       2.829   5.604  20.497  0.00  0.00    +0.000 OA
ATOM     27  H   UNL     1       3.318   5.262  21.262  0.00  0.00    +0.000 HD
ENDBRANCH  25  26
ENDBRANCH  24  25
ENDBRANCH  23  24
ENDBRANCH  22  23
ENDBRANCH  19  21
ENDBRANCH  14  15
BRANCH   2  28
ATOM     28  N   UNL     1      -3.363  11.951  23.909  0.00  0.00    +0.000 N 
ATOM     29  H   UNL     1      -4.343  12.220  23.914  0.00  0.00    +0.000 HD
ATOM     30  H   UNL     1      -2.912  11.974  24.821  0.00  0.00    +0.000 HD
ENDBRANCH   2  28
BRANCH   1  32
ATOM     31  N   UNL     1      -0.642   9.598  23.371  0.00  0.00    +0.000 NA
ATOM     32  C   UNL     1      -1.013  10.605  22.933  0.00  0.00    +0.000 C 
ENDBRANCH   1  32
TORSDOF 8
ENDMDL
MODEL 6
REMARK VINA RESULT:      -7.7      8.179     11.528
REMARK  Name = 
REMARK  8 active torsions:
REMARK  status: ('A' for Active; 'I' for Inactive)
REMARK    1  A    between atoms: C_2  and  C_3
REMARK    2  A    between atoms: C_4  and  N_5
REMARK    3  A    between atoms: C_17  and  C_18
REMARK    4  A    between atoms: C_22  and  C_23
REMARK    5  A    between atoms: C_24  and  C_25
REMARK    6  A    between atoms: C_25  and  C_26
REMARK    7  A    between atoms: C_26  and  C_27
REMARK    8  A    between atoms: C_27  and  O_28
REMARK                            x       y       z     vdW  Elec       q    Type
REMARK                         _______ _______ _______ _____ _____    ______ ____
ROOT
ATOM      1  C   UNL     1       9.350  16.017  20.064  0.00  0.00    +0.000 C 
ATOM      2  C   UNL     1       9.914  17.024  20.760  0.00  0.00    +0.000 C 
ATOM      3  O   UNL     1      10.123  16.939  22.129  0.00  0.00    +0.000 OA
ATOM      4  C   UNL     1       9.566  15.911  22.848  0.00  0.00    +0.000 A 
ATOM      5  C   UNL     1       9.738  15.979  24.227  0.00  0.00    +0.000 A 
ATOM      6  C   UNL     1       9.225  14.976  25.044  0.00  0.00    +0.000 A 
ATOM      7  C   UNL     1       8.501  13.908  24.499  0.00  0.00    +0.000 A 
ATOM      8  C   UNL     1       7.993  12.905  25.341  0.00  0.00    +0.000 A 
ATOM      9  C   UNL     1       7.266  11.832  24.828  0.00  0.00    +0.000 A 
ATOM     10  C   UNL     1       7.023  11.759  23.466  0.00  0.00    +0.000 A 
ATOM     11  C   UNL     1       7.520  12.752  22.619  0.00  0.00    +0.000 A 
ATOM     12  C   UNL     1       8.293  13.838  23.098  0.00  0.00    +0.000 A 
ATOM     13  C   UNL     1       8.879  14.840  22.262  0.00  0.00    +0.000 A 
ATOM     14  C   UNL     1       8.875  14.747  20.742  0.00  0.00    +0.000 C 
ENDROOT
BRANCH  14  15
ATOM     15  C   UNL     1       9.696  13.551  20.253  0.00  0.00    +0.000 A 
ATOM     16  C   UNL     1      11.096  13.558  20.346  0.00  0.00    +0.000 A 
ATOM     17  C   UNL     1      11.842  12.457  19.925  0.00  0.00    +0.000 A 
ATOM     18  C   UNL     1      11.199  11.324  19.428  0.00  0.00    +0.000 A 
ATOM     19  C   UNL     1       9.809  11.302  19.330  0.00  0.00    +0.000 A 
ATOM     20  C   UNL     1       9.061  12.412  19.725  0.00  0.00    +0.000 A 
BRANCH  19  21
ATOM     21  C   UNL     1       9.140  10.148  18.828  0.00  0.00    +0.000 C 
ATOM     22  C   UNL     1       8.554   9.223  18.330  0.00  0.00    +0.000 C 
BRANCH  22  23
ATOM     23  C   UNL     1       7.835   8.182  17.589  0.00  0.00    +0.000 C 
BRANCH  23  24
ATOM     24  C   UNL     1       7.811   6.875  18.378  0.00  0.00    +0.000 C 
BRANCH  24  25
ATOM     25  C   UNL     1       7.432   5.681  17.507  0.00  0.00    +0.000 C 
BRANCH  25  26
ATOM     26  O   UNL     1       7.228   6.098  16.165  0.00  0.00    +0.000 OA
ATOM     27  H   UNL     1       6.371   6.552  16.125  0.00  0.00    +0.000 HD
ENDBRANCH  25  26
ENDBRANCH  24  25
ENDBRANCH  23  24
ENDBRANCH  22  23
ENDBRANCH  19  21
ENDBRANCH  14  15
BRANCH   2  28
ATOM     28  N   UNL     1      10.347  18.217  20.232  0.00  0.00    +0.000 N 
ATOM     29  H   UNL     1      10.437  18.277  19.221  0.00  0.00    +0.000 HD
ATOM     30  H   UNL     1      11.114  18.638  20.753  0.00  0.00    +0.000 HD
ENDBRANCH   2  28
BRANCH   1  32
ATOM     31  N   UNL     1       9.027  16.183  17.504  0.00  0.00    +0.000 NA
ATOM     32  C   UNL     1       9.182  16.112  18.650  0.00  0.00    +0.000 C 
ENDBRANCH   1  32
TORSDOF 8
ENDMDL
MODEL 7
REMARK VINA RESULT:      -7.7      4.200      9.727
REMARK  Name = 
REMARK  8 active torsions:
REMARK  status: ('A' for Active; 'I' for Inactive)
REMARK    1  A    between atoms: C_2  and  C_3
REMARK    2  A    between atoms: C_4  and  N_5
REMARK    3  A    between atoms: C_17  and  C_18
REMARK    4  A    between atoms: C_22  and  C_23
REMARK    5  A    between atoms: C_24  and  C_25
REMARK    6  A    between atoms: C_25  and  C_26
REMARK    7  A    between atoms: C_26  and  C_27
REMARK    8  A    between atoms: C_27  and  O_28
REMARK                            x       y       z     vdW  Elec       q    Type
REMARK                         _______ _______ _______ _____ _____    ______ ____
ROOT
ATOM      1  C   UNL     1      -0.720  11.572  22.088  0.00  0.00    +0.000 C 
ATOM      2  C   UNL     1      -1.734  12.385  22.443  0.00  0.00    +0.000 C 
ATOM      3  O   UNL     1      -1.935  13.613  21.828  0.00  0.00    +0.000 OA
ATOM      4  C   UNL     1      -0.979  14.127  20.987  0.00  0.00    +0.000 A 
ATOM      5  C   UNL     1      -1.224  15.411  20.513  0.00  0.00    +0.000 A 
ATOM      6  C   UNL     1      -0.323  16.016  19.641  0.00  0.00    +0.000 A 
ATOM      7  C   UNL     1       0.853  15.359  19.258  0.00  0.00    +0.000 A 
ATOM      8  C   UNL     1       1.748  15.986  18.374  0.00  0.00    +0.000 A 
ATOM      9  C   UNL     1       2.929  15.359  17.978  0.00  0.00    +0.000 A 
ATOM     10  C   UNL     1       3.236  14.102  18.475  0.00  0.00    +0.000 A 
ATOM     11  C   UNL     1       2.356  13.471  19.356  0.00  0.00    +0.000 A 
ATOM     12  C   UNL     1       1.131  14.060  19.753  0.00  0.00    +0.000 A 
ATOM     13  C   UNL     1       0.167  13.424  20.598  0.00  0.00    +0.000 A 
ATOM     14  C   UNL     1       0.284  11.966  21.023  0.00  0.00    +0.000 C 
ENDROOT
BRANCH  14  15
ATOM     15  C   UNL     1       0.174  11.023  19.821  0.00  0.00    +0.000 A 
ATOM     16  C   UNL     1      -0.953  11.058  18.986  0.00  0.00    +0.000 A 
ATOM     17  C   UNL     1      -1.041  10.217  17.876  0.00  0.00    +0.000 A 
ATOM     18  C   UNL     1       0.005   9.348  17.572  0.00  0.00    +0.000 A 
ATOM     19  C   UNL     1       1.131   9.302  18.392  0.00  0.00    +0.000 A 
ATOM     20  C   UNL     1       1.210  10.122  19.519  0.00  0.00    +0.000 A 
BRANCH  19  21
ATOM     21  C   UNL     1       2.209   8.421  18.088  0.00  0.00    +0.000 C 
ATOM     22  C   UNL     1       3.057   7.609  17.824  0.00  0.00    +0.000 C 
BRANCH  22  23
ATOM     23  C   UNL     1       3.972   6.522  17.465  0.00  0.00    +0.000 C 
BRANCH  23  24
ATOM     24  C   UNL     1       4.273   5.644  18.678  0.00  0.00    +0.000 C 
BRANCH  24  25
ATOM     25  C   UNL     1       4.443   4.175  18.301  0.00  0.00    +0.000 C 
BRANCH  25  26
ATOM     26  O   UNL     1       5.583   3.631  18.950  0.00  0.00    +0.000 OA
ATOM     27  H   UNL     1       6.366   4.082  18.595  0.00  0.00    +0.000 HD
ENDBRANCH  25  26
ENDBRANCH  24  25
ENDBRANCH  23  24
ENDBRANCH  22  23
ENDBRANCH  19  21
ENDBRANCH  14  15
BRANCH   2  28
ATOM     28  N   UNL     1      -2.671  12.121  23.414  0.00  0.00    +0.000 N 
ATOM     29  H   UNL     1      -3.041  11.175  23.462  0.00  0.00    +0.000 HD
ATOM     30  H   UNL     1      -3.368  12.856  23.518  0.00  0.00    +0.000 HD
ENDBRANCH   2  28
BRANCH   1  32
ATOM     31  N   UNL     1      -0.446   9.259  23.212  0.00  0.00    +0.000 NA
ATOM     32  C   UNL     1      -0.558  10.296  22.708  0.00  0.00    +0.000 C 
ENDBRANCH   1  32
TORSDOF 8
ENDMDL
MODEL 8
REMARK VINA RESULT:      -7.7      4.218      9.299
REMARK  Name = 
REMARK  8 active torsions:
REMARK  status: ('A' for Active; 'I' for Inactive)
REMARK    1  A    between atoms: C_2  and  C_3
REMARK    2  A    between atoms: C_4  and  N_5
REMARK    3  A    between atoms: C_17  and  C_18
REMARK    4  A    between atoms: C_22  and  C_23
REMARK    5  A    between atoms: C_24  and  C_25
REMARK    6  A    between atoms: C_25  and  C_26
REMARK    7  A    between atoms: C_26  and  C_27
REMARK    8  A    between atoms: C_27  and  O_28
REMARK                            x       y       z     vdW  Elec       q    Type
REMARK                         _______ _______ _______ _____ _____    ______ ____
ROOT
ATOM      1  C   UNL     1      -0.196  13.976  21.263  0.00  0.00    +0.000 C 
ATOM      2  C   UNL     1      -1.041  14.923  21.719  0.00  0.00    +0.000 C 
ATOM      3  O   UNL     1      -2.413  14.825  21.538  0.00  0.00    +0.000 OA
ATOM      4  C   UNL     1      -2.932  13.866  20.703  0.00  0.00    +0.000 A 
ATOM      5  C   UNL     1      -4.307  13.924  20.502  0.00  0.00    +0.000 A 
ATOM      6  C   UNL     1      -4.932  12.987  19.685  0.00  0.00    +0.000 A 
ATOM      7  C   UNL     1      -4.188  11.998  19.030  0.00  0.00    +0.000 A 
ATOM      8  C   UNL     1      -4.838  11.058  18.212  0.00  0.00    +0.000 A 
ATOM      9  C   UNL     1      -4.124  10.065  17.545  0.00  0.00    +0.000 A 
ATOM     10  C   UNL     1      -2.745  10.010  17.674  0.00  0.00    +0.000 A 
ATOM     11  C   UNL     1      -2.086  10.940  18.482  0.00  0.00    +0.000 A 
ATOM     12  C   UNL     1      -2.781  11.940  19.204  0.00  0.00    +0.000 A 
ATOM     13  C   UNL     1      -2.158  12.870  20.095  0.00  0.00    +0.000 A 
ATOM     14  C   UNL     1      -0.692  12.768  20.493  0.00  0.00    +0.000 C 
ENDROOT
BRANCH  14  15
ATOM     15  C   UNL     1      -0.416  11.489  21.288  0.00  0.00    +0.000 A 
ATOM     16  C   UNL     1      -0.985  11.298  22.557  0.00  0.00    +0.000 A 
ATOM     17  C   UNL     1      -0.755  10.120  23.269  0.00  0.00    +0.000 A 
ATOM     18  C   UNL     1       0.026   9.108  22.714  0.00  0.00    +0.000 A 
ATOM     19  C   UNL     1       0.597   9.282  21.455  0.00  0.00    +0.000 A 
ATOM     20  C   UNL     1       0.392  10.471  20.751  0.00  0.00    +0.000 A 
BRANCH  19  21
ATOM     21  C   UNL     1       1.394   8.252  20.876  0.00  0.00    +0.000 C 
ATOM     22  C   UNL     1       1.991   7.354  20.344  0.00  0.00    +0.000 C 
BRANCH  22  23
ATOM     23  C   UNL     1       2.589   6.237  19.607  0.00  0.00    +0.000 C 
BRANCH  23  24
ATOM     24  C   UNL     1       2.538   6.492  18.102  0.00  0.00    +0.000 C 
BRANCH  24  25
ATOM     25  C   UNL     1       3.205   7.809  17.715  0.00  0.00    +0.000 C 
BRANCH  25  26
ATOM     26  O   UNL     1       2.229   8.745  17.284  0.00  0.00    +0.000 OA
ATOM     27  H   UNL     1       2.661   9.612  17.220  0.00  0.00    +0.000 HD
ENDBRANCH  25  26
ENDBRANCH  24  25
ENDBRANCH  23  24
ENDBRANCH  22  23
ENDBRANCH  19  21
ENDBRANCH  14  15
BRANCH   2  28
ATOM     28  N   UNL     1      -0.677  16.060  22.400  0.00  0.00    +0.000 N 
ATOM     29  H   UNL     1      -1.406  16.556  22.907  0.00  0.00    +0.000 HD
ATOM     30  H   UNL     1      -0.039  16.658  21.880  0.00  0.00    +0.000 HD
ENDBRANCH   2  28
BRANCH   1  32
ATOM     31  N   UNL     1       2.349  14.144  21.688  0.00  0.00    +0.000 NA
ATOM     32  C   UNL     1       1.208  14.080  21.496  0.00  0.00    +0.000 C 
ENDBRANCH   1  32
TORSDOF 8
ENDMDL
MODEL 9
REMARK VINA RESULT:      -7.7      4.228      9.764
REMARK  Name = 
REMARK  8 active torsions:
REMARK  status: ('A' for Active; 'I' for Inactive)
REMARK    1  A    between atoms: C_2  and  C_3
REMARK    2  A    between atoms: C_4  and  N_5
REMARK    3  A    between atoms: C_17  and  C_18
REMARK    4  A    between atoms: C_22  and  C_23
REMARK    5  A    between atoms: C_24  and  C_25
REMARK    6  A    between atoms: C_25  and  C_26
REMARK    7  A    between atoms: C_26  and  C_27
REMARK    8  A    between atoms: C_27  and  O_28
REMARK                            x       y       z     vdW  Elec       q    Type
REMARK                         _______ _______ _______ _____ _____    ______ ____
ROOT
ATOM      1  C   UNL     1      -0.639  11.670  22.126  0.00  0.00    +0.000 C 
ATOM      2  C   UNL     1      -1.611  12.527  22.496  0.00  0.00    +0.000 C 
ATOM      3  O   UNL     1      -1.774  13.759  21.880  0.00  0.00    +0.000 OA
ATOM      4  C   UNL     1      -0.815  14.231  21.019  0.00  0.00    +0.000 A 
ATOM      5  C   UNL     1      -1.016  15.522  20.544  0.00  0.00    +0.000 A 
ATOM      6  C   UNL     1      -0.108  16.086  19.652  0.00  0.00    +0.000 A 
ATOM      7  C   UNL     1       1.032  15.380  19.248  0.00  0.00    +0.000 A 
ATOM      8  C   UNL     1       1.935  15.966  18.345  0.00  0.00    +0.000 A 
ATOM      9  C   UNL     1       3.080  15.290  17.928  0.00  0.00    +0.000 A 
ATOM     10  C   UNL     1       3.345  14.024  18.424  0.00  0.00    +0.000 A 
ATOM     11  C   UNL     1       2.458  13.432  19.325  0.00  0.00    +0.000 A 
ATOM     12  C   UNL     1       1.266  14.072  19.744  0.00  0.00    +0.000 A 
ATOM     13  C   UNL     1       0.294  13.479  20.610  0.00  0.00    +0.000 A 
ATOM     14  C   UNL     1       0.360  12.019  21.039  0.00  0.00    +0.000 C 
ENDROOT
BRANCH  14  15
ATOM     15  C   UNL     1       0.187  11.078  19.844  0.00  0.00    +0.000 A 
ATOM     16  C   UNL     1      -0.950  11.161  19.026  0.00  0.00    +0.000 A 
ATOM     17  C   UNL     1      -1.094  10.321  17.921  0.00  0.00    +0.000 A 
ATOM     18  C   UNL     1      -0.094   9.403  17.606  0.00  0.00    +0.000 A 
ATOM     19  C   UNL     1       1.041   9.308  18.408  0.00  0.00    +0.000 A 
ATOM     20  C   UNL     1       1.176  10.129  19.530  0.00  0.00    +0.000 A 
BRANCH  19  21
ATOM     21  C   UNL     1       2.072   8.377  18.092  0.00  0.00    +0.000 C 
ATOM     22  C   UNL     1       2.954   7.578  17.916  0.00  0.00    +0.000 C 
BRANCH  22  23
ATOM     23  C   UNL     1       4.019   6.572  17.856  0.00  0.00    +0.000 C 
BRANCH  23  24
ATOM     24  C   UNL     1       5.025   6.914  16.759  0.00  0.00    +0.000 C 
BRANCH  24  25
ATOM     25  C   UNL     1       6.461   6.926  17.275  0.00  0.00    +0.000 C 
BRANCH  25  26
ATOM     26  O   UNL     1       7.327   6.313  16.331  0.00  0.00    +0.000 OA
ATOM     27  H   UNL     1       7.272   5.353  16.462  0.00  0.00    +0.000 HD
ENDBRANCH  25  26
ENDBRANCH  24  25
ENDBRANCH  23  24
ENDBRANCH  22  23
ENDBRANCH  19  21
ENDBRANCH  14  15
BRANCH   2  28
ATOM     28  N   UNL     1      -2.539  12.304  23.487  0.00  0.00    +0.000 N 
ATOM     29  H   UNL     1      -2.189  12.117  24.423  0.00  0.00    +0.000 HD
ATOM     30  H   UNL     1      -3.311  11.709  23.195  0.00  0.00    +0.000 HD
ENDBRANCH   2  28
BRANCH   1  32
ATOM     31  N   UNL     1      -0.402   9.349  23.241  0.00  0.00    +0.000 NA
ATOM     32  C   UNL     1      -0.517  10.392  22.748  0.00  0.00    +0.000 C 
ENDBRANCH   1  32
TORSDOF 8
ENDMDL
