MODEL 1
REMARK VINA RESULT:      -6.7      0.000      0.000
REMARK  Name = 
REMARK  14 active torsions:
REMARK  status: ('A' for Active; 'I' for Inactive)
REMARK    1  A    between atoms: C_1  and  C_2
REMARK    2  A    between atoms: C_2  and  C_3
REMARK    3  A    between atoms: C_2  and  N_4
REMARK    4  A    between atoms: N_4  and  C_5
REMARK    5  A    between atoms: N_4  and  C_28
REMARK    6  A    between atoms: C_5  and  C_6
REMARK    7  A    between atoms: C_6  and  C_7
REMARK    8  A    between atoms: C_7  and  C_8
REMARK    9  A    between atoms: C_7  and  C_19
REMARK   10  A    between atoms: C_7  and  C_22
REMARK   11  A    between atoms: C_8  and  C_9
REMARK   12  A    between atoms: C_9  and  N_10
REMARK   13  A    between atoms: C_28  and  C_29
REMARK   14  A    between atoms: C_28  and  C_30
REMARK                            x       y       z     vdW  Elec       q    Type
REMARK                         _______ _______ _______ _____ _____    ______ ____
ROOT
ATOM      1  C   UNL     1       3.661   6.163  17.964  0.00  0.00    +0.000 C 
ENDROOT
BRANCH   1   2
ATOM      2  C   UNL     1       4.759   5.700  16.961  0.00  0.00    +0.000 A 
ATOM      3  C   UNL     1       4.625   4.533  16.204  0.00  0.00    +0.000 A 
ATOM      4  C   UNL     1       5.655   3.969  15.459  0.00  0.00    +0.000 A 
ATOM      5  C   UNL     1       6.864   4.624  15.369  0.00  0.00    +0.000 A 
ATOM      6  C   UNL     1       6.998   5.877  15.970  0.00  0.00    +0.000 A 
ATOM      7  C   UNL     1       5.947   6.413  16.732  0.00  0.00    +0.000 A 
ENDBRANCH   1   2
BRANCH   1   8
ATOM      8  C   UNL     1       4.041   5.897  19.456  0.00  0.00    +0.000 C 
ATOM      9  N   UNL     1       3.077   5.853  20.418  0.00  0.00    +0.000 N 
ATOM     10  O   UNL     1       5.170   5.565  19.812  0.00  0.00    +0.000 OA
ATOM     11  H   UNL     1       2.201   6.334  20.343  0.00  0.00    +0.000 HD
ATOM     12  H   UNL     1       3.424   5.706  21.359  0.00  0.00    +0.000 HD
ENDBRANCH   1   8
BRANCH   1  13
ATOM     13  C   UNL     1       2.244   5.423  17.717  0.00  0.00    +0.000 C 
BRANCH  13  14
ATOM     14  C   UNL     1       2.155   3.861  17.758  0.00  0.00    +0.000 C 
BRANCH  14  15
ATOM     15  N   UNL     1       2.627   3.207  19.031  0.00  0.00    +0.000 NA
BRANCH  15  17
ATOM     16  C   UNL     1       4.592   2.109  20.216  0.00  0.00    +0.000 C 
ATOM     17  C   UNL     1       3.932   2.484  18.868  0.00  0.00    +0.000 C 
ATOM     18  C   UNL     1       3.881   1.147  18.106  0.00  0.00    +0.000 C 
ENDBRANCH  15  17
BRANCH  15  19
ATOM     19  C   UNL     1       1.517   2.461  19.711  0.00  0.00    +0.000 C 
ATOM     20  C   UNL     1       1.092   2.996  21.089  0.00  0.00    +0.000 C 
ATOM     21  C   UNL     1       0.207   2.452  18.889  0.00  0.00    +0.000 C 
ENDBRANCH  15  19
ENDBRANCH  14  15
ENDBRANCH  13  14
ENDBRANCH   1  13
BRANCH   1  22
ATOM     22  C   UNL     1       3.445   7.742  17.809  0.00  0.00    +0.000 C 
BRANCH  22  23
ATOM     23  C   UNL     1       1.998   8.170  18.142  0.00  0.00    +0.000 C 
BRANCH  23  24
ATOM     24  N   UNL     1       1.310   9.305  17.510  0.00  0.00    +0.000 NA
ATOM     25  C   UNL     1      -0.145   9.356  17.586  0.00  0.00    +0.000 C 
ATOM     26  C   UNL     1      -0.828  10.047  18.802  0.00  0.00    +0.000 C 
ATOM     27  C   UNL     1      -0.796  11.588  18.719  0.00  0.00    +0.000 C 
ATOM     28  C   UNL     1       0.503  12.209  19.227  0.00  0.00    +0.000 C 
ATOM     29  C   UNL     1       1.601  11.156  19.354  0.00  0.00    +0.000 C 
ATOM     30  C   UNL     1       1.119  10.190  20.456  0.00  0.00    +0.000 C 
ATOM     31  C   UNL     1      -0.250   9.567  20.142  0.00  0.00    +0.000 C 
ATOM     32  C   UNL     1       1.943  10.564  17.950  0.00  0.00    +0.000 C 
ENDBRANCH  23  24
ENDBRANCH  22  23
ENDBRANCH   1  22
TORSDOF 10
ENDMDL
MODEL 2
REMARK VINA RESULT:      -6.6      2.011      4.656
REMARK  Name = 
REMARK  14 active torsions:
REMARK  status: ('A' for Active; 'I' for Inactive)
REMARK    1  A    between atoms: C_1  and  C_2
REMARK    2  A    between atoms: C_2  and  C_3
REMARK    3  A    between atoms: C_2  and  N_4
REMARK    4  A    between atoms: N_4  and  C_5
REMARK    5  A    between atoms: N_4  and  C_28
REMARK    6  A    between atoms: C_5  and  C_6
REMARK    7  A    between atoms: C_6  and  C_7
REMARK    8  A    between atoms: C_7  and  C_8
REMARK    9  A    between atoms: C_7  and  C_19
REMARK   10  A    between atoms: C_7  and  C_22
REMARK   11  A    between atoms: C_8  and  C_9
REMARK   12  A    between atoms: C_9  and  N_10
REMARK   13  A    between atoms: C_28  and  C_29
REMARK   14  A    between atoms: C_28  and  C_30
REMARK                            x       y       z     vdW  Elec       q    Type
REMARK                         _______ _______ _______ _____ _____    ______ ____
ROOT
ATOM      1  C   UNL     1       2.742   6.407  19.292  0.00  0.00    +0.000 C 
ENDROOT
BRANCH   1   2
ATOM      2  C   UNL     1       2.027   5.032  19.131  0.00  0.00    +0.000 A 
ATOM      3  C   UNL     1       1.385   4.404  20.201  0.00  0.00    +0.000 A 
ATOM      4  C   UNL     1       0.918   3.094  20.164  0.00  0.00    +0.000 A 
ATOM      5  C   UNL     1       0.997   2.378  18.989  0.00  0.00    +0.000 A 
ATOM      6  C   UNL     1       1.479   3.016  17.843  0.00  0.00    +0.000 A 
ATOM      7  C   UNL     1       1.961   4.332  17.915  0.00  0.00    +0.000 A 
ENDBRANCH   1   2
BRANCH   1   8
ATOM      8  C   UNL     1       2.548   7.347  18.058  0.00  0.00    +0.000 C 
ATOM      9  N   UNL     1       3.626   7.908  17.441  0.00  0.00    +0.000 N 
ATOM     10  O   UNL     1       1.466   7.502  17.495  0.00  0.00    +0.000 OA
ATOM     11  H   UNL     1       4.497   8.086  17.904  0.00  0.00    +0.000 HD
ATOM     12  H   UNL     1       3.398   8.526  16.671  0.00  0.00    +0.000 HD
ENDBRANCH   1   8
BRANCH   1  13
ATOM     13  C   UNL     1       4.339   6.254  19.501  0.00  0.00    +0.000 C 
BRANCH  13  14
ATOM     14  C   UNL     1       5.158   5.270  18.602  0.00  0.00    +0.000 C 
BRANCH  14  15
ATOM     15  N   UNL     1       5.842   5.882  17.407  0.00  0.00    +0.000 NA
BRANCH  15  17
ATOM     16  C   UNL     1       6.815   4.948  15.250  0.00  0.00    +0.000 C 
ATOM     17  C   UNL     1       5.558   5.145  16.130  0.00  0.00    +0.000 C 
ATOM     18  C   UNL     1       4.991   3.721  16.276  0.00  0.00    +0.000 C 
ENDBRANCH  15  17
BRANCH  15  19
ATOM     19  C   UNL     1       7.278   6.206  17.699  0.00  0.00    +0.000 C 
ATOM     20  C   UNL     1       7.660   7.695  17.626  0.00  0.00    +0.000 C 
ATOM     21  C   UNL     1       7.715   5.773  19.119  0.00  0.00    +0.000 C 
ENDBRANCH  15  19
ENDBRANCH  14  15
ENDBRANCH  13  14
ENDBRANCH   1  13
BRANCH   1  22
ATOM     22  C   UNL     1       2.132   7.167  20.562  0.00  0.00    +0.000 C 
BRANCH  22  23
ATOM     23  C   UNL     1       1.474   8.512  20.178  0.00  0.00    +0.000 C 
BRANCH  23  24
ATOM     24  N   UNL     1       0.646   9.313  21.092  0.00  0.00    +0.000 NA
ATOM     25  C   UNL     1       1.182  10.580  21.574  0.00  0.00    +0.000 C 
ATOM     26  C   UNL     1       0.944  11.878  20.751  0.00  0.00    +0.000 C 
ATOM     27  C   UNL     1      -0.485  12.442  20.911  0.00  0.00    +0.000 C 
ATOM     28  C   UNL     1      -1.514  11.792  19.989  0.00  0.00    +0.000 C 
ATOM     29  C   UNL     1      -0.974  10.495  19.392  0.00  0.00    +0.000 C 
ATOM     30  C   UNL     1       0.210  10.916  18.497  0.00  0.00    +0.000 C 
ATOM     31  C   UNL     1       1.288  11.695  19.265  0.00  0.00    +0.000 C 
ATOM     32  C   UNL     1      -0.709   9.452  20.524  0.00  0.00    +0.000 C 
ENDBRANCH  23  24
ENDBRANCH  22  23
ENDBRANCH   1  22
TORSDOF 10
ENDMDL
MODEL 3
REMARK VINA RESULT:      -6.5      3.417      6.555
REMARK  Name = 
REMARK  14 active torsions:
REMARK  status: ('A' for Active; 'I' for Inactive)
REMARK    1  A    between atoms: C_1  and  C_2
REMARK    2  A    between atoms: C_2  and  C_3
REMARK    3  A    between atoms: C_2  and  N_4
REMARK    4  A    between atoms: N_4  and  C_5
REMARK    5  A    between atoms: N_4  and  C_28
REMARK    6  A    between atoms: C_5  and  C_6
REMARK    7  A    between atoms: C_6  and  C_7
REMARK    8  A    between atoms: C_7  and  C_8
REMARK    9  A    between atoms: C_7  and  C_19
REMARK   10  A    between atoms: C_7  and  C_22
REMARK   11  A    between atoms: C_8  and  C_9
REMARK   12  A    between atoms: C_9  and  N_10
REMARK   13  A    between atoms: C_28  and  C_29
REMARK   14  A    between atoms: C_28  and  C_30
REMARK                            x       y       z     vdW  Elec       q    Type
REMARK                         _______ _______ _______ _____ _____    ______ ____
ROOT
ATOM      1  C   UNL     1       5.455   5.654  16.801  0.00  0.00    +0.000 C 
ENDROOT
BRANCH   1   2
ATOM      2  C   UNL     1       6.494   6.571  17.513  0.00  0.00    +0.000 A 
ATOM      3  C   UNL     1       6.641   7.919  17.179  0.00  0.00    +0.000 A 
ATOM      4  C   UNL     1       7.684   8.721  17.630  0.00  0.00    +0.000 A 
ATOM      5  C   UNL     1       8.591   8.210  18.533  0.00  0.00    +0.000 A 
ATOM      6  C   UNL     1       8.394   6.919  19.028  0.00  0.00    +0.000 A 
ATOM      7  C   UNL     1       7.343   6.127  18.540  0.00  0.00    +0.000 A 
ENDBRANCH   1   2
BRANCH   1   8
ATOM      8  C   UNL     1       5.551   4.159  17.247  0.00  0.00    +0.000 C 
ATOM      9  N   UNL     1       6.223   3.817  18.382  0.00  0.00    +0.000 N 
ATOM     10  O   UNL     1       4.914   3.255  16.708  0.00  0.00    +0.000 OA
ATOM     11  H   UNL     1       6.972   4.362  18.765  0.00  0.00    +0.000 HD
ATOM     12  H   UNL     1       6.257   2.822  18.570  0.00  0.00    +0.000 HD
ENDBRANCH   1   8
BRANCH   1  13
ATOM     13  C   UNL     1       5.622   5.661  15.192  0.00  0.00    +0.000 C 
BRANCH  13  14
ATOM     14  C   UNL     1       6.663   4.716  14.506  0.00  0.00    +0.000 C 
BRANCH  14  15
ATOM     15  N   UNL     1       6.557   4.593  13.008  0.00  0.00    +0.000 NA
BRANCH  15  17
ATOM     16  C   UNL     1       4.628   3.456  11.802  0.00  0.00    +0.000 C 
ATOM     17  C   UNL     1       5.960   3.287  12.570  0.00  0.00    +0.000 C 
ATOM     18  C   UNL     1       6.818   2.428  11.623  0.00  0.00    +0.000 C 
ENDBRANCH  15  17
BRANCH  15  19
ATOM     19  C   UNL     1       7.823   5.023  12.328  0.00  0.00    +0.000 C 
ATOM     20  C   UNL     1       7.655   5.985  11.139  0.00  0.00    +0.000 C 
ATOM     21  C   UNL     1       8.794   5.764  13.278  0.00  0.00    +0.000 C 
ENDBRANCH  15  19
ENDBRANCH  14  15
ENDBRANCH  13  14
ENDBRANCH   1  13
BRANCH   1  22
ATOM     22  C   UNL     1       3.979   6.158  17.163  0.00  0.00    +0.000 C 
BRANCH  22  23
ATOM     23  C   UNL     1       3.501   5.631  18.535  0.00  0.00    +0.000 C 
BRANCH  23  24
ATOM     24  N   UNL     1       2.098   5.333  18.858  0.00  0.00    +0.000 NA
ATOM     25  C   UNL     1       1.432   4.270  18.115  0.00  0.00    +0.000 C 
ATOM     26  C   UNL     1       1.516   2.804  18.629  0.00  0.00    +0.000 C 
ATOM     27  C   UNL     1       0.581   2.528  19.827  0.00  0.00    +0.000 C 
ATOM     28  C   UNL     1       1.171   2.927  21.178  0.00  0.00    +0.000 C 
ATOM     29  C   UNL     1       2.385   3.835  20.999  0.00  0.00    +0.000 C 
ATOM     30  C   UNL     1       3.449   2.967  20.297  0.00  0.00    +0.000 C 
ATOM     31  C   UNL     1       2.957   2.387  18.962  0.00  0.00    +0.000 C 
ATOM     32  C   UNL     1       1.958   5.174  20.319  0.00  0.00    +0.000 C 
ENDBRANCH  23  24
ENDBRANCH  22  23
ENDBRANCH   1  22
TORSDOF 10
ENDMDL
MODEL 4
REMARK VINA RESULT:      -6.5      4.791      8.749
REMARK  Name = 
REMARK  14 active torsions:
REMARK  status: ('A' for Active; 'I' for Inactive)
REMARK    1  A    between atoms: C_1  and  C_2
REMARK    2  A    between atoms: C_2  and  C_3
REMARK    3  A    between atoms: C_2  and  N_4
REMARK    4  A    between atoms: N_4  and  C_5
REMARK    5  A    between atoms: N_4  and  C_28
REMARK    6  A    between atoms: C_5  and  C_6
REMARK    7  A    between atoms: C_6  and  C_7
REMARK    8  A    between atoms: C_7  and  C_8
REMARK    9  A    between atoms: C_7  and  C_19
REMARK   10  A    between atoms: C_7  and  C_22
REMARK   11  A    between atoms: C_8  and  C_9
REMARK   12  A    between atoms: C_9  and  N_10
REMARK   13  A    between atoms: C_28  and  C_29
REMARK   14  A    between atoms: C_28  and  C_30
REMARK                            x       y       z     vdW  Elec       q    Type
REMARK                         _______ _______ _______ _____ _____    ______ ____
ROOT
ATOM      1  C   UNL     1      -0.114  11.387  19.143  0.00  0.00    +0.000 C 
ENDROOT
BRANCH   1   2
ATOM      2  C   UNL     1       0.817  10.139  19.102  0.00  0.00    +0.000 A 
ATOM      3  C   UNL     1       1.512   9.773  17.947  0.00  0.00    +0.000 A 
ATOM      4  C   UNL     1       2.184   8.565  17.796  0.00  0.00    +0.000 A 
ATOM      5  C   UNL     1       2.263   7.695  18.861  0.00  0.00    +0.000 A 
ATOM      6  C   UNL     1       1.728   8.085  20.091  0.00  0.00    +0.000 A 
ATOM      7  C   UNL     1       1.039   9.303  20.208  0.00  0.00    +0.000 A 
ENDBRANCH   1   2
BRANCH   1   8
ATOM      8  C   UNL     1      -1.342  11.267  18.183  0.00  0.00    +0.000 C 
ATOM      9  N   UNL     1      -1.572  12.216  17.233  0.00  0.00    +0.000 N 
ATOM     10  O   UNL     1      -2.055  10.266  18.126  0.00  0.00    +0.000 OA
ATOM     11  H   UNL     1      -1.262  13.166  17.315  0.00  0.00    +0.000 HD
ATOM     12  H   UNL     1      -2.408  12.068  16.680  0.00  0.00    +0.000 HD
ENDBRANCH   1   8
BRANCH   1  13
ATOM     13  C   UNL     1       0.654  12.749  18.730  0.00  0.00    +0.000 C 
BRANCH  13  14
ATOM     14  C   UNL     1       2.062  13.070  19.334  0.00  0.00    +0.000 C 
BRANCH  14  15
ATOM     15  N   UNL     1       2.243  14.464  19.879  0.00  0.00    +0.000 NA
BRANCH  15  17
ATOM     16  C   UNL     1       4.032  14.462  18.071  0.00  0.00    +0.000 C 
ATOM     17  C   UNL     1       3.177  15.298  19.051  0.00  0.00    +0.000 C 
ATOM     18  C   UNL     1       2.524  16.360  18.147  0.00  0.00    +0.000 C 
ENDBRANCH  15  17
BRANCH  15  19
ATOM     19  C   UNL     1       2.477  14.450  21.361  0.00  0.00    +0.000 C 
ATOM     20  C   UNL     1       3.949  14.440  21.810  0.00  0.00    +0.000 C 
ATOM     21  C   UNL     1       1.873  15.683  22.075  0.00  0.00    +0.000 C 
ENDBRANCH  15  19
ENDBRANCH  14  15
ENDBRANCH  13  14
ENDBRANCH   1  13
BRANCH   1  22
ATOM     22  C   UNL     1      -0.693  11.558  20.627  0.00  0.00    +0.000 C 
BRANCH  22  23
ATOM     23  C   UNL     1      -1.132  13.010  20.919  0.00  0.00    +0.000 C 
BRANCH  23  24
ATOM     24  N   UNL     1      -1.166  13.604  22.264  0.00  0.00    +0.000 NA
ATOM     25  C   UNL     1      -1.773  14.920  22.420  0.00  0.00    +0.000 C 
ATOM     26  C   UNL     1      -3.301  15.035  22.691  0.00  0.00    +0.000 C 
ATOM     27  C   UNL     1      -3.683  14.706  24.150  0.00  0.00    +0.000 C 
ATOM     28  C   UNL     1      -3.850  13.212  24.425  0.00  0.00    +0.000 C 
ATOM     29  C   UNL     1      -3.248  12.377  23.299  0.00  0.00    +0.000 C 
ATOM     30  C   UNL     1      -4.101  12.690  22.052  0.00  0.00    +0.000 C 
ATOM     31  C   UNL     1      -4.129  14.188  21.712  0.00  0.00    +0.000 C 
ATOM     32  C   UNL     1      -1.707  12.616  23.218  0.00  0.00    +0.000 C 
ENDBRANCH  23  24
ENDBRANCH  22  23
ENDBRANCH   1  22
TORSDOF 10
ENDMDL
MODEL 5
REMARK VINA RESULT:      -6.4      3.034      6.474
REMARK  Name = 
REMARK  14 active torsions:
REMARK  status: ('A' for Active; 'I' for Inactive)
REMARK    1  A    between atoms: C_1  and  C_2
REMARK    2  A    between atoms: C_2  and  C_3
REMARK    3  A    between atoms: C_2  and  N_4
REMARK    4  A    between atoms: N_4  and  C_5
REMARK    5  A    between atoms: N_4  and  C_28
REMARK    6  A    between atoms: C_5  and  C_6
REMARK    7  A    between atoms: C_6  and  C_7
REMARK    8  A    between atoms: C_7  and  C_8
REMARK    9  A    between atoms: C_7  and  C_19
REMARK   10  A    between atoms: C_7  and  C_22
REMARK   11  A    between atoms: C_8  and  C_9
REMARK   12  A    between atoms: C_9  and  N_10
REMARK   13  A    between atoms: C_28  and  C_29
REMARK   14  A    between atoms: C_28  and  C_30
REMARK                            x       y       z     vdW  Elec       q    Type
REMARK                         _______ _______ _______ _____ _____    ______ ____
ROOT
ATOM      1  C   UNL     1       0.866  10.238  18.689  0.00  0.00    +0.000 C 
ENDROOT
BRANCH   1   2
ATOM      2  C   UNL     1      -0.544  10.494  18.081  0.00  0.00    +0.000 A 
ATOM      3  C   UNL     1      -1.166  11.743  18.157  0.00  0.00    +0.000 A 
ATOM      4  C   UNL     1      -2.497  11.969  17.819  0.00  0.00    +0.000 A 
ATOM      5  C   UNL     1      -3.246  10.941  17.291  0.00  0.00    +0.000 A 
ATOM      6  C   UNL     1      -2.626   9.715  17.038  0.00  0.00    +0.000 A 
ATOM      7  C   UNL     1      -1.287   9.511  17.407  0.00  0.00    +0.000 A 
ENDBRANCH   1   2
BRANCH   1   8
ATOM      8  C   UNL     1       1.824  11.466  18.557  0.00  0.00    +0.000 C 
ATOM      9  N   UNL     1       2.521  11.678  17.404  0.00  0.00    +0.000 N 
ATOM     10  O   UNL     1       1.881  12.367  19.392  0.00  0.00    +0.000 OA
ATOM     11  H   UNL     1       2.775  10.945  16.770  0.00  0.00    +0.000 HD
ATOM     12  H   UNL     1       3.138  12.481  17.425  0.00  0.00    +0.000 HD
ENDBRANCH   1   8
BRANCH   1  13
ATOM     13  C   UNL     1       1.626   8.992  17.991  0.00  0.00    +0.000 C 
BRANCH  13  14
ATOM     14  C   UNL     1       2.237   7.852  18.871  0.00  0.00    +0.000 C 
BRANCH  14  15
ATOM     15  N   UNL     1       2.839   6.690  18.123  0.00  0.00    +0.000 NA
BRANCH  15  17
ATOM     16  C   UNL     1       1.788   5.481  20.099  0.00  0.00    +0.000 C 
ATOM     17  C   UNL     1       2.482   5.361  18.722  0.00  0.00    +0.000 C 
ATOM     18  C   UNL     1       1.516   4.482  17.906  0.00  0.00    +0.000 C 
ENDBRANCH  15  17
BRANCH  15  19
ATOM     19  C   UNL     1       4.286   6.927  17.809  0.00  0.00    +0.000 C 
ATOM     20  C   UNL     1       5.272   5.876  18.347  0.00  0.00    +0.000 C 
ATOM     21  C   UNL     1       4.572   6.969  16.289  0.00  0.00    +0.000 C 
ENDBRANCH  15  19
ENDBRANCH  14  15
ENDBRANCH  13  14
ENDBRANCH   1  13
BRANCH   1  22
ATOM     22  C   UNL     1       0.712   9.930  20.253  0.00  0.00    +0.000 C 
BRANCH  22  23
ATOM     23  C   UNL     1      -0.370  10.810  20.919  0.00  0.00    +0.000 C 
BRANCH  23  24
ATOM     24  N   UNL     1      -0.148  11.608  22.133  0.00  0.00    +0.000 NA
ATOM     25  C   UNL     1       0.126  13.031  21.980  0.00  0.00    +0.000 C 
ATOM     26  C   UNL     1      -1.057  14.041  21.932  0.00  0.00    +0.000 C 
ATOM     27  C   UNL     1      -1.666  14.326  23.322  0.00  0.00    +0.000 C 
ATOM     28  C   UNL     1      -2.700  13.294  23.769  0.00  0.00    +0.000 C 
ATOM     29  C   UNL     1      -2.623  12.034  22.910  0.00  0.00    +0.000 C 
ATOM     30  C   UNL     1      -3.034  12.478  21.491  0.00  0.00    +0.000 C 
ATOM     31  C   UNL     1      -2.150  13.608  20.943  0.00  0.00    +0.000 C 
ATOM     32  C   UNL     1      -1.236  11.342  23.095  0.00  0.00    +0.000 C 
ENDBRANCH  23  24
ENDBRANCH  22  23
ENDBRANCH   1  22
TORSDOF 10
ENDMDL
MODEL 6
REMARK VINA RESULT:      -6.4      2.047      4.629
REMARK  Name = 
REMARK  14 active torsions:
REMARK  status: ('A' for Active; 'I' for Inactive)
REMARK    1  A    between atoms: C_1  and  C_2
REMARK    2  A    between atoms: C_2  and  C_3
REMARK    3  A    between atoms: C_2  and  N_4
REMARK    4  A    between atoms: N_4  and  C_5
REMARK    5  A    between atoms: N_4  and  C_28
REMARK    6  A    between atoms: C_5  and  C_6
REMARK    7  A    between atoms: C_6  and  C_7
REMARK    8  A    between atoms: C_7  and  C_8
REMARK    9  A    between atoms: C_7  and  C_19
REMARK   10  A    between atoms: C_7  and  C_22
REMARK   11  A    between atoms: C_8  and  C_9
REMARK   12  A    between atoms: C_9  and  N_10
REMARK   13  A    between atoms: C_28  and  C_29
REMARK   14  A    between atoms: C_28  and  C_30
REMARK                            x       y       z     vdW  Elec       q    Type
REMARK                         _______ _______ _______ _____ _____    ______ ____
ROOT
ATOM      1  C   UNL     1       2.423   6.523  19.430  0.00  0.00    +0.000 C 
ENDROOT
BRANCH   1   2
ATOM      2  C   UNL     1       1.757   5.131  19.220  0.00  0.00    +0.000 A 
ATOM      3  C   UNL     1       1.183   4.419  20.277  0.00  0.00    +0.000 A 
ATOM      4  C   UNL     1       0.766   3.095  20.185  0.00  0.00    +0.000 A 
ATOM      5  C   UNL     1       0.828   2.448  18.970  0.00  0.00    +0.000 A 
ATOM      6  C   UNL     1       1.238   3.165  17.844  0.00  0.00    +0.000 A 
ATOM      7  C   UNL     1       1.670   4.495  17.971  0.00  0.00    +0.000 A 
ENDBRANCH   1   2
BRANCH   1   8
ATOM      8  C   UNL     1       2.291   7.460  18.186  0.00  0.00    +0.000 C 
ATOM      9  N   UNL     1       3.402   7.957  17.573  0.00  0.00    +0.000 N 
ATOM     10  O   UNL     1       1.223   7.667  17.611  0.00  0.00    +0.000 OA
ATOM     11  H   UNL     1       4.277   8.092  18.043  0.00  0.00    +0.000 HD
ATOM     12  H   UNL     1       3.214   8.579  16.796  0.00  0.00    +0.000 HD
ENDBRANCH   1   8
BRANCH   1  13
ATOM     13  C   UNL     1       4.005   6.412  19.749  0.00  0.00    +0.000 C 
BRANCH  13  14
ATOM     14  C   UNL     1       4.890   5.374  18.982  0.00  0.00    +0.000 C 
BRANCH  14  15
ATOM     15  N   UNL     1       5.759   5.932  17.884  0.00  0.00    +0.000 NA
BRANCH  15  17
ATOM     16  C   UNL     1       4.971   3.760  16.820  0.00  0.00    +0.000 C 
ATOM     17  C   UNL     1       5.866   5.015  16.700  0.00  0.00    +0.000 C 
ATOM     18  C   UNL     1       5.470   5.613  15.337  0.00  0.00    +0.000 C 
ENDBRANCH  15  17
BRANCH  15  19
ATOM     19  C   UNL     1       7.041   6.493  18.427  0.00  0.00    +0.000 C 
ATOM     20  C   UNL     1       8.124   5.464  18.792  0.00  0.00    +0.000 C 
ATOM     21  C   UNL     1       7.746   7.448  17.434  0.00  0.00    +0.000 C 
ENDBRANCH  15  19
ENDBRANCH  14  15
ENDBRANCH  13  14
ENDBRANCH   1  13
BRANCH   1  22
ATOM     22  C   UNL     1       1.707   7.265  20.655  0.00  0.00    +0.000 C 
BRANCH  22  23
ATOM     23  C   UNL     1       1.334   8.726  20.316  0.00  0.00    +0.000 C 
BRANCH  23  24
ATOM     24  N   UNL     1       0.066   9.361  20.703  0.00  0.00    +0.000 NA
ATOM     25  C   UNL     1       0.105  10.427  21.697  0.00  0.00    +0.000 C 
ATOM     26  C   UNL     1       0.320  11.898  21.240  0.00  0.00    +0.000 C 
ATOM     27  C   UNL     1      -0.949  12.535  20.634  0.00  0.00    +0.000 C 
ATOM     28  C   UNL     1      -1.158  12.214  19.155  0.00  0.00    +0.000 C 
ATOM     29  C   UNL     1      -0.273  11.050  18.716  0.00  0.00    +0.000 C 
ATOM     30  C   UNL     1       1.177  11.561  18.852  0.00  0.00    +0.000 C 
ATOM     31  C   UNL     1       1.508  12.038  20.275  0.00  0.00    +0.000 C 
ATOM     32  C   UNL     1      -0.674   9.752  19.486  0.00  0.00    +0.000 C 
ENDBRANCH  23  24
ENDBRANCH  22  23
ENDBRANCH   1  22
TORSDOF 10
ENDMDL
MODEL 7
REMARK VINA RESULT:      -6.3      4.810      8.727
REMARK  Name = 
REMARK  14 active torsions:
REMARK  status: ('A' for Active; 'I' for Inactive)
REMARK    1  A    between atoms: C_1  and  C_2
REMARK    2  A    between atoms: C_2  and  C_3
REMARK    3  A    between atoms: C_2  and  N_4
REMARK    4  A    between atoms: N_4  and  C_5
REMARK    5  A    between atoms: N_4  and  C_28
REMARK    6  A    between atoms: C_5  and  C_6
REMARK    7  A    between atoms: C_6  and  C_7
REMARK    8  A    between atoms: C_7  and  C_8
REMARK    9  A    between atoms: C_7  and  C_19
REMARK   10  A    between atoms: C_7  and  C_22
REMARK   11  A    between atoms: C_8  and  C_9
REMARK   12  A    between atoms: C_9  and  N_10
REMARK   13  A    between atoms: C_28  and  C_29
REMARK   14  A    between atoms: C_28  and  C_30
REMARK                            x       y       z     vdW  Elec       q    Type
REMARK                         _______ _______ _______ _____ _____    ______ ____
ROOT
ATOM      1  C   UNL     1      -0.293  11.317  19.031  0.00  0.00    +0.000 C 
ENDROOT
BRANCH   1   2
ATOM      2  C   UNL     1       0.680  10.102  19.092  0.00  0.00    +0.000 A 
ATOM      3  C   UNL     1       1.422   9.692  17.981  0.00  0.00    +0.000 A 
ATOM      4  C   UNL     1       2.137   8.501  17.922  0.00  0.00    +0.000 A 
ATOM      5  C   UNL     1       2.213   7.699  19.040  0.00  0.00    +0.000 A 
ATOM      6  C   UNL     1       1.628   8.143  20.228  0.00  0.00    +0.000 A 
ATOM      7  C   UNL     1       0.896   9.341  20.252  0.00  0.00    +0.000 A 
ENDBRANCH   1   2
BRANCH   1   8
ATOM      8  C   UNL     1      -1.476  11.105  18.032  0.00  0.00    +0.000 C 
ATOM      9  N   UNL     1      -1.728  12.023  17.056  0.00  0.00    +0.000 N 
ATOM     10  O   UNL     1      -2.124  10.062  17.969  0.00  0.00    +0.000 OA
ATOM     11  H   UNL     1      -1.479  12.991  17.131  0.00  0.00    +0.000 HD
ATOM     12  H   UNL     1      -2.534  11.814  16.478  0.00  0.00    +0.000 HD
ENDBRANCH   1   8
BRANCH   1  13
ATOM     13  C   UNL     1       0.447  12.682  18.579  0.00  0.00    +0.000 C 
BRANCH  13  14
ATOM     14  C   UNL     1       1.697  13.197  19.367  0.00  0.00    +0.000 C 
BRANCH  14  15
ATOM     15  N   UNL     1       2.117  14.616  19.084  0.00  0.00    +0.000 NA
BRANCH  15  17
ATOM     16  C   UNL     1       3.313  15.913  17.251  0.00  0.00    +0.000 C 
ATOM     17  C   UNL     1       3.337  14.701  18.212  0.00  0.00    +0.000 C 
ATOM     18  C   UNL     1       4.687  14.842  18.940  0.00  0.00    +0.000 C 
ENDBRANCH  15  17
BRANCH  15  19
ATOM     19  C   UNL     1       2.113  15.452  20.329  0.00  0.00    +0.000 C 
ATOM     20  C   UNL     1       0.962  16.465  20.457  0.00  0.00    +0.000 C 
ATOM     21  C   UNL     1       2.015  14.605  21.620  0.00  0.00    +0.000 C 
ENDBRANCH  15  19
ENDBRANCH  14  15
ENDBRANCH  13  14
ENDBRANCH   1  13
BRANCH   1  22
ATOM     22  C   UNL     1      -0.937  11.542  20.480  0.00  0.00    +0.000 C 
BRANCH  22  23
ATOM     23  C   UNL     1      -2.211  12.415  20.425  0.00  0.00    +0.000 C 
BRANCH  23  24
ATOM     24  N   UNL     1      -2.274  13.808  20.889  0.00  0.00    +0.000 NA
ATOM     25  C   UNL     1      -3.587  14.403  21.103  0.00  0.00    +0.000 C 
ATOM     26  C   UNL     1      -4.280  14.259  22.489  0.00  0.00    +0.000 C 
ATOM     27  C   UNL     1      -3.697  15.206  23.559  0.00  0.00    +0.000 C 
ATOM     28  C   UNL     1      -2.442  14.667  24.245  0.00  0.00    +0.000 C 
ATOM     29  C   UNL     1      -1.851  13.496  23.465  0.00  0.00    +0.000 C 
ATOM     30  C   UNL     1      -2.907  12.374  23.542  0.00  0.00    +0.000 C 
ATOM     31  C   UNL     1      -4.274  12.807  22.992  0.00  0.00    +0.000 C 
ATOM     32  C   UNL     1      -1.382  13.974  22.054  0.00  0.00    +0.000 C 
ENDBRANCH  23  24
ENDBRANCH  22  23
ENDBRANCH   1  22
TORSDOF 10
ENDMDL
MODEL 8
REMARK VINA RESULT:      -6.3      1.915      4.943
REMARK  Name = 
REMARK  14 active torsions:
REMARK  status: ('A' for Active; 'I' for Inactive)
REMARK    1  A    between atoms: C_1  and  C_2
REMARK    2  A    between atoms: C_2  and  C_3
REMARK    3  A    between atoms: C_2  and  N_4
REMARK    4  A    between atoms: N_4  and  C_5
REMARK    5  A    between atoms: N_4  and  C_28
REMARK    6  A    between atoms: C_5  and  C_6
REMARK    7  A    between atoms: C_6  and  C_7
REMARK    8  A    between atoms: C_7  and  C_8
REMARK    9  A    between atoms: C_7  and  C_19
REMARK   10  A    between atoms: C_7  and  C_22
REMARK   11  A    between atoms: C_8  and  C_9
REMARK   12  A    between atoms: C_9  and  N_10
REMARK   13  A    between atoms: C_28  and  C_29
REMARK   14  A    between atoms: C_28  and  C_30
REMARK                            x       y       z     vdW  Elec       q    Type
REMARK                         _______ _______ _______ _____ _____    ______ ____
ROOT
ATOM      1  C   UNL     1       3.021   4.772  18.399  0.00  0.00    +0.000 C 
ENDROOT
BRANCH   1   2
ATOM      2  C   UNL     1       2.297   4.118  19.614  0.00  0.00    +0.000 A 
ATOM      3  C   UNL     1       2.791   4.229  20.916  0.00  0.00    +0.000 A 
ATOM      4  C   UNL     1       2.305   3.498  21.995  0.00  0.00    +0.000 A 
ATOM      5  C   UNL     1       1.215   2.674  21.820  0.00  0.00    +0.000 A 
ATOM      6  C   UNL     1       0.579   2.652  20.576  0.00  0.00    +0.000 A 
ATOM      7  C   UNL     1       1.104   3.386  19.501  0.00  0.00    +0.000 A 
ENDBRANCH   1   2
BRANCH   1   8
ATOM      8  C   UNL     1       3.354   3.752  17.262  0.00  0.00    +0.000 C 
ATOM      9  N   UNL     1       4.482   2.989  17.326  0.00  0.00    +0.000 N 
ATOM     10  O   UNL     1       2.568   3.473  16.359  0.00  0.00    +0.000 OA
ATOM     11  H   UNL     1       5.307   3.265  17.824  0.00  0.00    +0.000 HD
ATOM     12  H   UNL     1       4.627   2.382  16.528  0.00  0.00    +0.000 HD
ENDBRANCH   1   8
BRANCH   1  13
ATOM     13  C   UNL     1       4.423   5.465  18.812  0.00  0.00    +0.000 C 
BRANCH  13  14
ATOM     14  C   UNL     1       5.228   6.297  17.760  0.00  0.00    +0.000 C 
BRANCH  14  15
ATOM     15  N   UNL     1       6.493   5.661  17.244  0.00  0.00    +0.000 NA
BRANCH  15  17
ATOM     16  C   UNL     1       7.812   7.740  17.883  0.00  0.00    +0.000 C 
ATOM     17  C   UNL     1       7.729   6.196  17.908  0.00  0.00    +0.000 C 
ATOM     18  C   UNL     1       7.909   5.848  19.397  0.00  0.00    +0.000 C 
ENDBRANCH  15  17
BRANCH  15  19
ATOM     19  C   UNL     1       6.504   5.589  15.746  0.00  0.00    +0.000 C 
ATOM     20  C   UNL     1       6.695   4.188  15.140  0.00  0.00    +0.000 C 
ATOM     21  C   UNL     1       5.188   6.099  15.111  0.00  0.00    +0.000 C 
ENDBRANCH  15  19
ENDBRANCH  14  15
ENDBRANCH  13  14
ENDBRANCH   1  13
BRANCH   1  22
ATOM     22  C   UNL     1       2.067   5.890  17.763  0.00  0.00    +0.000 C 
BRANCH  22  23
ATOM     23  C   UNL     1       1.565   6.900  18.819  0.00  0.00    +0.000 C 
BRANCH  23  24
ATOM     24  N   UNL     1       2.285   8.127  19.190  0.00  0.00    +0.000 NA
ATOM     25  C   UNL     1       2.433   9.169  18.181  0.00  0.00    +0.000 C 
ATOM     26  C   UNL     1       1.331  10.257  18.029  0.00  0.00    +0.000 C 
ATOM     27  C   UNL     1       1.393  11.338  19.130  0.00  0.00    +0.000 C 
ATOM     28  C   UNL     1       0.684  10.946  20.425  0.00  0.00    +0.000 C 
ATOM     29  C   UNL     1       0.399   9.447  20.461  0.00  0.00    +0.000 C 
ATOM     30  C   UNL     1      -0.605   9.191  19.319  0.00  0.00    +0.000 C 
ATOM     31  C   UNL     1      -0.077   9.647  17.950  0.00  0.00    +0.000 C 
ATOM     32  C   UNL     1       1.740   8.646  20.460  0.00  0.00    +0.000 C 
ENDBRANCH  23  24
ENDBRANCH  22  23
ENDBRANCH   1  22
TORSDOF 10
ENDMDL
MODEL 9
REMARK VINA RESULT:      -6.3      6.510     10.022
REMARK  Name = 
REMARK  14 active torsions:
REMARK  status: ('A' for Active; 'I' for Inactive)
REMARK    1  A    between atoms: C_1  and  C_2
REMARK    2  A    between atoms: C_2  and  C_3
REMARK    3  A    between atoms: C_2  and  N_4
REMARK    4  A    between atoms: N_4  and  C_5
REMARK    5  A    between atoms: N_4  and  C_28
REMARK    6  A    between atoms: C_5  and  C_6
REMARK    7  A    between atoms: C_6  and  C_7
REMARK    8  A    between atoms: C_7  and  C_8
REMARK    9  A    between atoms: C_7  and  C_19
REMARK   10  A    between atoms: C_7  and  C_22
REMARK   11  A    between atoms: C_8  and  C_9
REMARK   12  A    between atoms: C_9  and  N_10
REMARK   13  A    between atoms: C_28  and  C_29
REMARK   14  A    between atoms: C_28  and  C_30
REMARK                            x       y       z     vdW  Elec       q    Type
REMARK                         _______ _______ _______ _____ _____    ______ ____
ROOT
ATOM      1  C   UNL     1      -1.595  12.499  20.092  0.00  0.00    +0.000 C 
ENDROOT
BRANCH   1   2
ATOM      2  C   UNL     1      -0.965  11.359  20.946  0.00  0.00    +0.000 A 
ATOM      3  C   UNL     1      -0.247  10.310  20.364  0.00  0.00    +0.000 A 
ATOM      4  C   UNL     1       0.152   9.169  21.052  0.00  0.00    +0.000 A 
ATOM      5  C   UNL     1      -0.080   9.077  22.407  0.00  0.00    +0.000 A 
ATOM      6  C   UNL     1      -0.646  10.169  23.069  0.00  0.00    +0.000 A 
ATOM      7  C   UNL     1      -1.055  11.300  22.346  0.00  0.00    +0.000 A 
ENDBRANCH   1   2
BRANCH   1   8
ATOM      8  C   UNL     1      -1.952  12.051  18.638  0.00  0.00    +0.000 C 
ATOM      9  N   UNL     1      -1.255  12.540  17.573  0.00  0.00    +0.000 N 
ATOM     10  O   UNL     1      -2.745  11.145  18.389  0.00  0.00    +0.000 OA
ATOM     11  H   UNL     1      -0.788  13.427  17.580  0.00  0.00    +0.000 HD
ATOM     12  H   UNL     1      -1.580  12.215  16.670  0.00  0.00    +0.000 HD
ENDBRANCH   1   8
BRANCH   1  13
ATOM     13  C   UNL     1      -0.615  13.778  19.946  0.00  0.00    +0.000 C 
BRANCH  13  14
ATOM     14  C   UNL     1       0.912  13.638  20.256  0.00  0.00    +0.000 C 
BRANCH  14  15
ATOM     15  N   UNL     1       1.797  14.733  19.721  0.00  0.00    +0.000 NA
BRANCH  15  17
ATOM     16  C   UNL     1       1.658  17.071  20.713  0.00  0.00    +0.000 C 
ATOM     17  C   UNL     1       1.111  16.068  19.671  0.00  0.00    +0.000 C 
ATOM     18  C   UNL     1       1.211  16.837  18.341  0.00  0.00    +0.000 C 
ENDBRANCH  15  17
BRANCH  15  19
ATOM     19  C   UNL     1       2.527  14.299  18.485  0.00  0.00    +0.000 C 
ATOM     20  C   UNL     1       4.047  14.539  18.481  0.00  0.00    +0.000 C 
ATOM     21  C   UNL     1       2.384  12.784  18.204  0.00  0.00    +0.000 C 
ENDBRANCH  15  19
ENDBRANCH  14  15
ENDBRANCH  13  14
ENDBRANCH   1  13
BRANCH   1  22
ATOM     22  C   UNL     1      -2.958  12.977  20.784  0.00  0.00    +0.000 C 
BRANCH  22  23
ATOM     23  C   UNL     1      -2.976  14.499  21.050  0.00  0.00    +0.000 C 
BRANCH  23  24
ATOM     24  N   UNL     1      -3.709  15.131  22.157  0.00  0.00    +0.000 NA
ATOM     25  C   UNL     1      -3.815  14.404  23.416  0.00  0.00    +0.000 C 
ATOM     26  C   UNL     1      -2.706  14.568  24.495  0.00  0.00    +0.000 C 
ATOM     27  C   UNL     1      -2.811  15.896  25.274  0.00  0.00    +0.000 C 
ATOM     28  C   UNL     1      -2.156  17.082  24.568  0.00  0.00    +0.000 C 
ATOM     29  C   UNL     1      -1.875  16.761  23.103  0.00  0.00    +0.000 C 
ATOM     30  C   UNL     1      -0.825  15.631  23.123  0.00  0.00    +0.000 C 
ATOM     31  C   UNL     1      -1.296  14.397  23.908  0.00  0.00    +0.000 C 
ATOM     32  C   UNL     1      -3.215  16.511  22.341  0.00  0.00    +0.000 C 
ENDBRANCH  23  24
ENDBRANCH  22  23
ENDBRANCH   1  22
TORSDOF 10
ENDMDL
