MODEL 1
REMARK VINA RESULT:      -9.5      0.000      0.000
REMARK  Name = 
REMARK  5 active torsions:
REMARK  status: ('A' for Active; 'I' for Inactive)
REMARK    1  A    between atoms: C_2  and  C_3
REMARK    2  A    between atoms: C_3  and  N_4
REMARK    3  A    between atoms: C_9  and  S_10
REMARK    4  A    between atoms: S_10  and  C_11
REMARK    5  A    between atoms: N_21  and  C_22
REMARK                            x       y       z     vdW  Elec       q    Type
REMARK                         _______ _______ _______ _____ _____    ______ ____
ROOT
ATOM      1  N   UNL     1       7.588   6.869  18.306  0.00  0.00    +0.000 N 
ATOM      2  N   UNL     1       6.998   6.844  17.059  0.00  0.00    +0.000 NA
ATOM      3  C   UNL     1       6.197   5.825  17.121  0.00  0.00    +0.000 A 
ATOM      4  C   UNL     1       5.354   5.333  16.040  0.00  0.00    +0.000 A 
ATOM      5  C   UNL     1       4.562   4.276  16.299  0.00  0.00    +0.000 A 
ATOM      6  C   UNL     1       4.585   3.687  17.676  0.00  0.00    +0.000 A 
ATOM      7  N   UNL     1       5.362   4.087  18.625  0.00  0.00    +0.000 NA
ATOM      8  N   UNL     1       6.180   5.160  18.297  0.00  0.00    +0.000 N 
ATOM      9  C   UNL     1       7.095   5.802  19.112  0.00  0.00    +0.000 A 
ATOM     10  O   UNL     1       7.445   5.544  20.251  0.00  0.00    +0.000 OA
ENDROOT
BRANCH   1  11
ATOM     11  C   UNL     1       8.693   7.764  18.628  0.00  0.00    +0.000 C 
BRANCH  11  13
ATOM     12  O   UNL     1       7.466   9.585  17.642  0.00  0.00    +0.000 OA
ATOM     13  C   UNL     1       8.456   9.235  18.286  0.00  0.00    +0.000 C 
ATOM     14  N   UNL     1       9.326  10.117  18.891  0.00  0.00    +0.000 N 
ATOM     15  H   UNL     1       9.835   9.766  19.695  0.00  0.00    +0.000 HD
BRANCH  14  16
ATOM     16  C   UNL     1       9.476  11.474  18.556  0.00  0.00    +0.000 A 
ATOM     17  C   UNL     1       8.911  12.421  19.432  0.00  0.00    +0.000 A 
ATOM     18  C   UNL     1       9.205  13.781  19.308  0.00  0.00    +0.000 A 
ATOM     19  C   UNL     1      10.127  14.136  18.352  0.00  0.00    +0.000 A 
ATOM     20  C   UNL     1      10.642  13.218  17.460  0.00  0.00    +0.000 A 
ATOM     21  C   UNL     1      10.294  11.884  17.496  0.00  0.00    +0.000 A 
ATOM     22  O   UNL     1      11.602  13.776  16.665  0.00  0.00    +0.000 OA
ATOM     23  C   UNL     1      11.842  14.991  17.403  0.00  0.00    +0.000 C 
ATOM     24  O   UNL     1      10.716  15.358  18.229  0.00  0.00    +0.000 OA
ENDBRANCH  14  16
ENDBRANCH  11  13
ENDBRANCH   1  11
BRANCH   6  25
ATOM     25  S   UNL     1       3.364   2.416  17.810  0.00  0.00    +0.000 S 
BRANCH  25  26
ATOM     26  C   UNL     1       1.739   3.248  17.873  0.00  0.00    +0.000 C 
ATOM     27  C   UNL     1       0.761   2.571  18.836  0.00  0.00    +0.000 C 
ATOM     28  C   UNL     1       1.100   2.746  20.317  0.00  0.00    +0.000 C 
ATOM     29  C   UNL     1       1.335   4.196  20.729  0.00  0.00    +0.000 C 
ATOM     30  C   UNL     1       2.218   4.982  19.766  0.00  0.00    +0.000 C 
ATOM     31  C   UNL     1       1.898   4.732  18.287  0.00  0.00    +0.000 C 
ENDBRANCH  25  26
ENDBRANCH   6  25
TORSDOF 5
ENDMDL
MODEL 2
REMARK VINA RESULT:      -9.1      6.330      7.120
REMARK  Name = 
REMARK  5 active torsions:
REMARK  status: ('A' for Active; 'I' for Inactive)
REMARK    1  A    between atoms: C_2  and  C_3
REMARK    2  A    between atoms: C_3  and  N_4
REMARK    3  A    between atoms: C_9  and  S_10
REMARK    4  A    between atoms: S_10  and  C_11
REMARK    5  A    between atoms: N_21  and  C_22
REMARK                            x       y       z     vdW  Elec       q    Type
REMARK                         _______ _______ _______ _____ _____    ______ ____
ROOT
ATOM      1  N   UNL     1       0.459  10.180  20.171  0.00  0.00    +0.000 N 
ATOM      2  N   UNL     1       0.908  10.116  18.867  0.00  0.00    +0.000 NA
ATOM      3  C   UNL     1       1.623   9.034  18.843  0.00  0.00    +0.000 A 
ATOM      4  C   UNL     1       2.360   8.521  17.697  0.00  0.00    +0.000 A 
ATOM      5  C   UNL     1       3.026   7.362  17.852  0.00  0.00    +0.000 A 
ATOM      6  C   UNL     1       2.952   6.668  19.177  0.00  0.00    +0.000 A 
ATOM      7  N   UNL     1       2.340   7.137  20.211  0.00  0.00    +0.000 NA
ATOM      8  N   UNL     1       1.695   8.350  20.006  0.00  0.00    +0.000 N 
ATOM      9  C   UNL     1       0.954   9.075  20.923  0.00  0.00    +0.000 A 
ATOM     10  O   UNL     1       0.755   8.869  22.108  0.00  0.00    +0.000 OA
ENDROOT
BRANCH   1  11
ATOM     11  C   UNL     1      -0.255  11.339  20.694  0.00  0.00    +0.000 C 
BRANCH  11  13
ATOM     12  O   UNL     1       0.907  13.196  21.691  0.00  0.00    +0.000 OA
ATOM     13  C   UNL     1       0.526  12.653  20.654  0.00  0.00    +0.000 C 
ATOM     14  N   UNL     1       0.900  13.065  19.393  0.00  0.00    +0.000 N 
ATOM     15  H   UNL     1       0.884  12.358  18.665  0.00  0.00    +0.000 HD
BRANCH  14  16
ATOM     16  C   UNL     1       1.400  14.337  19.065  0.00  0.00    +0.000 A 
ATOM     17  C   UNL     1       2.718  14.405  18.574  0.00  0.00    +0.000 A 
ATOM     18  C   UNL     1       3.216  15.582  18.009  0.00  0.00    +0.000 A 
ATOM     19  C   UNL     1       2.339  16.633  17.884  0.00  0.00    +0.000 A 
ATOM     20  C   UNL     1       1.064  16.586  18.409  0.00  0.00    +0.000 A 
ATOM     21  C   UNL     1       0.579  15.472  19.059  0.00  0.00    +0.000 A 
ATOM     22  O   UNL     1       0.348  17.703  18.086  0.00  0.00    +0.000 OA
ATOM     23  C   UNL     1       1.194  18.232  17.044  0.00  0.00    +0.000 C 
ATOM     24  O   UNL     1       2.555  17.767  17.160  0.00  0.00    +0.000 OA
ENDBRANCH  14  16
ENDBRANCH  11  13
ENDBRANCH   1  11
BRANCH   6  25
ATOM     25  S   UNL     1       3.777   5.107  19.088  0.00  0.00    +0.000 S 
BRANCH  25  26
ATOM     26  C   UNL     1       3.043   4.200  17.683  0.00  0.00    +0.000 C 
ATOM     27  C   UNL     1       3.605   2.784  17.529  0.00  0.00    +0.000 C 
ATOM     28  C   UNL     1       3.163   1.802  18.615  0.00  0.00    +0.000 C 
ATOM     29  C   UNL     1       1.654   1.755  18.829  0.00  0.00    +0.000 C 
ATOM     30  C   UNL     1       0.990   3.127  18.889  0.00  0.00    +0.000 C 
ATOM     31  C   UNL     1       1.504   4.111  17.831  0.00  0.00    +0.000 C 
ENDBRANCH  25  26
ENDBRANCH   6  25
TORSDOF 5
ENDMDL
MODEL 3
REMARK VINA RESULT:      -9.0      8.140     10.776
REMARK  Name = 
REMARK  5 active torsions:
REMARK  status: ('A' for Active; 'I' for Inactive)
REMARK    1  A    between atoms: C_2  and  C_3
REMARK    2  A    between atoms: C_3  and  N_4
REMARK    3  A    between atoms: C_9  and  S_10
REMARK    4  A    between atoms: S_10  and  C_11
REMARK    5  A    between atoms: N_21  and  C_22
REMARK                            x       y       z     vdW  Elec       q    Type
REMARK                         _______ _______ _______ _____ _____    ______ ____
ROOT
ATOM      1  N   UNL     1       0.474  11.509  20.250  0.00  0.00    +0.000 N 
ATOM      2  N   UNL     1       0.756  11.197  18.935  0.00  0.00    +0.000 NA
ATOM      3  C   UNL     1       1.239   9.995  19.004  0.00  0.00    +0.000 A 
ATOM      4  C   UNL     1       1.731   9.206  17.884  0.00  0.00    +0.000 A 
ATOM      5  C   UNL     1       2.170   7.960  18.143  0.00  0.00    +0.000 A 
ATOM      6  C   UNL     1       2.109   7.462  19.554  0.00  0.00    +0.000 A 
ATOM      7  N   UNL     1       1.717   8.169  20.560  0.00  0.00    +0.000 NA
ATOM      8  N   UNL     1       1.303   9.456  20.241  0.00  0.00    +0.000 N 
ATOM      9  C   UNL     1       0.823  10.424  21.105  0.00  0.00    +0.000 A 
ATOM     10  O   UNL     1       0.719  10.408  22.320  0.00  0.00    +0.000 OA
ENDROOT
BRANCH   1  11
ATOM     11  C   UNL     1       0.062  12.846  20.662  0.00  0.00    +0.000 C 
BRANCH  11  13
ATOM     12  O   UNL     1      -1.669  14.427  20.118  0.00  0.00    +0.000 OA
ATOM     13  C   UNL     1      -1.355  13.244  20.250  0.00  0.00    +0.000 C 
ATOM     14  N   UNL     1      -2.167  12.192  19.886  0.00  0.00    +0.000 N 
ATOM     15  H   UNL     1      -1.700  11.322  19.652  0.00  0.00    +0.000 HD
BRANCH  14  16
ATOM     16  C   UNL     1      -3.560  12.260  19.707  0.00  0.00    +0.000 A 
ATOM     17  C   UNL     1      -4.076  11.801  18.480  0.00  0.00    +0.000 A 
ATOM     18  C   UNL     1      -5.449  11.615  18.300  0.00  0.00    +0.000 A 
ATOM     19  C   UNL     1      -6.254  11.821  19.395  0.00  0.00    +0.000 A 
ATOM     20  C   UNL     1      -5.758  12.319  20.583  0.00  0.00    +0.000 A 
ATOM     21  C   UNL     1      -4.421  12.605  20.756  0.00  0.00    +0.000 A 
ATOM     22  O   UNL     1      -6.720  12.355  21.552  0.00  0.00    +0.000 OA
ATOM     23  C   UNL     1      -7.713  11.515  20.929  0.00  0.00    +0.000 C 
ATOM     24  O   UNL     1      -7.568  11.473  19.494  0.00  0.00    +0.000 OA
ENDBRANCH  14  16
ENDBRANCH  11  13
ENDBRANCH   1  11
BRANCH   6  25
ATOM     25  S   UNL     1       2.598   5.764  19.617  0.00  0.00    +0.000 S 
BRANCH  25  26
ATOM     26  C   UNL     1       2.583   5.145  17.898  0.00  0.00    +0.000 C 
ATOM     27  C   UNL     1       3.881   4.433  17.511  0.00  0.00    +0.000 C 
ATOM     28  C   UNL     1       4.086   3.073  18.180  0.00  0.00    +0.000 C 
ATOM     29  C   UNL     1       2.897   2.128  18.036  0.00  0.00    +0.000 C 
ATOM     30  C   UNL     1       1.546   2.783  18.301  0.00  0.00    +0.000 C 
ATOM     31  C   UNL     1       1.397   4.174  17.675  0.00  0.00    +0.000 C 
ENDBRANCH  25  26
ENDBRANCH   6  25
TORSDOF 5
ENDMDL
MODEL 4
REMARK VINA RESULT:      -9.0      8.618     10.751
REMARK  Name = 
REMARK  5 active torsions:
REMARK  status: ('A' for Active; 'I' for Inactive)
REMARK    1  A    between atoms: C_2  and  C_3
REMARK    2  A    between atoms: C_3  and  N_4
REMARK    3  A    between atoms: C_9  and  S_10
REMARK    4  A    between atoms: S_10  and  C_11
REMARK    5  A    between atoms: N_21  and  C_22
REMARK                            x       y       z     vdW  Elec       q    Type
REMARK                         _______ _______ _______ _____ _____    ______ ____
ROOT
ATOM      1  N   UNL     1       0.374  11.408  20.074  0.00  0.00    +0.000 N 
ATOM      2  N   UNL     1       0.700  11.080  18.773  0.00  0.00    +0.000 NA
ATOM      3  C   UNL     1       1.233   9.902  18.880  0.00  0.00    +0.000 A 
ATOM      4  C   UNL     1       1.786   9.111  17.790  0.00  0.00    +0.000 A 
ATOM      5  C   UNL     1       2.273   7.893  18.088  0.00  0.00    +0.000 A 
ATOM      6  C   UNL     1       2.200   7.423  19.508  0.00  0.00    +0.000 A 
ATOM      7  N   UNL     1       1.754   8.135  20.488  0.00  0.00    +0.000 NA
ATOM      8  N   UNL     1       1.292   9.395  20.131  0.00  0.00    +0.000 N 
ATOM      9  C   UNL     1       0.750  10.359  20.961  0.00  0.00    +0.000 A 
ATOM     10  O   UNL     1       0.619  10.365  22.174  0.00  0.00    +0.000 OA
ENDROOT
BRANCH   1  11
ATOM     11  C   UNL     1      -0.106  12.735  20.446  0.00  0.00    +0.000 C 
BRANCH  11  13
ATOM     12  O   UNL     1      -2.482  12.388  20.283  0.00  0.00    +0.000 OA
ATOM     13  C   UNL     1      -1.540  12.781  20.973  0.00  0.00    +0.000 C 
ATOM     14  N   UNL     1      -1.657  13.126  22.302  0.00  0.00    +0.000 N 
ATOM     15  H   UNL     1      -0.817  13.040  22.865  0.00  0.00    +0.000 HD
BRANCH  14  16
ATOM     16  C   UNL     1      -2.853  13.474  22.952  0.00  0.00    +0.000 A 
ATOM     17  C   UNL     1      -3.338  14.782  22.755  0.00  0.00    +0.000 A 
ATOM     18  C   UNL     1      -4.623  15.144  23.166  0.00  0.00    +0.000 A 
ATOM     19  C   UNL     1      -5.412  14.149  23.693  0.00  0.00    +0.000 A 
ATOM     20  C   UNL     1      -4.923  12.881  23.935  0.00  0.00    +0.000 A 
ATOM     21  C   UNL     1      -3.627  12.524  23.629  0.00  0.00    +0.000 A 
ATOM     22  O   UNL     1      -5.906  12.041  24.374  0.00  0.00    +0.000 OA
ATOM     23  C   UNL     1      -7.062  12.832  24.033  0.00  0.00    +0.000 C 
ATOM     24  O   UNL     1      -6.750  14.237  23.933  0.00  0.00    +0.000 OA
ENDBRANCH  14  16
ENDBRANCH  11  13
ENDBRANCH   1  11
BRANCH   6  25
ATOM     25  S   UNL     1       2.762   5.751  19.621  0.00  0.00    +0.000 S 
BRANCH  25  26
ATOM     26  C   UNL     1       2.741   5.070  17.927  0.00  0.00    +0.000 C 
ATOM     27  C   UNL     1       3.949   4.179  17.627  0.00  0.00    +0.000 C 
ATOM     28  C   UNL     1       3.944   2.832  18.352  0.00  0.00    +0.000 C 
ATOM     29  C   UNL     1       2.647   2.046  18.183  0.00  0.00    +0.000 C 
ATOM     30  C   UNL     1       1.384   2.881  18.360  0.00  0.00    +0.000 C 
ATOM     31  C   UNL     1       1.448   4.254  17.679  0.00  0.00    +0.000 C 
ENDBRANCH  25  26
ENDBRANCH   6  25
TORSDOF 5
ENDMDL
MODEL 5
REMARK VINA RESULT:      -8.9      7.054      7.877
REMARK  Name = 
REMARK  5 active torsions:
REMARK  status: ('A' for Active; 'I' for Inactive)
REMARK    1  A    between atoms: C_2  and  C_3
REMARK    2  A    between atoms: C_3  and  N_4
REMARK    3  A    between atoms: C_9  and  S_10
REMARK    4  A    between atoms: S_10  and  C_11
REMARK    5  A    between atoms: N_21  and  C_22
REMARK                            x       y       z     vdW  Elec       q    Type
REMARK                         _______ _______ _______ _____ _____    ______ ____
ROOT
ATOM      1  N   UNL     1      -0.046  11.064  20.765  0.00  0.00    +0.000 N 
ATOM      2  N   UNL     1       0.143  10.922  19.405  0.00  0.00    +0.000 NA
ATOM      3  C   UNL     1       0.841   9.832  19.307  0.00  0.00    +0.000 A 
ATOM      4  C   UNL     1       1.343   9.247  18.073  0.00  0.00    +0.000 A 
ATOM      5  C   UNL     1       2.027   8.091  18.163  0.00  0.00    +0.000 A 
ATOM      6  C   UNL     1       2.210   7.475  19.516  0.00  0.00    +0.000 A 
ATOM      7  N   UNL     1       1.808   8.009  20.620  0.00  0.00    +0.000 NA
ATOM      8  N   UNL     1       1.135   9.215  20.473  0.00  0.00    +0.000 N 
ATOM      9  C   UNL     1       0.585   9.999  21.471  0.00  0.00    +0.000 A 
ATOM     10  O   UNL     1       0.618   9.863  22.682  0.00  0.00    +0.000 OA
ENDROOT
BRANCH   1  11
ATOM     11  C   UNL     1      -0.646  12.260  21.347  0.00  0.00    +0.000 C 
BRANCH  11  13
ATOM     12  O   UNL     1       0.661  14.158  22.042  0.00  0.00    +0.000 OA
ATOM     13  C   UNL     1       0.129  13.556  21.109  0.00  0.00    +0.000 C 
ATOM     14  N   UNL     1       0.317  13.880  19.782  0.00  0.00    +0.000 N 
ATOM     15  H   UNL     1       0.190  13.129  19.113  0.00  0.00    +0.000 HD
BRANCH  14  16
ATOM     16  C   UNL     1       0.772  15.121  19.303  0.00  0.00    +0.000 A 
ATOM     17  C   UNL     1       2.150  15.244  19.037  0.00  0.00    +0.000 A 
ATOM     18  C   UNL     1       2.654  16.349  18.347  0.00  0.00    +0.000 A 
ATOM     19  C   UNL     1       1.738  17.260  17.874  0.00  0.00    +0.000 A 
ATOM     20  C   UNL     1       0.395  17.168  18.177  0.00  0.00    +0.000 A 
ATOM     21  C   UNL     1      -0.117  16.141  18.939  0.00  0.00    +0.000 A 
ATOM     22  O   UNL     1      -0.331  18.125  17.527  0.00  0.00    +0.000 OA
ATOM     23  C   UNL     1       0.652  18.550  16.560  0.00  0.00    +0.000 C 
ATOM     24  O   UNL     1       1.999  18.264  16.991  0.00  0.00    +0.000 OA
ENDBRANCH  14  16
ENDBRANCH  11  13
ENDBRANCH   1  11
BRANCH   6  25
ATOM     25  S   UNL     1       3.003   5.902  19.361  0.00  0.00    +0.000 S 
BRANCH  25  26
ATOM     26  C   UNL     1       1.679   4.645  19.310  0.00  0.00    +0.000 C 
ATOM     27  C   UNL     1       1.461   4.065  17.910  0.00  0.00    +0.000 C 
ATOM     28  C   UNL     1       2.583   3.151  17.417  0.00  0.00    +0.000 C 
ATOM     29  C   UNL     1       2.955   2.045  18.399  0.00  0.00    +0.000 C 
ATOM     30  C   UNL     1       3.090   2.513  19.843  0.00  0.00    +0.000 C 
ATOM     31  C   UNL     1       1.988   3.483  20.286  0.00  0.00    +0.000 C 
ENDBRANCH  25  26
ENDBRANCH   6  25
TORSDOF 5
ENDMDL
MODEL 6
REMARK VINA RESULT:      -8.9      8.293     10.417
REMARK  Name = 
REMARK  5 active torsions:
REMARK  status: ('A' for Active; 'I' for Inactive)
REMARK    1  A    between atoms: C_2  and  C_3
REMARK    2  A    between atoms: C_3  and  N_4
REMARK    3  A    between atoms: C_9  and  S_10
REMARK    4  A    between atoms: S_10  and  C_11
REMARK    5  A    between atoms: N_21  and  C_22
REMARK                            x       y       z     vdW  Elec       q    Type
REMARK                         _______ _______ _______ _____ _____    ______ ____
ROOT
ATOM      1  N   UNL     1       0.487  11.059  19.599  0.00  0.00    +0.000 N 
ATOM      2  N   UNL     1       1.040  10.636  18.407  0.00  0.00    +0.000 NA
ATOM      3  C   UNL     1       1.519   9.465  18.692  0.00  0.00    +0.000 A 
ATOM      4  C   UNL     1       2.247   8.594  17.780  0.00  0.00    +0.000 A 
ATOM      5  C   UNL     1       2.645   7.396  18.246  0.00  0.00    +0.000 A 
ATOM      6  C   UNL     1       2.301   7.029  19.656  0.00  0.00    +0.000 A 
ATOM      7  N   UNL     1       1.698   7.812  20.486  0.00  0.00    +0.000 NA
ATOM      8  N   UNL     1       1.336   9.047  19.963  0.00  0.00    +0.000 N 
ATOM      9  C   UNL     1       0.670  10.073  20.611  0.00  0.00    +0.000 A 
ATOM     10  O   UNL     1       0.318  10.166  21.774  0.00  0.00    +0.000 OA
ENDROOT
BRANCH   1  11
ATOM     11  C   UNL     1      -0.025  12.412  19.784  0.00  0.00    +0.000 C 
BRANCH  11  13
ATOM     12  O   UNL     1      -2.411  12.108  19.867  0.00  0.00    +0.000 OA
ATOM     13  C   UNL     1      -1.399  12.500  20.449  0.00  0.00    +0.000 C 
ATOM     14  N   UNL     1      -1.377  12.882  21.773  0.00  0.00    +0.000 N 
ATOM     15  H   UNL     1      -0.487  12.794  22.252  0.00  0.00    +0.000 HD
BRANCH  14  16
ATOM     16  C   UNL     1      -2.496  13.270  22.529  0.00  0.00    +0.000 A 
ATOM     17  C   UNL     1      -3.050  14.537  22.257  0.00  0.00    +0.000 A 
ATOM     18  C   UNL     1      -4.287  14.911  22.787  0.00  0.00    +0.000 A 
ATOM     19  C   UNL     1      -4.968  13.960  23.512  0.00  0.00    +0.000 A 
ATOM     20  C   UNL     1      -4.406  12.739  23.821  0.00  0.00    +0.000 A 
ATOM     21  C   UNL     1      -3.145  12.381  23.394  0.00  0.00    +0.000 A 
ATOM     22  O   UNL     1      -5.296  11.928  24.467  0.00  0.00    +0.000 OA
ATOM     23  C   UNL     1      -6.514  12.650  24.193  0.00  0.00    +0.000 C 
ATOM     24  O   UNL     1      -6.269  14.043  23.908  0.00  0.00    +0.000 OA
ENDBRANCH  14  16
ENDBRANCH  11  13
ENDBRANCH   1  11
BRANCH   6  25
ATOM     25  S   UNL     1       2.797   5.364  19.986  0.00  0.00    +0.000 S 
BRANCH  25  26
ATOM     26  C   UNL     1       1.482   4.281  19.329  0.00  0.00    +0.000 C 
ATOM     27  C   UNL     1       1.475   4.213  17.800  0.00  0.00    +0.000 C 
ATOM     28  C   UNL     1       2.649   3.445  17.190  0.00  0.00    +0.000 C 
ATOM     29  C   UNL     1       2.852   2.054  17.784  0.00  0.00    +0.000 C 
ATOM     30  C   UNL     1       2.769   2.009  19.306  0.00  0.00    +0.000 C 
ATOM     31  C   UNL     1       1.623   2.844  19.890  0.00  0.00    +0.000 C 
ENDBRANCH  25  26
ENDBRANCH   6  25
TORSDOF 5
ENDMDL
MODEL 7
REMARK VINA RESULT:      -8.7      5.293      5.977
REMARK  Name = 
REMARK  5 active torsions:
REMARK  status: ('A' for Active; 'I' for Inactive)
REMARK    1  A    between atoms: C_2  and  C_3
REMARK    2  A    between atoms: C_3  and  N_4
REMARK    3  A    between atoms: C_9  and  S_10
REMARK    4  A    between atoms: S_10  and  C_11
REMARK    5  A    between atoms: N_21  and  C_22
REMARK                            x       y       z     vdW  Elec       q    Type
REMARK                         _______ _______ _______ _____ _____    ______ ____
ROOT
ATOM      1  N   UNL     1       1.050   9.395  19.583  0.00  0.00    +0.000 N 
ATOM      2  N   UNL     1       1.701   9.341  18.367  0.00  0.00    +0.000 NA
ATOM      3  C   UNL     1       2.396   8.247  18.441  0.00  0.00    +0.000 A 
ATOM      4  C   UNL     1       3.300   7.738  17.420  0.00  0.00    +0.000 A 
ATOM      5  C   UNL     1       3.917   6.566  17.662  0.00  0.00    +0.000 A 
ATOM      6  C   UNL     1       3.623   5.857  18.948  0.00  0.00    +0.000 A 
ATOM      7  N   UNL     1       2.859   6.323  19.878  0.00  0.00    +0.000 NA
ATOM      8  N   UNL     1       2.271   7.548  19.591  0.00  0.00    +0.000 N 
ATOM      9  C   UNL     1       1.403   8.273  20.388  0.00  0.00    +0.000 A 
ATOM     10  O   UNL     1       1.015   8.055  21.523  0.00  0.00    +0.000 OA
ENDROOT
BRANCH   1  11
ATOM     11  C   UNL     1       0.278  10.559  20.002  0.00  0.00    +0.000 C 
BRANCH  11  13
ATOM     12  O   UNL     1       1.426  12.355  21.120  0.00  0.00    +0.000 OA
ATOM     13  C   UNL     1       1.059  11.873  20.048  0.00  0.00    +0.000 C 
ATOM     14  N   UNL     1       1.448  12.356  18.817  0.00  0.00    +0.000 N 
ATOM     15  H   UNL     1       1.442  11.692  18.050  0.00  0.00    +0.000 HD
BRANCH  14  16
ATOM     16  C   UNL     1       1.952  13.645  18.569  0.00  0.00    +0.000 A 
ATOM     17  C   UNL     1       1.110  14.735  18.866  0.00  0.00    +0.000 A 
ATOM     18  C   UNL     1       1.601  16.042  18.873  0.00  0.00    +0.000 A 
ATOM     19  C   UNL     1       2.950  16.203  18.658  0.00  0.00    +0.000 A 
ATOM     20  C   UNL     1       3.766  15.144  18.317  0.00  0.00    +0.000 A 
ATOM     21  C   UNL     1       3.288  13.856  18.207  0.00  0.00    +0.000 A 
ATOM     22  O   UNL     1       5.075  15.525  18.242  0.00  0.00    +0.000 OA
ATOM     23  C   UNL     1       4.987  16.802  18.906  0.00  0.00    +0.000 C 
ATOM     24  O   UNL     1       3.655  17.353  18.853  0.00  0.00    +0.000 OA
ENDBRANCH  14  16
ENDBRANCH  11  13
ENDBRANCH   1  11
BRANCH   6  25
ATOM     25  S   UNL     1       4.430   4.284  18.969  0.00  0.00    +0.000 S 
BRANCH  25  26
ATOM     26  C   UNL     1       3.617   3.255  17.698  0.00  0.00    +0.000 C 
ATOM     27  C   UNL     1       3.411   1.806  18.146  0.00  0.00    +0.000 C 
ATOM     28  C   UNL     1       2.345   1.618  19.226  0.00  0.00    +0.000 C 
ATOM     29  C   UNL     1       1.005   2.266  18.890  0.00  0.00    +0.000 C 
ATOM     30  C   UNL     1       1.120   3.681  18.333  0.00  0.00    +0.000 C 
ATOM     31  C   UNL     1       2.243   3.853  17.304  0.00  0.00    +0.000 C 
ENDBRANCH  25  26
ENDBRANCH   6  25
TORSDOF 5
ENDMDL
MODEL 8
REMARK VINA RESULT:      -8.7      8.649     11.166
REMARK  Name = 
REMARK  5 active torsions:
REMARK  status: ('A' for Active; 'I' for Inactive)
REMARK    1  A    between atoms: C_2  and  C_3
REMARK    2  A    between atoms: C_3  and  N_4
REMARK    3  A    between atoms: C_9  and  S_10
REMARK    4  A    between atoms: S_10  and  C_11
REMARK    5  A    between atoms: N_21  and  C_22
REMARK                            x       y       z     vdW  Elec       q    Type
REMARK                         _______ _______ _______ _____ _____    ______ ____
ROOT
ATOM      1  N   UNL     1       0.181  11.244  20.689  0.00  0.00    +0.000 N 
ATOM      2  N   UNL     1       0.419  11.043  19.344  0.00  0.00    +0.000 NA
ATOM      3  C   UNL     1       1.015   9.891  19.309  0.00  0.00    +0.000 A 
ATOM      4  C   UNL     1       1.517   9.224  18.116  0.00  0.00    +0.000 A 
ATOM      5  C   UNL     1       2.084   8.013  18.270  0.00  0.00    +0.000 A 
ATOM      6  C   UNL     1       2.145   7.424  19.646  0.00  0.00    +0.000 A 
ATOM      7  N   UNL     1       1.744   8.027  20.714  0.00  0.00    +0.000 NA
ATOM      8  N   UNL     1       1.196   9.285  20.503  0.00  0.00    +0.000 N 
ATOM      9  C   UNL     1       0.675  10.146  21.452  0.00  0.00    +0.000 A 
ATOM     10  O   UNL     1       0.639  10.045  22.666  0.00  0.00    +0.000 OA
ENDROOT
BRANCH   1  11
ATOM     11  C   UNL     1      -0.331  12.506  21.210  0.00  0.00    +0.000 C 
BRANCH  11  13
ATOM     12  O   UNL     1      -2.033  11.860  22.784  0.00  0.00    +0.000 OA
ATOM     13  C   UNL     1      -1.764  12.456  21.740  0.00  0.00    +0.000 C 
ATOM     14  N   UNL     1      -2.659  13.254  21.061  0.00  0.00    +0.000 N 
ATOM     15  H   UNL     1      -2.262  13.989  20.487  0.00  0.00    +0.000 HD
BRANCH  14  16
ATOM     16  C   UNL     1      -4.058  13.201  21.189  0.00  0.00    +0.000 A 
ATOM     17  C   UNL     1      -4.759  12.391  20.273  0.00  0.00    +0.000 A 
ATOM     18  C   UNL     1      -6.111  12.095  20.463  0.00  0.00    +0.000 A 
ATOM     19  C   UNL     1      -6.696  12.560  21.617  0.00  0.00    +0.000 A 
ATOM     20  C   UNL     1      -6.027  13.394  22.489  0.00  0.00    +0.000 A 
ATOM     21  C   UNL     1      -4.722  13.783  22.276  0.00  0.00    +0.000 A 
ATOM     22  O   UNL     1      -6.770  13.653  23.605  0.00  0.00    +0.000 OA
ATOM     23  C   UNL     1      -7.772  12.625  23.464  0.00  0.00    +0.000 C 
ATOM     24  O   UNL     1      -7.916  12.190  22.096  0.00  0.00    +0.000 OA
ENDBRANCH  14  16
ENDBRANCH  11  13
ENDBRANCH   1  11
BRANCH   6  25
ATOM     25  S   UNL     1       2.793   5.781  19.571  0.00  0.00    +0.000 S 
BRANCH  25  26
ATOM     26  C   UNL     1       2.591   5.210  17.847  0.00  0.00    +0.000 C 
ATOM     27  C   UNL     1       3.855   4.558  17.283  0.00  0.00    +0.000 C 
ATOM     28  C   UNL     1       4.186   3.189  17.878  0.00  0.00    +0.000 C 
ATOM     29  C   UNL     1       3.021   2.204  17.849  0.00  0.00    +0.000 C 
ATOM     30  C   UNL     1       1.691   2.800  18.296  0.00  0.00    +0.000 C 
ATOM     31  C   UNL     1       1.420   4.202  17.737  0.00  0.00    +0.000 C 
ENDBRANCH  25  26
ENDBRANCH   6  25
TORSDOF 5
ENDMDL
MODEL 9
REMARK VINA RESULT:      -8.7      8.487     10.976
REMARK  Name = 
REMARK  5 active torsions:
REMARK  status: ('A' for Active; 'I' for Inactive)
REMARK    1  A    between atoms: C_2  and  C_3
REMARK    2  A    between atoms: C_3  and  N_4
REMARK    3  A    between atoms: C_9  and  S_10
REMARK    4  A    between atoms: S_10  and  C_11
REMARK    5  A    between atoms: N_21  and  C_22
REMARK                            x       y       z     vdW  Elec       q    Type
REMARK                         _______ _______ _______ _____ _____    ______ ____
ROOT
ATOM      1  N   UNL     1       0.387  10.980  20.978  0.00  0.00    +0.000 N 
ATOM      2  N   UNL     1       0.501  11.033  19.604  0.00  0.00    +0.000 NA
ATOM      3  C   UNL     1       1.072   9.907  19.302  0.00  0.00    +0.000 A 
ATOM      4  C   UNL     1       1.455   9.474  17.966  0.00  0.00    +0.000 A 
ATOM      5  C   UNL     1       2.012   8.256  17.841  0.00  0.00    +0.000 A 
ATOM      6  C   UNL     1       2.186   7.421  19.072  0.00  0.00    +0.000 A 
ATOM      7  N   UNL     1       1.892   7.814  20.266  0.00  0.00    +0.000 NA
ATOM      8  N   UNL     1       1.348   9.090  20.342  0.00  0.00    +0.000 N 
ATOM      9  C   UNL     1       0.928   9.760  21.477  0.00  0.00    +0.000 A 
ATOM     10  O   UNL     1       0.999   9.435  22.650  0.00  0.00    +0.000 OA
ENDROOT
BRANCH   1  11
ATOM     11  C   UNL     1      -0.055  12.124  21.768  0.00  0.00    +0.000 C 
BRANCH  11  13
ATOM     12  O   UNL     1      -1.898  11.334  23.099  0.00  0.00    +0.000 OA
ATOM     13  C   UNL     1      -1.521  12.086  22.200  0.00  0.00    +0.000 C 
ATOM     14  N   UNL     1      -2.316  13.058  21.631  0.00  0.00    +0.000 N 
ATOM     15  H   UNL     1      -1.834  13.853  21.225  0.00  0.00    +0.000 HD
BRANCH  14  16
ATOM     16  C   UNL     1      -3.721  13.088  21.669  0.00  0.00    +0.000 A 
ATOM     17  C   UNL     1      -4.407  12.622  20.530  0.00  0.00    +0.000 A 
ATOM     18  C   UNL     1      -5.786  12.398  20.561  0.00  0.00    +0.000 A 
ATOM     19  C   UNL     1      -6.418  12.574  21.769  0.00  0.00    +0.000 A 
ATOM     20  C   UNL     1      -5.759  13.078  22.872  0.00  0.00    +0.000 A 
ATOM     21  C   UNL     1      -4.420  13.401  22.841  0.00  0.00    +0.000 A 
ATOM     22  O   UNL     1      -6.561  13.080  23.977  0.00  0.00    +0.000 OA
ATOM     23  C   UNL     1      -7.615  12.217  23.505  0.00  0.00    +0.000 C 
ATOM     24  O   UNL     1      -7.691  12.188  22.064  0.00  0.00    +0.000 OA
ENDBRANCH  14  16
ENDBRANCH  11  13
ENDBRANCH   1  11
BRANCH   6  25
ATOM     25  S   UNL     1       2.797   5.820  18.636  0.00  0.00    +0.000 S 
BRANCH  25  26
ATOM     26  C   UNL     1       2.720   4.796  20.147  0.00  0.00    +0.000 C 
ATOM     27  C   UNL     1       1.304   4.314  20.468  0.00  0.00    +0.000 C 
ATOM     28  C   UNL     1       0.759   3.251  19.513  0.00  0.00    +0.000 C 
ATOM     29  C   UNL     1       1.694   2.061  19.316  0.00  0.00    +0.000 C 
ATOM     30  C   UNL     1       3.152   2.445  19.093  0.00  0.00    +0.000 C 
ATOM     31  C   UNL     1       3.648   3.562  20.020  0.00  0.00    +0.000 C 
ENDBRANCH  25  26
ENDBRANCH   6  25
TORSDOF 5
ENDMDL
