MODEL 1
REMARK VINA RESULT:      -8.8      0.000      0.000
REMARK  Name = 
REMARK  2 active torsions:
REMARK  status: ('A' for Active; 'I' for Inactive)
REMARK    1  A    between atoms: C_5  and  C_7
REMARK    2  A    between atoms: C_10  and  C_11
REMARK                            x       y       z     vdW  Elec       q    Type
REMARK                         _______ _______ _______ _____ _____    ______ ____
ROOT
ATOM      1  C   UNL     1       4.829   4.970  17.214  0.00  0.00    +0.000 A 
ATOM      2  C   UNL     1       4.072   5.942  17.824  0.00  0.00    +0.000 A 
ATOM      3  C   UNL     1       3.241   5.484  18.901  0.00  0.00    +0.000 A 
ATOM      4  C   UNL     1       2.284   6.178  19.711  0.00  0.00    +0.000 A 
ATOM      5  C   UNL     1       1.707   5.473  20.787  0.00  0.00    +0.000 A 
ATOM      6  C   UNL     1       2.031   4.146  21.053  0.00  0.00    +0.000 A 
ATOM      7  C   UNL     1       2.921   3.454  20.234  0.00  0.00    +0.000 A 
ATOM      8  C   UNL     1       3.517   4.134  19.155  0.00  0.00    +0.000 A 
ATOM      9  S   UNL     1       4.641   3.481  18.002  0.00  0.00    +0.000 S 
ENDROOT
BRANCH   1  14
ATOM     10  N   UNL     1       6.307   3.344  13.115  0.00  0.00    +0.000 NA
ATOM     11  C   UNL     1       6.491   4.294  13.955  0.00  0.00    +0.000 C 
ATOM     12  N   UNL     1       7.417   5.259  13.783  0.00  0.00    +0.000 N 
ATOM     13  N   UNL     1       5.689   4.273  15.056  0.00  0.00    +0.000 N 
ATOM     14  C   UNL     1       5.671   5.225  16.058  0.00  0.00    +0.000 C 
ATOM     15  O   UNL     1       6.323   6.268  15.962  0.00  0.00    +0.000 OA
ATOM     16  H   UNL     1       6.985   3.452  12.356  0.00  0.00    +0.000 HD
ATOM     17  H   UNL     1       7.678   5.505  12.834  0.00  0.00    +0.000 HD
ATOM     18  H   UNL     1       7.306   6.071  14.391  0.00  0.00    +0.000 HD
ATOM     19  H   UNL     1       5.081   3.471  15.123  0.00  0.00    +0.000 HD
ENDBRANCH   1  14
BRANCH   4  20
ATOM     20  C   UNL     1       1.968   7.606  19.441  0.00  0.00    +0.000 A 
ATOM     21  C   UNL     1       1.408   8.446  20.424  0.00  0.00    +0.000 A 
ATOM     22  C   UNL     1       0.955   9.734  20.126  0.00  0.00    +0.000 A 
ATOM     23  C   UNL     1       1.135  10.253  18.851  0.00  0.00    +0.000 A 
ATOM     24  C   UNL     1       1.776   9.485  17.883  0.00  0.00    +0.000 A 
ATOM     25  C   UNL     1       2.177   8.175  18.173  0.00  0.00    +0.000 A 
ENDBRANCH   4  20
TORSDOF 2
ENDMDL
MODEL 2
REMARK VINA RESULT:      -8.6      0.278      1.082
REMARK  Name = 
REMARK  2 active torsions:
REMARK  status: ('A' for Active; 'I' for Inactive)
REMARK    1  A    between atoms: C_5  and  C_7
REMARK    2  A    between atoms: C_10  and  C_11
REMARK                            x       y       z     vdW  Elec       q    Type
REMARK                         _______ _______ _______ _____ _____    ______ ____
ROOT
ATOM      1  C   UNL     1       4.968   5.164  17.397  0.00  0.00    +0.000 A 
ATOM      2  C   UNL     1       4.130   6.117  17.925  0.00  0.00    +0.000 A 
ATOM      3  C   UNL     1       3.278   5.663  18.986  0.00  0.00    +0.000 A 
ATOM      4  C   UNL     1       2.248   6.337  19.719  0.00  0.00    +0.000 A 
ATOM      5  C   UNL     1       1.662   5.652  20.803  0.00  0.00    +0.000 A 
ATOM      6  C   UNL     1       2.046   4.359  21.148  0.00  0.00    +0.000 A 
ATOM      7  C   UNL     1       3.011   3.683  20.402  0.00  0.00    +0.000 A 
ATOM      8  C   UNL     1       3.616   4.344  19.318  0.00  0.00    +0.000 A 
ATOM      9  S   UNL     1       4.826   3.704  18.248  0.00  0.00    +0.000 S 
ENDROOT
BRANCH   1  14
ATOM     10  N   UNL     1       6.440   3.605  13.269  0.00  0.00    +0.000 NA
ATOM     11  C   UNL     1       6.657   4.513  14.146  0.00  0.00    +0.000 C 
ATOM     12  N   UNL     1       7.638   5.431  14.027  0.00  0.00    +0.000 N 
ATOM     13  N   UNL     1       5.832   4.497  15.231  0.00  0.00    +0.000 N 
ATOM     14  C   UNL     1       5.846   5.413  16.266  0.00  0.00    +0.000 C 
ATOM     15  O   UNL     1       6.555   6.421  16.221  0.00  0.00    +0.000 OA
ATOM     16  H   UNL     1       7.138   3.702  12.528  0.00  0.00    +0.000 HD
ATOM     17  H   UNL     1       7.931   5.695  13.093  0.00  0.00    +0.000 HD
ATOM     18  H   UNL     1       7.558   6.225  14.663  0.00  0.00    +0.000 HD
ATOM     19  H   UNL     1       5.181   3.728  15.257  0.00  0.00    +0.000 HD
ENDBRANCH   1  14
BRANCH   4  20
ATOM     20  C   UNL     1       1.865   7.731  19.366  0.00  0.00    +0.000 A 
ATOM     21  C   UNL     1       2.108   8.272  18.088  0.00  0.00    +0.000 A 
ATOM     22  C   UNL     1       1.905   9.626  17.807  0.00  0.00    +0.000 A 
ATOM     23  C   UNL     1       1.364  10.460  18.776  0.00  0.00    +0.000 A 
ATOM     24  C   UNL     1       1.019   9.934  20.017  0.00  0.00    +0.000 A 
ATOM     25  C   UNL     1       1.277   8.589  20.311  0.00  0.00    +0.000 A 
ENDBRANCH   4  20
TORSDOF 2
ENDMDL
MODEL 3
REMARK VINA RESULT:      -8.4      4.193      6.658
REMARK  Name = 
REMARK  2 active torsions:
REMARK  status: ('A' for Active; 'I' for Inactive)
REMARK    1  A    between atoms: C_5  and  C_7
REMARK    2  A    between atoms: C_10  and  C_11
REMARK                            x       y       z     vdW  Elec       q    Type
REMARK                         _______ _______ _______ _____ _____    ______ ____
ROOT
ATOM      1  C   UNL     1       2.102   6.243  19.751  0.00  0.00    +0.000 A 
ATOM      2  C   UNL     1       3.006   5.782  18.823  0.00  0.00    +0.000 A 
ATOM      3  C   UNL     1       3.145   4.355  18.761  0.00  0.00    +0.000 A 
ATOM      4  C   UNL     1       4.020   3.529  17.983  0.00  0.00    +0.000 A 
ATOM      5  C   UNL     1       3.833   2.133  18.052  0.00  0.00    +0.000 A 
ATOM      6  C   UNL     1       2.851   1.564  18.858  0.00  0.00    +0.000 A 
ATOM      7  C   UNL     1       2.035   2.364  19.655  0.00  0.00    +0.000 A 
ATOM      8  C   UNL     1       2.196   3.761  19.603  0.00  0.00    +0.000 A 
ATOM      9  S   UNL     1       1.307   4.950  20.506  0.00  0.00    +0.000 S 
ENDROOT
BRANCH   1  14
ATOM     10  N   UNL     1       1.100   9.426  22.991  0.00  0.00    +0.000 NA
ATOM     11  C   UNL     1       1.264   9.281  21.729  0.00  0.00    +0.000 C 
ATOM     12  N   UNL     1       1.115  10.290  20.847  0.00  0.00    +0.000 N 
ATOM     13  N   UNL     1       1.599   8.025  21.316  0.00  0.00    +0.000 N 
ATOM     14  C   UNL     1       1.881   7.654  20.015  0.00  0.00    +0.000 C 
ATOM     15  O   UNL     1       1.971   8.493  19.115  0.00  0.00    +0.000 OA
ATOM     16  H   UNL     1       0.823  10.395  23.169  0.00  0.00    +0.000 HD
ATOM     17  H   UNL     1       1.293  11.235  21.170  0.00  0.00    +0.000 HD
ATOM     18  H   UNL     1       1.495  10.105  19.918  0.00  0.00    +0.000 HD
ATOM     19  H   UNL     1       1.615   7.330  22.046  0.00  0.00    +0.000 HD
ENDBRANCH   1  14
BRANCH   4  20
ATOM     20  C   UNL     1       5.045   4.146  17.099  0.00  0.00    +0.000 A 
ATOM     21  C   UNL     1       4.820   4.352  15.724  0.00  0.00    +0.000 A 
ATOM     22  C   UNL     1       5.837   4.771  14.862  0.00  0.00    +0.000 A 
ATOM     23  C   UNL     1       7.089   5.087  15.371  0.00  0.00    +0.000 A 
ATOM     24  C   UNL     1       7.316   4.990  16.741  0.00  0.00    +0.000 A 
ATOM     25  C   UNL     1       6.309   4.515  17.591  0.00  0.00    +0.000 A 
ENDBRANCH   4  20
TORSDOF 2
ENDMDL
MODEL 4
REMARK VINA RESULT:      -8.3      3.940      6.346
REMARK  Name = 
REMARK  2 active torsions:
REMARK  status: ('A' for Active; 'I' for Inactive)
REMARK    1  A    between atoms: C_5  and  C_7
REMARK    2  A    between atoms: C_10  and  C_11
REMARK                            x       y       z     vdW  Elec       q    Type
REMARK                         _______ _______ _______ _____ _____    ______ ____
ROOT
ATOM      1  C   UNL     1       2.268   7.219  19.136  0.00  0.00    +0.000 A 
ATOM      2  C   UNL     1       3.153   6.386  18.493  0.00  0.00    +0.000 A 
ATOM      3  C   UNL     1       3.376   5.120  19.130  0.00  0.00    +0.000 A 
ATOM      4  C   UNL     1       4.261   4.044  18.798  0.00  0.00    +0.000 A 
ATOM      5  C   UNL     1       4.163   2.860  19.557  0.00  0.00    +0.000 A 
ATOM      6  C   UNL     1       3.258   2.734  20.606  0.00  0.00    +0.000 A 
ATOM      7  C   UNL     1       2.433   3.800  20.964  0.00  0.00    +0.000 A 
ATOM      8  C   UNL     1       2.506   4.992  20.220  0.00  0.00    +0.000 A 
ATOM      9  S   UNL     1       1.590   6.445  20.484  0.00  0.00    +0.000 S 
ENDROOT
BRANCH   1  14
ATOM     10  N   UNL     1       0.355  11.303  20.271  0.00  0.00    +0.000 NA
ATOM     11  C   UNL     1       0.879  10.667  19.290  0.00  0.00    +0.000 C 
ATOM     12  N   UNL     1       0.988  11.185  18.051  0.00  0.00    +0.000 N 
ATOM     13  N   UNL     1       1.324   9.410  19.572  0.00  0.00    +0.000 N 
ATOM     14  C   UNL     1       1.973   8.569  18.688  0.00  0.00    +0.000 C 
ATOM     15  O   UNL     1       2.318   8.958  17.569  0.00  0.00    +0.000 OA
ATOM     16  H   UNL     1       0.034  12.213  19.927  0.00  0.00    +0.000 HD
ATOM     17  H   UNL     1       1.061  12.193  17.961  0.00  0.00    +0.000 HD
ATOM     18  H   UNL     1       1.622  10.681  17.431  0.00  0.00    +0.000 HD
ATOM     19  H   UNL     1       1.131   9.092  20.509  0.00  0.00    +0.000 HD
ENDBRANCH   1  14
BRANCH   4  20
ATOM     20  C   UNL     1       5.204   4.173  17.654  0.00  0.00    +0.000 A 
ATOM     21  C   UNL     1       6.544   4.567  17.831  0.00  0.00    +0.000 A 
ATOM     22  C   UNL     1       7.381   4.852  16.748  0.00  0.00    +0.000 A 
ATOM     23  C   UNL     1       6.924   4.659  15.451  0.00  0.00    +0.000 A 
ATOM     24  C   UNL     1       5.636   4.174  15.243  0.00  0.00    +0.000 A 
ATOM     25  C   UNL     1       4.784   3.945  16.332  0.00  0.00    +0.000 A 
ENDBRANCH   4  20
TORSDOF 2
ENDMDL
MODEL 5
REMARK VINA RESULT:      -8.2      4.255      6.577
REMARK  Name = 
REMARK  2 active torsions:
REMARK  status: ('A' for Active; 'I' for Inactive)
REMARK    1  A    between atoms: C_5  and  C_7
REMARK    2  A    between atoms: C_10  and  C_11
REMARK                            x       y       z     vdW  Elec       q    Type
REMARK                         _______ _______ _______ _____ _____    ______ ____
ROOT
ATOM      1  C   UNL     1       2.047   6.289  19.867  0.00  0.00    +0.000 A 
ATOM      2  C   UNL     1       2.979   5.821  18.970  0.00  0.00    +0.000 A 
ATOM      3  C   UNL     1       3.095   4.393  18.900  0.00  0.00    +0.000 A 
ATOM      4  C   UNL     1       3.985   3.559  18.148  0.00  0.00    +0.000 A 
ATOM      5  C   UNL     1       3.772   2.166  18.197  0.00  0.00    +0.000 A 
ATOM      6  C   UNL     1       2.750   1.606  18.958  0.00  0.00    +0.000 A 
ATOM      7  C   UNL     1       1.917   2.414  19.731  0.00  0.00    +0.000 A 
ATOM      8  C   UNL     1       2.104   3.808  19.699  0.00  0.00    +0.000 A 
ATOM      9  S   UNL     1       1.201   5.004  20.578  0.00  0.00    +0.000 S 
ENDROOT
BRANCH   1  14
ATOM     10  N   UNL     1       1.121   9.476  23.126  0.00  0.00    +0.000 NA
ATOM     11  C   UNL     1       1.264   9.331  21.861  0.00  0.00    +0.000 C 
ATOM     12  N   UNL     1       1.106  10.342  20.983  0.00  0.00    +0.000 N 
ATOM     13  N   UNL     1       1.582   8.074  21.442  0.00  0.00    +0.000 N 
ATOM     14  C   UNL     1       1.840   7.702  20.136  0.00  0.00    +0.000 C 
ATOM     15  O   UNL     1       1.921   8.541  19.235  0.00  0.00    +0.000 OA
ATOM     16  H   UNL     1       0.854  10.447  23.309  0.00  0.00    +0.000 HD
ATOM     17  H   UNL     1       1.296  11.285  21.304  0.00  0.00    +0.000 HD
ATOM     18  H   UNL     1       1.469  10.155  20.047  0.00  0.00    +0.000 HD
ATOM     19  H   UNL     1       1.606   7.378  22.170  0.00  0.00    +0.000 HD
ENDBRANCH   1  14
BRANCH   4  20
ATOM     20  C   UNL     1       5.054   4.165  17.310  0.00  0.00    +0.000 A 
ATOM     21  C   UNL     1       6.264   4.629  17.863  0.00  0.00    +0.000 A 
ATOM     22  C   UNL     1       7.195   5.350  17.108  0.00  0.00    +0.000 A 
ATOM     23  C   UNL     1       6.980   5.545  15.750  0.00  0.00    +0.000 A 
ATOM     24  C   UNL     1       5.843   5.012  15.152  0.00  0.00    +0.000 A 
ATOM     25  C   UNL     1       4.887   4.341  15.926  0.00  0.00    +0.000 A 
ENDBRANCH   4  20
TORSDOF 2
ENDMDL
MODEL 6
REMARK VINA RESULT:      -8.2      3.993      6.452
REMARK  Name = 
REMARK  2 active torsions:
REMARK  status: ('A' for Active; 'I' for Inactive)
REMARK    1  A    between atoms: C_5  and  C_7
REMARK    2  A    between atoms: C_10  and  C_11
REMARK                            x       y       z     vdW  Elec       q    Type
REMARK                         _______ _______ _______ _____ _____    ______ ____
ROOT
ATOM      1  C   UNL     1       2.220   7.340  19.143  0.00  0.00    +0.000 A 
ATOM      2  C   UNL     1       3.109   6.526  18.481  0.00  0.00    +0.000 A 
ATOM      3  C   UNL     1       3.348   5.253  19.099  0.00  0.00    +0.000 A 
ATOM      4  C   UNL     1       4.241   4.191  18.745  0.00  0.00    +0.000 A 
ATOM      5  C   UNL     1       4.160   2.995  19.488  0.00  0.00    +0.000 A 
ATOM      6  C   UNL     1       3.263   2.845  20.541  0.00  0.00    +0.000 A 
ATOM      7  C   UNL     1       2.431   3.898  20.920  0.00  0.00    +0.000 A 
ATOM      8  C   UNL     1       2.487   5.101  20.194  0.00  0.00    +0.000 A 
ATOM      9  S   UNL     1       1.559   6.541  20.484  0.00  0.00    +0.000 S 
ENDROOT
BRANCH   1  14
ATOM     10  N   UNL     1       0.243  11.378  20.336  0.00  0.00    +0.000 NA
ATOM     11  C   UNL     1       0.782  10.766  19.348  0.00  0.00    +0.000 C 
ATOM     12  N   UNL     1       0.892  11.308  18.118  0.00  0.00    +0.000 N 
ATOM     13  N   UNL     1       1.243   9.510  19.610  0.00  0.00    +0.000 N 
ATOM     14  C   UNL     1       1.910   8.694  18.716  0.00  0.00    +0.000 C 
ATOM     15  O   UNL     1       2.256   9.108  17.607  0.00  0.00    +0.000 OA
ATOM     16  H   UNL     1      -0.088  12.288  20.006  0.00  0.00    +0.000 HD
ATOM     17  H   UNL     1       0.951  12.318  18.047  0.00  0.00    +0.000 HD
ATOM     18  H   UNL     1       1.537  10.822  17.494  0.00  0.00    +0.000 HD
ATOM     19  H   UNL     1       1.048   9.173  20.541  0.00  0.00    +0.000 HD
ENDBRANCH   1  14
BRANCH   4  20
ATOM     20  C   UNL     1       5.174   4.345  17.596  0.00  0.00    +0.000 A 
ATOM     21  C   UNL     1       4.761   4.142  16.265  0.00  0.00    +0.000 A 
ATOM     22  C   UNL     1       5.669   4.119  15.203  0.00  0.00    +0.000 A 
ATOM     23  C   UNL     1       7.011   4.393  15.435  0.00  0.00    +0.000 A 
ATOM     24  C   UNL     1       7.435   4.697  16.724  0.00  0.00    +0.000 A 
ATOM     25  C   UNL     1       6.529   4.662  17.792  0.00  0.00    +0.000 A 
ENDBRANCH   4  20
TORSDOF 2
ENDMDL
MODEL 7
REMARK VINA RESULT:      -7.9      4.951      7.377
REMARK  Name = 
REMARK  2 active torsions:
REMARK  status: ('A' for Active; 'I' for Inactive)
REMARK    1  A    between atoms: C_5  and  C_7
REMARK    2  A    between atoms: C_10  and  C_11
REMARK                            x       y       z     vdW  Elec       q    Type
REMARK                         _______ _______ _______ _____ _____    ______ ____
ROOT
ATOM      1  C   UNL     1       1.576   8.860  19.437  0.00  0.00    +0.000 A 
ATOM      2  C   UNL     1       1.786   7.519  19.657  0.00  0.00    +0.000 A 
ATOM      3  C   UNL     1       2.615   6.863  18.687  0.00  0.00    +0.000 A 
ATOM      4  C   UNL     1       2.992   5.488  18.549  0.00  0.00    +0.000 A 
ATOM      5  C   UNL     1       3.932   5.166  17.548  0.00  0.00    +0.000 A 
ATOM      6  C   UNL     1       4.468   6.135  16.705  0.00  0.00    +0.000 A 
ATOM      7  C   UNL     1       4.061   7.465  16.804  0.00  0.00    +0.000 A 
ATOM      8  C   UNL     1       3.128   7.817  17.797  0.00  0.00    +0.000 A 
ATOM      9  S   UNL     1       2.473   9.396  18.101  0.00  0.00    +0.000 S 
ENDROOT
BRANCH   1  14
ATOM     10  N   UNL     1       0.051   9.680  23.754  0.00  0.00    +0.000 NA
ATOM     11  C   UNL     1      -0.137  10.014  22.532  0.00  0.00    +0.000 C 
ATOM     12  N   UNL     1      -1.089  10.887  22.146  0.00  0.00    +0.000 N 
ATOM     13  N   UNL     1       0.688   9.422  21.623  0.00  0.00    +0.000 N 
ATOM     14  C   UNL     1       0.704   9.677  20.265  0.00  0.00    +0.000 C 
ATOM     15  O   UNL     1       0.026  10.583  19.774  0.00  0.00    +0.000 OA
ATOM     16  H   UNL     1      -0.645  10.163  24.329  0.00  0.00    +0.000 HD
ATOM     17  H   UNL     1      -1.376  11.601  22.807  0.00  0.00    +0.000 HD
ATOM     18  H   UNL     1      -0.985  11.240  21.194  0.00  0.00    +0.000 HD
ATOM     19  H   UNL     1       1.316   8.733  22.007  0.00  0.00    +0.000 HD
ENDBRANCH   1  14
BRANCH   4  20
ATOM     20  C   UNL     1       2.441   4.462  19.474  0.00  0.00    +0.000 A 
ATOM     21  C   UNL     1       1.441   3.554  19.074  0.00  0.00    +0.000 A 
ATOM     22  C   UNL     1       0.804   2.706  19.985  0.00  0.00    +0.000 A 
ATOM     23  C   UNL     1       1.217   2.679  21.310  0.00  0.00    +0.000 A 
ATOM     24  C   UNL     1       2.271   3.491  21.716  0.00  0.00    +0.000 A 
ATOM     25  C   UNL     1       2.867   4.379  20.812  0.00  0.00    +0.000 A 
ENDBRANCH   4  20
TORSDOF 2
ENDMDL
MODEL 8
REMARK VINA RESULT:      -7.9      4.970      7.340
REMARK  Name = 
REMARK  2 active torsions:
REMARK  status: ('A' for Active; 'I' for Inactive)
REMARK    1  A    between atoms: C_5  and  C_7
REMARK    2  A    between atoms: C_10  and  C_11
REMARK                            x       y       z     vdW  Elec       q    Type
REMARK                         _______ _______ _______ _____ _____    ______ ____
ROOT
ATOM      1  C   UNL     1       1.539   9.017  19.264  0.00  0.00    +0.000 A 
ATOM      2  C   UNL     1       1.703   7.684  19.557  0.00  0.00    +0.000 A 
ATOM      3  C   UNL     1       2.560   6.962  18.661  0.00  0.00    +0.000 A 
ATOM      4  C   UNL     1       2.907   5.573  18.607  0.00  0.00    +0.000 A 
ATOM      5  C   UNL     1       3.884   5.179  17.670  0.00  0.00    +0.000 A 
ATOM      6  C   UNL     1       4.484   6.093  16.808  0.00  0.00    +0.000 A 
ATOM      7  C   UNL     1       4.108   7.436  16.824  0.00  0.00    +0.000 A 
ATOM      8  C   UNL     1       3.139   7.857  17.752  0.00  0.00    +0.000 A 
ATOM      9  S   UNL     1       2.511   9.465  17.948  0.00  0.00    +0.000 S 
ENDROOT
BRANCH   1  14
ATOM     10  N   UNL     1      -0.121  10.123  23.466  0.00  0.00    +0.000 NA
ATOM     11  C   UNL     1      -0.263  10.381  22.219  0.00  0.00    +0.000 C 
ATOM     12  N   UNL     1      -1.190  11.240  21.747  0.00  0.00    +0.000 N 
ATOM     13  N   UNL     1       0.585   9.725  21.378  0.00  0.00    +0.000 N 
ATOM     14  C   UNL     1       0.650   9.893  20.008  0.00  0.00    +0.000 C 
ATOM     15  O   UNL     1       0.002  10.774  19.439  0.00  0.00    +0.000 OA
ATOM     16  H   UNL     1      -0.829  10.648  23.985  0.00  0.00    +0.000 HD
ATOM     17  H   UNL     1      -1.489  11.997  22.352  0.00  0.00    +0.000 HD
ATOM     18  H   UNL     1      -1.048  11.531  20.779  0.00  0.00    +0.000 HD
ATOM     19  H   UNL     1       1.190   9.054  21.826  0.00  0.00    +0.000 HD
ENDBRANCH   1  14
BRANCH   4  20
ATOM     20  C   UNL     1       2.286   4.607  19.553  0.00  0.00    +0.000 A 
ATOM     21  C   UNL     1       2.675   4.529  20.905  0.00  0.00    +0.000 A 
ATOM     22  C   UNL     1       2.218   3.514  21.750  0.00  0.00    +0.000 A 
ATOM     23  C   UNL     1       1.282   2.599  21.287  0.00  0.00    +0.000 A 
ATOM     24  C   UNL     1       0.801   2.709  19.986  0.00  0.00    +0.000 A 
ATOM     25  C   UNL     1       1.306   3.693  19.128  0.00  0.00    +0.000 A 
ENDBRANCH   4  20
TORSDOF 2
ENDMDL
MODEL 9
REMARK VINA RESULT:      -7.9      4.636      6.711
REMARK  Name = 
REMARK  2 active torsions:
REMARK  status: ('A' for Active; 'I' for Inactive)
REMARK    1  A    between atoms: C_5  and  C_7
REMARK    2  A    between atoms: C_10  and  C_11
REMARK                            x       y       z     vdW  Elec       q    Type
REMARK                         _______ _______ _______ _____ _____    ______ ____
ROOT
ATOM      1  C   UNL     1       1.971   6.742  20.271  0.00  0.00    +0.000 A 
ATOM      2  C   UNL     1       3.163   6.530  19.619  0.00  0.00    +0.000 A 
ATOM      3  C   UNL     1       3.560   5.157  19.501  0.00  0.00    +0.000 A 
ATOM      4  C   UNL     1       4.746   4.564  18.958  0.00  0.00    +0.000 A 
ATOM      5  C   UNL     1       4.793   3.157  18.872  0.00  0.00    +0.000 A 
ATOM      6  C   UNL     1       3.742   2.360  19.315  0.00  0.00    +0.000 A 
ATOM      7  C   UNL     1       2.610   2.933  19.893  0.00  0.00    +0.000 A 
ATOM      8  C   UNL     1       2.533   4.335  19.986  0.00  0.00    +0.000 A 
ATOM      9  S   UNL     1       1.236   5.267  20.670  0.00  0.00    +0.000 S 
ENDROOT
BRANCH   1  14
ATOM     10  N   UNL     1       0.475   9.640  23.587  0.00  0.00    +0.000 NA
ATOM     11  C   UNL     1       0.581   9.522  22.316  0.00  0.00    +0.000 C 
ATOM     12  N   UNL     1       0.138  10.457  21.451  0.00  0.00    +0.000 N 
ATOM     13  N   UNL     1       1.172   8.376  21.875  0.00  0.00    +0.000 N 
ATOM     14  C   UNL     1       1.443   8.065  20.556  0.00  0.00    +0.000 C 
ATOM     15  O   UNL     1       1.272   8.890  19.656  0.00  0.00    +0.000 OA
ATOM     16  H   UNL     1      -0.009  10.519  23.788  0.00  0.00    +0.000 HD
ATOM     17  H   UNL     1       0.111  11.421  21.765  0.00  0.00    +0.000 HD
ATOM     18  H   UNL     1       0.486  10.355  20.497  0.00  0.00    +0.000 HD
ATOM     19  H   UNL     1       1.402   7.713  22.599  0.00  0.00    +0.000 HD
ENDBRANCH   1  14
BRANCH   4  20
ATOM     20  C   UNL     1       5.852   5.423  18.456  0.00  0.00    +0.000 A 
ATOM     21  C   UNL     1       7.049   5.597  19.178  0.00  0.00    +0.000 A 
ATOM     22  C   UNL     1       8.015   6.532  18.794  0.00  0.00    +0.000 A 
ATOM     23  C   UNL     1       7.850   7.255  17.621  0.00  0.00    +0.000 A 
ATOM     24  C   UNL     1       6.725   7.034  16.832  0.00  0.00    +0.000 A 
ATOM     25  C   UNL     1       5.734   6.137  17.251  0.00  0.00    +0.000 A 
ENDBRANCH   4  20
TORSDOF 2
ENDMDL
