MODEL 1
REMARK VINA RESULT:      -8.7      0.000      0.000
REMARK  Name = 
REMARK  7 active torsions:
REMARK  status: ('A' for Active; 'I' for Inactive)
REMARK    1  A    between atoms: C_1  and  C_2
REMARK    2  A    between atoms: C_2  and  C_3
REMARK    3  A    between atoms: C_3  and  O_4
REMARK    4  A    between atoms: C_20  and  C_21
REMARK    5  A    between atoms: C_21  and  N_22
REMARK    6  A    between atoms: N_22  and  C_23
REMARK    7  A    between atoms: C_26  and  O_27
REMARK                            x       y       z     vdW  Elec       q    Type
REMARK                         _______ _______ _______ _____ _____    ______ ____
ROOT
ATOM      1  C   UNL     1      -2.049  12.679  20.071  0.00  0.00    +0.000 C 
ATOM      2  C   UNL     1      -1.609  14.021  20.778  0.00  0.00    +0.000 C 
ATOM      3  O   UNL     1      -1.968  14.419  21.881  0.00  0.00    +0.000 OA
ATOM      4  O   UNL     1      -0.534  14.571  20.180  0.00  0.00    +0.000 OA
ATOM      5  C   UNL     1       0.535  13.856  20.763  0.00  0.00    +0.000 C 
ATOM      6  C   UNL     1       0.386  12.397  20.434  0.00  0.00    +0.000 A 
ATOM      7  C   UNL     1      -0.788  11.678  20.415  0.00  0.00    +0.000 A 
ATOM      8  C   UNL     1      -0.517  10.155  20.245  0.00  0.00    +0.000 A 
ATOM      9  C   UNL     1       0.634   9.707  19.626  0.00  0.00    +0.000 A 
ATOM     10  N   UNL     1       1.355  10.727  18.992  0.00  0.00    +0.000 N 
ATOM     11  C   UNL     1       1.352  12.026  19.362  0.00  0.00    +0.000 A 
ATOM     12  O   UNL     1       2.067  12.854  18.807  0.00  0.00    +0.000 OA
ATOM     13  C   UNL     1       2.176  10.269  17.914  0.00  0.00    +0.000 C 
ATOM     14  C   UNL     1       2.274   8.822  18.175  0.00  0.00    +0.000 A 
ATOM     15  C   UNL     1       3.191   7.991  17.550  0.00  0.00    +0.000 A 
ATOM     16  C   UNL     1       3.475   6.745  18.087  0.00  0.00    +0.000 A 
ATOM     17  C   UNL     1       4.421   5.851  17.451  0.00  0.00    +0.000 A 
ATOM     18  C   UNL     1       4.768   4.675  18.117  0.00  0.00    +0.000 A 
ATOM     19  C   UNL     1       4.279   4.434  19.390  0.00  0.00    +0.000 A 
ATOM     20  C   UNL     1       3.317   5.306  19.961  0.00  0.00    +0.000 A 
ATOM     21  C   UNL     1       2.814   6.460  19.326  0.00  0.00    +0.000 A 
ATOM     22  N   UNL     1       1.791   7.280  19.879  0.00  0.00    +0.000 NA
ATOM     23  C   UNL     1       1.476   8.439  19.248  0.00  0.00    +0.000 A 
ENDROOT
BRANCH   1  25
ATOM     24  C   UNL     1      -4.667  12.145  19.224  0.00  0.00    +0.000 C 
ATOM     25  C   UNL     1      -3.650  12.807  20.187  0.00  0.00    +0.000 C 
ENDBRANCH   1  25
BRANCH   1  26
ATOM     26  O   UNL     1      -1.882  12.677  18.621  0.00  0.00    +0.000 OA
ATOM     27  H   UNL     1      -1.775  11.768  18.300  0.00  0.00    +0.000 HD
ENDBRANCH   1  26
BRANCH  18  28
ATOM     28  O   UNL     1       5.585   3.727  17.563  0.00  0.00    +0.000 OA
ATOM     29  H   UNL     1       6.469   3.806  17.977  0.00  0.00    +0.000 HD
ENDBRANCH  18  28
BRANCH  17  30
ATOM     30  C   UNL     1       5.031   6.107  16.071  0.00  0.00    +0.000 C 
BRANCH  30  31
ATOM     31  N   UNL     1       6.416   6.586  16.191  0.00  0.00    +0.000 NA
ATOM     32  H   UNL     1       6.586   7.253  15.436  0.00  0.00    +0.000 HD
BRANCH  31  33
ATOM     33  C   UNL     1       6.706   7.238  17.479  0.00  0.00    +0.000 C 
ATOM     34  C   UNL     1       7.887   6.819  18.309  0.00  0.00    +0.000 C 
ATOM     35  C   UNL     1       7.926   8.120  17.562  0.00  0.00    +0.000 C 
ENDBRANCH  31  33
ENDBRANCH  30  31
ENDBRANCH  17  30
TORSDOF 6
ENDMDL
MODEL 2
REMARK VINA RESULT:      -8.2      1.121      1.406
REMARK  Name = 
REMARK  7 active torsions:
REMARK  status: ('A' for Active; 'I' for Inactive)
REMARK    1  A    between atoms: C_1  and  C_2
REMARK    2  A    between atoms: C_2  and  C_3
REMARK    3  A    between atoms: C_3  and  O_4
REMARK    4  A    between atoms: C_20  and  C_21
REMARK    5  A    between atoms: C_21  and  N_22
REMARK    6  A    between atoms: N_22  and  C_23
REMARK    7  A    between atoms: C_26  and  O_27
REMARK                            x       y       z     vdW  Elec       q    Type
REMARK                         _______ _______ _______ _____ _____    ______ ____
ROOT
ATOM      1  C   UNL     1      -1.889  12.684  20.049  0.00  0.00    +0.000 C 
ATOM      2  C   UNL     1      -1.392  14.060  20.644  0.00  0.00    +0.000 C 
ATOM      3  O   UNL     1      -1.679  14.530  21.740  0.00  0.00    +0.000 OA
ATOM      4  O   UNL     1      -0.350  14.558  19.949  0.00  0.00    +0.000 OA
ATOM      5  C   UNL     1       0.744  13.865  20.509  0.00  0.00    +0.000 C 
ATOM      6  C   UNL     1       0.561  12.391  20.281  0.00  0.00    +0.000 A 
ATOM      7  C   UNL     1      -0.619  11.688  20.377  0.00  0.00    +0.000 A 
ATOM      8  C   UNL     1      -0.374  10.155  20.286  0.00  0.00    +0.000 A 
ATOM      9  C   UNL     1       0.732   9.654  19.626  0.00  0.00    +0.000 A 
ATOM     10  N   UNL     1       1.423  10.623  18.888  0.00  0.00    +0.000 N 
ATOM     11  C   UNL     1       1.455  11.942  19.176  0.00  0.00    +0.000 A 
ATOM     12  O   UNL     1       2.143  12.725  18.529  0.00  0.00    +0.000 OA
ATOM     13  C   UNL     1       2.171  10.089  17.792  0.00  0.00    +0.000 C 
ATOM     14  C   UNL     1       2.270   8.659  18.135  0.00  0.00    +0.000 A 
ATOM     15  C   UNL     1       3.139   7.779  17.508  0.00  0.00    +0.000 A 
ATOM     16  C   UNL     1       3.443   6.564  18.103  0.00  0.00    +0.000 A 
ATOM     17  C   UNL     1       4.338   5.620  17.467  0.00  0.00    +0.000 A 
ATOM     18  C   UNL     1       4.714   4.482  18.181  0.00  0.00    +0.000 A 
ATOM     19  C   UNL     1       4.301   4.326  19.494  0.00  0.00    +0.000 A 
ATOM     20  C   UNL     1       3.385   5.244  20.068  0.00  0.00    +0.000 A 
ATOM     21  C   UNL     1       2.856   6.364  19.395  0.00  0.00    +0.000 A 
ATOM     22  N   UNL     1       1.877   7.231  19.957  0.00  0.00    +0.000 NA
ATOM     23  C   UNL     1       1.536   8.353  19.277  0.00  0.00    +0.000 A 
ENDROOT
BRANCH   1  25
ATOM     24  C   UNL     1      -4.559  12.213  19.339  0.00  0.00    +0.000 C 
ATOM     25  C   UNL     1      -3.478  12.841  20.255  0.00  0.00    +0.000 C 
ENDBRANCH   1  25
BRANCH   1  26
ATOM     26  O   UNL     1      -1.811  12.591  18.595  0.00  0.00    +0.000 OA
ATOM     27  H   UNL     1      -1.776  11.661  18.322  0.00  0.00    +0.000 HD
ENDBRANCH   1  26
BRANCH  18  28
ATOM     28  O   UNL     1       5.486   3.491  17.638  0.00  0.00    +0.000 OA
ATOM     29  H   UNL     1       4.930   2.971  17.024  0.00  0.00    +0.000 HD
ENDBRANCH  18  28
BRANCH  17  30
ATOM     30  C   UNL     1       4.865   5.783  16.039  0.00  0.00    +0.000 C 
BRANCH  30  31
ATOM     31  N   UNL     1       6.330   5.901  16.031  0.00  0.00    +0.000 NA
ATOM     32  H   UNL     1       6.654   5.889  17.000  0.00  0.00    +0.000 HD
BRANCH  31  33
ATOM     33  C   UNL     1       7.006   4.823  15.288  0.00  0.00    +0.000 C 
ATOM     34  C   UNL     1       6.276   4.030  14.240  0.00  0.00    +0.000 C 
ATOM     35  C   UNL     1       7.295   5.051  13.826  0.00  0.00    +0.000 C 
ENDBRANCH  31  33
ENDBRANCH  30  31
ENDBRANCH  17  30
TORSDOF 6
ENDMDL
MODEL 3
REMARK VINA RESULT:      -7.8      1.544      1.895
REMARK  Name = 
REMARK  7 active torsions:
REMARK  status: ('A' for Active; 'I' for Inactive)
REMARK    1  A    between atoms: C_1  and  C_2
REMARK    2  A    between atoms: C_2  and  C_3
REMARK    3  A    between atoms: C_3  and  O_4
REMARK    4  A    between atoms: C_20  and  C_21
REMARK    5  A    between atoms: C_21  and  N_22
REMARK    6  A    between atoms: N_22  and  C_23
REMARK    7  A    between atoms: C_26  and  O_27
REMARK                            x       y       z     vdW  Elec       q    Type
REMARK                         _______ _______ _______ _____ _____    ______ ____
ROOT
ATOM      1  C   UNL     1      -1.227  12.436  19.815  0.00  0.00    +0.000 C 
ATOM      2  C   UNL     1      -0.458  13.792  20.061  0.00  0.00    +0.000 C 
ATOM      3  O   UNL     1      -0.538  14.511  21.051  0.00  0.00    +0.000 OA
ATOM      4  O   UNL     1       0.561  13.953  19.193  0.00  0.00    +0.000 OA
ATOM      5  C   UNL     1       1.593  13.201  19.796  0.00  0.00    +0.000 C 
ATOM      6  C   UNL     1       1.157  11.767  19.903  0.00  0.00    +0.000 A 
ATOM      7  C   UNL     1      -0.098  11.316  20.243  0.00  0.00    +0.000 A 
ATOM      8  C   UNL     1      -0.107   9.775  20.460  0.00  0.00    +0.000 A 
ATOM      9  C   UNL     1       0.823   8.968  19.835  0.00  0.00    +0.000 A 
ATOM     10  N   UNL     1       1.566   9.637  18.853  0.00  0.00    +0.000 N 
ATOM     11  C   UNL     1       1.836  10.959  18.850  0.00  0.00    +0.000 A 
ATOM     12  O   UNL     1       2.558  11.467  17.997  0.00  0.00    +0.000 OA
ATOM     13  C   UNL     1       2.089   8.774  17.839  0.00  0.00    +0.000 C 
ATOM     14  C   UNL     1       2.005   7.445  18.469  0.00  0.00    +0.000 A 
ATOM     15  C   UNL     1       2.647   6.320  17.975  0.00  0.00    +0.000 A 
ATOM     16  C   UNL     1       2.826   5.212  18.788  0.00  0.00    +0.000 A 
ATOM     17  C   UNL     1       3.483   4.019  18.297  0.00  0.00    +0.000 A 
ATOM     18  C   UNL     1       3.758   2.995  19.204  0.00  0.00    +0.000 A 
ATOM     19  C   UNL     1       3.482   3.174  20.549  0.00  0.00    +0.000 A 
ATOM     20  C   UNL     1       2.792   4.334  20.987  0.00  0.00    +0.000 A 
ATOM     21  C   UNL     1       2.369   5.375  20.136  0.00  0.00    +0.000 A 
ATOM     22  N   UNL     1       1.609   6.494  20.580  0.00  0.00    +0.000 NA
ATOM     23  C   UNL     1       1.369   7.503  19.705  0.00  0.00    +0.000 A 
ENDROOT
BRANCH   1  25
ATOM     24  C   UNL     1      -3.492  12.686  21.447  0.00  0.00    +0.000 C 
ATOM     25  C   UNL     1      -2.738  12.907  20.111  0.00  0.00    +0.000 C 
ENDBRANCH   1  25
BRANCH   1  26
ATOM     26  O   UNL     1      -1.335  12.047  18.412  0.00  0.00    +0.000 OA
ATOM     27  H   UNL     1      -0.693  12.542  17.880  0.00  0.00    +0.000 HD
ENDBRANCH   1  26
BRANCH  18  28
ATOM     28  O   UNL     1       4.299   1.796  18.823  0.00  0.00    +0.000 OA
ATOM     29  H   UNL     1       3.783   1.455  18.065  0.00  0.00    +0.000 HD
ENDBRANCH  18  28
BRANCH  17  30
ATOM     30  C   UNL     1       3.859   3.803  16.829  0.00  0.00    +0.000 C 
BRANCH  30  31
ATOM     31  N   UNL     1       5.295   3.519  16.692  0.00  0.00    +0.000 NA
ATOM     32  H   UNL     1       5.396   2.584  16.292  0.00  0.00    +0.000 HD
BRANCH  31  33
ATOM     33  C   UNL     1       6.010   4.483  15.837  0.00  0.00    +0.000 C 
ATOM     34  C   UNL     1       5.670   5.947  15.871  0.00  0.00    +0.000 C 
ATOM     35  C   UNL     1       6.940   5.462  16.506  0.00  0.00    +0.000 C 
ENDBRANCH  31  33
ENDBRANCH  30  31
ENDBRANCH  17  30
TORSDOF 6
ENDMDL
MODEL 4
REMARK VINA RESULT:      -7.7      3.370      5.366
REMARK  Name = 
REMARK  7 active torsions:
REMARK  status: ('A' for Active; 'I' for Inactive)
REMARK    1  A    between atoms: C_1  and  C_2
REMARK    2  A    between atoms: C_2  and  C_3
REMARK    3  A    between atoms: C_3  and  O_4
REMARK    4  A    between atoms: C_20  and  C_21
REMARK    5  A    between atoms: C_21  and  N_22
REMARK    6  A    between atoms: N_22  and  C_23
REMARK    7  A    between atoms: C_26  and  O_27
REMARK                            x       y       z     vdW  Elec       q    Type
REMARK                         _______ _______ _______ _____ _____    ______ ____
ROOT
ATOM      1  C   UNL     1      -1.774  15.608  23.872  0.00  0.00    +0.000 C 
ATOM      2  C   UNL     1      -3.329  15.851  24.003  0.00  0.00    +0.000 C 
ATOM      3  O   UNL     1      -3.971  16.770  23.505  0.00  0.00    +0.000 OA
ATOM      4  O   UNL     1      -3.966  14.762  24.475  0.00  0.00    +0.000 OA
ATOM      5  C   UNL     1      -4.137  13.983  23.311  0.00  0.00    +0.000 C 
ATOM      6  C   UNL     1      -2.787  13.650  22.741  0.00  0.00    +0.000 A 
ATOM      7  C   UNL     1      -1.700  14.491  22.664  0.00  0.00    +0.000 A 
ATOM      8  C   UNL     1      -0.556  13.863  21.818  0.00  0.00    +0.000 A 
ATOM      9  C   UNL     1      -0.438  12.492  21.697  0.00  0.00    +0.000 A 
ATOM     10  N   UNL     1      -1.270  11.784  22.573  0.00  0.00    +0.000 N 
ATOM     11  C   UNL     1      -2.446  12.234  23.060  0.00  0.00    +0.000 A 
ATOM     12  O   UNL     1      -3.162  11.530  23.766  0.00  0.00    +0.000 OA
ATOM     13  C   UNL     1      -0.795  10.472  22.887  0.00  0.00    +0.000 C 
ATOM     14  C   UNL     1       0.176  10.214  21.808  0.00  0.00    +0.000 A 
ATOM     15  C   UNL     1       0.698   8.959  21.532  0.00  0.00    +0.000 A 
ATOM     16  C   UNL     1       1.307   8.717  20.310  0.00  0.00    +0.000 A 
ATOM     17  C   UNL     1       1.871   7.420  19.997  0.00  0.00    +0.000 A 
ATOM     18  C   UNL     1       2.342   7.200  18.702  0.00  0.00    +0.000 A 
ATOM     19  C   UNL     1       2.181   8.179  17.735  0.00  0.00    +0.000 A 
ATOM     20  C   UNL     1       1.670   9.454  18.089  0.00  0.00    +0.000 A 
ATOM     21  C   UNL     1       1.272   9.816  19.392  0.00  0.00    +0.000 A 
ATOM     22  N   UNL     1       0.836  11.124  19.747  0.00  0.00    +0.000 NA
ATOM     23  C   UNL     1       0.350  11.330  20.996  0.00  0.00    +0.000 A 
ENDROOT
BRANCH   1  25
ATOM     24  C   UNL     1      -0.445  18.028  23.390  0.00  0.00    +0.000 C 
ATOM     25  C   UNL     1      -1.221  17.055  24.312  0.00  0.00    +0.000 C 
ENDBRANCH   1  25
BRANCH   1  26
ATOM     26  O   UNL     1      -1.203  14.768  24.920  0.00  0.00    +0.000 OA
ATOM     27  H   UNL     1      -0.429  14.292  24.580  0.00  0.00    +0.000 HD
ENDBRANCH   1  26
BRANCH  18  28
ATOM     28  O   UNL     1       2.967   6.041  18.331  0.00  0.00    +0.000 OA
ATOM     29  H   UNL     1       2.901   5.955  17.358  0.00  0.00    +0.000 HD
ENDBRANCH  18  28
BRANCH  17  30
ATOM     30  C   UNL     1       2.015   6.290  21.019  0.00  0.00    +0.000 C 
BRANCH  30  31
ATOM     31  N   UNL     1       1.188   5.135  20.643  0.00  0.00    +0.000 NA
ATOM     32  H   UNL     1       0.850   5.284  19.690  0.00  0.00    +0.000 HD
BRANCH  31  33
ATOM     33  C   UNL     1       1.908   3.850  20.698  0.00  0.00    +0.000 C 
ATOM     34  C   UNL     1       1.301   2.652  21.372  0.00  0.00    +0.000 C 
ATOM     35  C   UNL     1       1.371   2.708  19.874  0.00  0.00    +0.000 C 
ENDBRANCH  31  33
ENDBRANCH  30  31
ENDBRANCH  17  30
TORSDOF 6
ENDMDL
MODEL 5
REMARK VINA RESULT:      -7.3      1.402      1.706
REMARK  Name = 
REMARK  7 active torsions:
REMARK  status: ('A' for Active; 'I' for Inactive)
REMARK    1  A    between atoms: C_1  and  C_2
REMARK    2  A    between atoms: C_2  and  C_3
REMARK    3  A    between atoms: C_3  and  O_4
REMARK    4  A    between atoms: C_20  and  C_21
REMARK    5  A    between atoms: C_21  and  N_22
REMARK    6  A    between atoms: N_22  and  C_23
REMARK    7  A    between atoms: C_26  and  O_27
REMARK                            x       y       z     vdW  Elec       q    Type
REMARK                         _______ _______ _______ _____ _____    ______ ____
ROOT
ATOM      1  C   UNL     1      -1.701  12.021  18.803  0.00  0.00    +0.000 C 
ATOM      2  C   UNL     1      -1.182  13.443  19.254  0.00  0.00    +0.000 C 
ATOM      3  O   UNL     1      -1.612  14.118  20.184  0.00  0.00    +0.000 OA
ATOM      4  O   UNL     1       0.012  13.736  18.705  0.00  0.00    +0.000 OA
ATOM      5  C   UNL     1       0.913  13.079  19.570  0.00  0.00    +0.000 C 
ATOM      6  C   UNL     1       0.625  11.605  19.551  0.00  0.00    +0.000 A 
ATOM      7  C   UNL     1      -0.619  11.013  19.528  0.00  0.00    +0.000 A 
ATOM      8  C   UNL     1      -0.518   9.475  19.733  0.00  0.00    +0.000 A 
ATOM      9  C   UNL     1       0.631   8.790  19.391  0.00  0.00    +0.000 A 
ATOM     10  N   UNL     1       1.539   9.562  18.655  0.00  0.00    +0.000 N 
ATOM     11  C   UNL     1       1.653  10.906  18.728  0.00  0.00    +0.000 A 
ATOM     12  O   UNL     1       2.522  11.513  18.109  0.00  0.00    +0.000 OA
ATOM     13  C   UNL     1       2.413   8.792  17.825  0.00  0.00    +0.000 C 
ATOM     14  C   UNL     1       2.304   7.442  18.407  0.00  0.00    +0.000 A 
ATOM     15  C   UNL     1       3.177   6.407  18.110  0.00  0.00    +0.000 A 
ATOM     16  C   UNL     1       3.244   5.299  18.940  0.00  0.00    +0.000 A 
ATOM     17  C   UNL     1       4.139   4.197  18.650  0.00  0.00    +0.000 A 
ATOM     18  C   UNL     1       4.263   3.180  19.597  0.00  0.00    +0.000 A 
ATOM     19  C   UNL     1       3.607   3.288  20.812  0.00  0.00    +0.000 A 
ATOM     20  C   UNL     1       2.701   4.354  21.042  0.00  0.00    +0.000 A 
ATOM     21  C   UNL     1       2.418   5.371  20.108  0.00  0.00    +0.000 A 
ATOM     22  N   UNL     1       1.447   6.390  20.323  0.00  0.00    +0.000 NA
ATOM     23  C   UNL     1       1.349   7.395  19.417  0.00  0.00    +0.000 A 
ENDROOT
BRANCH   1  25
ATOM     24  C   UNL     1      -4.259  11.528  17.770  0.00  0.00    +0.000 C 
ATOM     25  C   UNL     1      -3.277  12.322  18.668  0.00  0.00    +0.000 C 
ENDBRANCH   1  25
BRANCH   1  26
ATOM     26  O   UNL     1      -1.373  11.667  17.426  0.00  0.00    +0.000 OA
ATOM     27  H   UNL     1      -1.152  10.724  17.369  0.00  0.00    +0.000 HD
ENDBRANCH   1  26
BRANCH  18  28
ATOM     28  O   UNL     1       5.015   2.058  19.381  0.00  0.00    +0.000 OA
ATOM     29  H   UNL     1       5.960   2.310  19.423  0.00  0.00    +0.000 HD
ENDBRANCH  18  28
BRANCH  17  30
ATOM     30  C   UNL     1       4.927   4.068  17.344  0.00  0.00    +0.000 C 
BRANCH  30  31
ATOM     31  N   UNL     1       6.374   4.043  17.606  0.00  0.00    +0.000 NA
ATOM     32  H   UNL     1       6.761   3.207  17.163  0.00  0.00    +0.000 HD
BRANCH  31  33
ATOM     33  C   UNL     1       7.087   5.227  17.096  0.00  0.00    +0.000 C 
ATOM     34  C   UNL     1       6.473   6.596  17.179  0.00  0.00    +0.000 C 
ATOM     35  C   UNL     1       7.598   6.227  18.101  0.00  0.00    +0.000 C 
ENDBRANCH  31  33
ENDBRANCH  30  31
ENDBRANCH  17  30
TORSDOF 6
ENDMDL
MODEL 6
REMARK VINA RESULT:      -7.3      1.971      9.309
REMARK  Name = 
REMARK  7 active torsions:
REMARK  status: ('A' for Active; 'I' for Inactive)
REMARK    1  A    between atoms: C_1  and  C_2
REMARK    2  A    between atoms: C_2  and  C_3
REMARK    3  A    between atoms: C_3  and  O_4
REMARK    4  A    between atoms: C_20  and  C_21
REMARK    5  A    between atoms: C_21  and  N_22
REMARK    6  A    between atoms: N_22  and  C_23
REMARK    7  A    between atoms: C_26  and  O_27
REMARK                            x       y       z     vdW  Elec       q    Type
REMARK                         _______ _______ _______ _____ _____    ______ ____
ROOT
ATOM      1  C   UNL     1       4.811   4.875  16.732  0.00  0.00    +0.000 C 
ATOM      2  C   UNL     1       5.680   4.081  17.785  0.00  0.00    +0.000 C 
ATOM      3  O   UNL     1       6.900   3.947  17.777  0.00  0.00    +0.000 OA
ATOM      4  O   UNL     1       4.980   3.803  18.902  0.00  0.00    +0.000 OA
ATOM      5  C   UNL     1       5.095   5.001  19.638  0.00  0.00    +0.000 C 
ATOM      6  C   UNL     1       4.483   6.123  18.848  0.00  0.00    +0.000 A 
ATOM      7  C   UNL     1       4.588   6.320  17.489  0.00  0.00    +0.000 A 
ATOM      8  C   UNL     1       4.006   7.701  17.070  0.00  0.00    +0.000 A 
ATOM      9  C   UNL     1       3.033   8.318  17.832  0.00  0.00    +0.000 A 
ATOM     10  N   UNL     1       2.496   7.488  18.825  0.00  0.00    +0.000 N 
ATOM     11  C   UNL     1       3.148   6.464  19.416  0.00  0.00    +0.000 A 
ATOM     12  O   UNL     1       2.642   5.823  20.333  0.00  0.00    +0.000 OA
ATOM     13  C   UNL     1       1.172   7.849  19.225  0.00  0.00    +0.000 C 
ATOM     14  C   UNL     1       1.055   9.236  18.740  0.00  0.00    +0.000 A 
ATOM     15  C   UNL     1       0.045  10.102  19.131  0.00  0.00    +0.000 A 
ATOM     16  C   UNL     1       0.188  11.467  18.933  0.00  0.00    +0.000 A 
ATOM     17  C   UNL     1      -0.853  12.395  19.322  0.00  0.00    +0.000 A 
ATOM     18  C   UNL     1      -0.589  13.762  19.227  0.00  0.00    +0.000 A 
ATOM     19  C   UNL     1       0.673  14.195  18.856  0.00  0.00    +0.000 A 
ATOM     20  C   UNL     1       1.653  13.259  18.434  0.00  0.00    +0.000 A 
ATOM     21  C   UNL     1       1.451  11.865  18.384  0.00  0.00    +0.000 A 
ATOM     22  N   UNL     1       2.416  10.947  17.884  0.00  0.00    +0.000 NA
ATOM     23  C   UNL     1       2.172   9.618  18.005  0.00  0.00    +0.000 A 
ENDROOT
BRANCH   1  25
ATOM     24  C   UNL     1       6.413   4.848  14.432  0.00  0.00    +0.000 C 
ATOM     25  C   UNL     1       5.349   4.217  15.365  0.00  0.00    +0.000 C 
ENDBRANCH   1  25
BRANCH   1  26
ATOM     26  O   UNL     1       3.406   4.483  16.689  0.00  0.00    +0.000 OA
ATOM     27  H   UNL     1       3.185   3.953  17.471  0.00  0.00    +0.000 HD
ENDBRANCH   1  26
BRANCH  18  28
ATOM     28  O   UNL     1      -1.533  14.716  19.490  0.00  0.00    +0.000 OA
ATOM     29  H   UNL     1      -2.236  14.310  20.036  0.00  0.00    +0.000 HD
ENDBRANCH  18  28
BRANCH  17  30
ATOM     30  C   UNL     1      -2.242  11.959  19.794  0.00  0.00    +0.000 C 
BRANCH  30  31
ATOM     31  N   UNL     1      -3.255  12.229  18.763  0.00  0.00    +0.000 NA
ATOM     32  H   UNL     1      -3.235  13.230  18.554  0.00  0.00    +0.000 HD
BRANCH  31  33
ATOM     33  C   UNL     1      -3.042  11.477  17.514  0.00  0.00    +0.000 C 
ATOM     34  C   UNL     1      -3.339  10.006  17.437  0.00  0.00    +0.000 C 
ATOM     35  C   UNL     1      -4.259  10.986  16.773  0.00  0.00    +0.000 C 
ENDBRANCH  31  33
ENDBRANCH  30  31
ENDBRANCH  17  30
TORSDOF 6
ENDMDL
MODEL 7
REMARK VINA RESULT:      -7.1      1.485      1.641
REMARK  Name = 
REMARK  7 active torsions:
REMARK  status: ('A' for Active; 'I' for Inactive)
REMARK    1  A    between atoms: C_1  and  C_2
REMARK    2  A    between atoms: C_2  and  C_3
REMARK    3  A    between atoms: C_3  and  O_4
REMARK    4  A    between atoms: C_20  and  C_21
REMARK    5  A    between atoms: C_21  and  N_22
REMARK    6  A    between atoms: N_22  and  C_23
REMARK    7  A    between atoms: C_26  and  O_27
REMARK                            x       y       z     vdW  Elec       q    Type
REMARK                         _______ _______ _______ _____ _____    ______ ____
ROOT
ATOM      1  C   UNL     1      -1.968  13.335  20.794  0.00  0.00    +0.000 C 
ATOM      2  C   UNL     1      -1.351  14.655  21.403  0.00  0.00    +0.000 C 
ATOM      3  O   UNL     1      -1.571  15.120  22.517  0.00  0.00    +0.000 OA
ATOM      4  O   UNL     1      -0.293  15.087  20.689  0.00  0.00    +0.000 OA
ATOM      5  C   UNL     1       0.760  14.300  21.202  0.00  0.00    +0.000 C 
ATOM      6  C   UNL     1       0.457  12.850  20.948  0.00  0.00    +0.000 A 
ATOM      7  C   UNL     1      -0.771  12.238  21.064  0.00  0.00    +0.000 A 
ATOM      8  C   UNL     1      -0.648  10.692  20.933  0.00  0.00    +0.000 A 
ATOM      9  C   UNL     1       0.397  10.124  20.231  0.00  0.00    +0.000 A 
ATOM     10  N   UNL     1       1.141  11.054  19.494  0.00  0.00    +0.000 N 
ATOM     11  C   UNL     1       1.283  12.359  19.809  0.00  0.00    +0.000 A 
ATOM     12  O   UNL     1       2.012  13.102  19.159  0.00  0.00    +0.000 OA
ATOM     13  C   UNL     1       1.815  10.489  18.366  0.00  0.00    +0.000 C 
ATOM     14  C   UNL     1       1.813   9.049  18.676  0.00  0.00    +0.000 A 
ATOM     15  C   UNL     1       2.594   8.120  18.005  0.00  0.00    +0.000 A 
ATOM     16  C   UNL     1       2.819   6.872  18.565  0.00  0.00    +0.000 A 
ATOM     17  C   UNL     1       3.621   5.877  17.883  0.00  0.00    +0.000 A 
ATOM     18  C   UNL     1       3.927   4.697  18.562  0.00  0.00    +0.000 A 
ATOM     19  C   UNL     1       3.539   4.542  19.883  0.00  0.00    +0.000 A 
ATOM     20  C   UNL     1       2.713   5.514  20.502  0.00  0.00    +0.000 A 
ATOM     21  C   UNL     1       2.254   6.687  19.869  0.00  0.00    +0.000 A 
ATOM     22  N   UNL     1       1.361   7.613  20.478  0.00  0.00    +0.000 NA
ATOM     23  C   UNL     1       1.089   8.774  19.831  0.00  0.00    +0.000 A 
ENDROOT
BRANCH   1  25
ATOM     24  C   UNL     1      -4.404  12.881  22.104  0.00  0.00    +0.000 C 
ATOM     25  C   UNL     1      -3.535  13.609  21.048  0.00  0.00    +0.000 C 
ENDBRANCH   1  25
BRANCH   1  26
ATOM     26  O   UNL     1      -1.938  13.271  19.336  0.00  0.00    +0.000 OA
ATOM     27  H   UNL     1      -1.185  12.733  19.043  0.00  0.00    +0.000 HD
ENDBRANCH   1  26
BRANCH  18  28
ATOM     28  O   UNL     1       4.605   3.663  17.977  0.00  0.00    +0.000 OA
ATOM     29  H   UNL     1       5.564   3.827  18.081  0.00  0.00    +0.000 HD
ENDBRANCH  18  28
BRANCH  17  30
ATOM     30  C   UNL     1       4.120   6.032  16.445  0.00  0.00    +0.000 C 
BRANCH  30  31
ATOM     31  N   UNL     1       5.559   5.747  16.355  0.00  0.00    +0.000 NA
ATOM     32  H   UNL     1       5.772   4.983  17.000  0.00  0.00    +0.000 HD
BRANCH  31  33
ATOM     33  C   UNL     1       6.004   5.368  15.003  0.00  0.00    +0.000 C 
ATOM     34  C   UNL     1       7.343   4.721  14.782  0.00  0.00    +0.000 C 
ATOM     35  C   UNL     1       6.092   3.899  14.677  0.00  0.00    +0.000 C 
ENDBRANCH  31  33
ENDBRANCH  30  31
ENDBRANCH  17  30
TORSDOF 6
ENDMDL
MODEL 8
REMARK VINA RESULT:      -7.1      2.787      4.561
REMARK  Name = 
REMARK  7 active torsions:
REMARK  status: ('A' for Active; 'I' for Inactive)
REMARK    1  A    between atoms: C_1  and  C_2
REMARK    2  A    between atoms: C_2  and  C_3
REMARK    3  A    between atoms: C_3  and  O_4
REMARK    4  A    between atoms: C_20  and  C_21
REMARK    5  A    between atoms: C_21  and  N_22
REMARK    6  A    between atoms: N_22  and  C_23
REMARK    7  A    between atoms: C_26  and  O_27
REMARK                            x       y       z     vdW  Elec       q    Type
REMARK                         _______ _______ _______ _____ _____    ______ ____
ROOT
ATOM      1  C   UNL     1       1.239  12.373  19.606  0.00  0.00    +0.000 C 
ATOM      2  C   UNL     1      -0.233  12.878  19.877  0.00  0.00    +0.000 C 
ATOM      3  O   UNL     1      -0.926  13.553  19.122  0.00  0.00    +0.000 OA
ATOM      4  O   UNL     1      -0.799  12.232  20.915  0.00  0.00    +0.000 OA
ATOM      5  C   UNL     1      -1.265  11.044  20.314  0.00  0.00    +0.000 C 
ATOM      6  C   UNL     1      -0.096  10.290  19.746  0.00  0.00    +0.000 A 
ATOM      7  C   UNL     1       0.985  10.831  19.087  0.00  0.00    +0.000 A 
ATOM      8  C   UNL     1       1.878   9.724  18.457  0.00  0.00    +0.000 A 
ATOM      9  C   UNL     1       1.899   8.448  18.986  0.00  0.00    +0.000 A 
ATOM     10  N   UNL     1       1.253   8.351  20.225  0.00  0.00    +0.000 N 
ATOM     11  C   UNL     1       0.239   9.143  20.636  0.00  0.00    +0.000 A 
ATOM     12  O   UNL     1      -0.332   8.953  21.706  0.00  0.00    +0.000 OA
ATOM     13  C   UNL     1       1.722   7.271  21.038  0.00  0.00    +0.000 C 
ATOM     14  C   UNL     1       2.411   6.408  20.062  0.00  0.00    +0.000 A 
ATOM     15  C   UNL     1       2.797   5.104  20.332  0.00  0.00    +0.000 A 
ATOM     16  C   UNL     1       3.103   4.243  19.288  0.00  0.00    +0.000 A 
ATOM     17  C   UNL     1       3.519   2.879  19.538  0.00  0.00    +0.000 A 
ATOM     18  C   UNL     1       3.674   2.025  18.446  0.00  0.00    +0.000 A 
ATOM     19  C   UNL     1       3.346   2.467  17.175  0.00  0.00    +0.000 A 
ATOM     20  C   UNL     1       2.991   3.823  16.961  0.00  0.00    +0.000 A 
ATOM     21  C   UNL     1       2.914   4.795  17.979  0.00  0.00    +0.000 A 
ATOM     22  N   UNL     1       2.634   6.169  17.737  0.00  0.00    +0.000 NA
ATOM     23  C   UNL     1       2.452   6.991  18.800  0.00  0.00    +0.000 A 
ENDROOT
BRANCH   1  25
ATOM     24  C   UNL     1       3.379  14.183  19.609  0.00  0.00    +0.000 C 
ATOM     25  C   UNL     1       1.946  13.761  19.198  0.00  0.00    +0.000 C 
ENDBRANCH   1  25
BRANCH   1  26
ATOM     26  O   UNL     1       1.991  12.029  20.809  0.00  0.00    +0.000 OA
ATOM     27  H   UNL     1       1.611  11.239  21.224  0.00  0.00    +0.000 HD
ENDBRANCH   1  26
BRANCH  18  28
ATOM     28  O   UNL     1       4.143   0.745  18.570  0.00  0.00    +0.000 OA
ATOM     29  H   UNL     1       3.455   0.209  19.013  0.00  0.00    +0.000 HD
ENDBRANCH  18  28
BRANCH  17  30
ATOM     30  C   UNL     1       3.835   2.332  20.933  0.00  0.00    +0.000 C 
BRANCH  30  31
ATOM     31  N   UNL     1       5.191   1.768  20.979  0.00  0.00    +0.000 NA
ATOM     32  H   UNL     1       5.801   2.448  21.438  0.00  0.00    +0.000 HD
BRANCH  31  33
ATOM     33  C   UNL     1       5.275   0.487  21.704  0.00  0.00    +0.000 C 
ATOM     34  C   UNL     1       6.145  -0.630  21.201  0.00  0.00    +0.000 C 
ATOM     35  C   UNL     1       6.568   0.159  22.405  0.00  0.00    +0.000 C 
ENDBRANCH  31  33
ENDBRANCH  30  31
ENDBRANCH  17  30
TORSDOF 6
ENDMDL
MODEL 9
REMARK VINA RESULT:      -6.8      5.952     10.848
REMARK  Name = 
REMARK  7 active torsions:
REMARK  status: ('A' for Active; 'I' for Inactive)
REMARK    1  A    between atoms: C_1  and  C_2
REMARK    2  A    between atoms: C_2  and  C_3
REMARK    3  A    between atoms: C_3  and  O_4
REMARK    4  A    between atoms: C_20  and  C_21
REMARK    5  A    between atoms: C_21  and  N_22
REMARK    6  A    between atoms: N_22  and  C_23
REMARK    7  A    between atoms: C_26  and  O_27
REMARK                            x       y       z     vdW  Elec       q    Type
REMARK                         _______ _______ _______ _____ _____    ______ ____
ROOT
ATOM      1  C   UNL     1       9.472  13.850  18.460  0.00  0.00    +0.000 C 
ATOM      2  C   UNL     1      10.598  14.494  19.361  0.00  0.00    +0.000 C 
ATOM      3  O   UNL     1      11.587  15.105  18.970  0.00  0.00    +0.000 OA
ATOM      4  O   UNL     1      10.216  14.583  20.650  0.00  0.00    +0.000 OA
ATOM      5  C   UNL     1       9.459  15.774  20.660  0.00  0.00    +0.000 C 
ATOM      6  C   UNL     1       8.289  15.619  19.730  0.00  0.00    +0.000 A 
ATOM      7  C   UNL     1       8.297  15.004  18.498  0.00  0.00    +0.000 A 
ATOM      8  C   UNL     1       6.957  15.232  17.741  0.00  0.00    +0.000 A 
ATOM      9  C   UNL     1       5.789  15.481  18.433  0.00  0.00    +0.000 A 
ATOM     10  N   UNL     1       5.905  15.269  19.813  0.00  0.00    +0.000 N 
ATOM     11  C   UNL     1       7.048  15.388  20.523  0.00  0.00    +0.000 A 
ATOM     12  O   UNL     1       7.063  15.261  21.743  0.00  0.00    +0.000 OA
ATOM     13  C   UNL     1       4.666  14.959  20.456  0.00  0.00    +0.000 C 
ATOM     14  C   UNL     1       3.668  15.417  19.473  0.00  0.00    +0.000 A 
ATOM     15  C   UNL     1       2.322  15.574  19.764  0.00  0.00    +0.000 A 
ATOM     16  C   UNL     1       1.517  16.334  18.929  0.00  0.00    +0.000 A 
ATOM     17  C   UNL     1       0.105  16.508  19.202  0.00  0.00    +0.000 A 
ATOM     18  C   UNL     1      -0.616  17.399  18.406  0.00  0.00    +0.000 A 
ATOM     19  C   UNL     1       0.040  18.152  17.447  0.00  0.00    +0.000 A 
ATOM     20  C   UNL     1       1.413  17.921  17.174  0.00  0.00    +0.000 A 
ATOM     21  C   UNL     1       2.205  16.965  17.842  0.00  0.00    +0.000 A 
ATOM     22  N   UNL     1       3.560  16.689  17.502  0.00  0.00    +0.000 NA
ATOM     23  C   UNL     1       4.269  15.848  18.295  0.00  0.00    +0.000 A 
ENDROOT
BRANCH   1  25
ATOM     24  C   UNL     1      11.322  11.827  17.879  0.00  0.00    +0.000 C 
ATOM     25  C   UNL     1      10.376  12.977  17.453  0.00  0.00    +0.000 C 
ENDBRANCH   1  25
BRANCH   1  26
ATOM     26  O   UNL     1       8.702  12.797  19.116  0.00  0.00    +0.000 OA
ATOM     27  H   UNL     1       9.131  12.540  19.947  0.00  0.00    +0.000 HD
ENDBRANCH   1  26
BRANCH  18  28
ATOM     28  O   UNL     1      -1.968  17.569  18.528  0.00  0.00    +0.000 OA
ATOM     29  H   UNL     1      -2.176  18.509  18.350  0.00  0.00    +0.000 HD
ENDBRANCH  18  28
BRANCH  17  30
ATOM     30  C   UNL     1      -0.648  15.739  20.289  0.00  0.00    +0.000 C 
BRANCH  30  31
ATOM     31  N   UNL     1      -1.455  14.658  19.704  0.00  0.00    +0.000 NA
ATOM     32  H   UNL     1      -1.815  14.984  18.805  0.00  0.00    +0.000 HD
BRANCH  31  33
ATOM     33  C   UNL     1      -0.705  13.408  19.493  0.00  0.00    +0.000 C 
ATOM     34  C   UNL     1      -1.408  12.079  19.468  0.00  0.00    +0.000 C 
ATOM     35  C   UNL     1      -0.905  12.680  18.189  0.00  0.00    +0.000 C 
ENDBRANCH  31  33
ENDBRANCH  30  31
ENDBRANCH  17  30
TORSDOF 6
ENDMDL
