MODEL 1
REMARK VINA RESULT:      -6.9      0.000      0.000
REMARK  Name = 
REMARK  9 active torsions:
REMARK  status: ('A' for Active; 'I' for Inactive)
REMARK    1  A    between atoms: C_1  and  C_2
REMARK    2  A    between atoms: C_2  and  C_3
REMARK    3  A    between atoms: C_2  and  C_4
REMARK    4  A    between atoms: C_2  and  N_5
REMARK    5  A    between atoms: N_5  and  C_6
REMARK    6  A    between atoms: C_6  and  C_7
REMARK    7  A    between atoms: C_7  and  O_8
REMARK    8  A    between atoms: C_7  and  C_9
REMARK    9  A    between atoms: C_9  and  N_10
REMARK                            x       y       z     vdW  Elec       q    Type
REMARK                         _______ _______ _______ _____ _____    ______ ____
ROOT
ATOM      1  N   UNL     1       3.283   6.934  18.300  0.00  0.00    +0.000 N 
ATOM      2  C   UNL     1       4.034   6.350  17.297  0.00  0.00    +0.000 A 
ATOM      3  C   UNL     1       4.754   6.915  16.230  0.00  0.00    +0.000 A 
ATOM      4  C   UNL     1       5.411   6.057  15.347  0.00  0.00    +0.000 A 
ATOM      5  C   UNL     1       5.358   4.680  15.533  0.00  0.00    +0.000 A 
ATOM      6 CL   UNL     1       6.183   3.647  14.427  0.00  0.00    +0.000 Cl
ATOM      7  C   UNL     1       4.654   4.124  16.601  0.00  0.00    +0.000 A 
ATOM      8  C   UNL     1       3.975   4.971  17.502  0.00  0.00    +0.000 A 
ATOM      9  C   UNL     1       3.186   4.740  18.672  0.00  0.00    +0.000 A 
ATOM     10  C   UNL     1       2.798   3.574  19.369  0.00  0.00    +0.000 A 
ATOM     11  C   UNL     1       2.007   3.692  20.515  0.00  0.00    +0.000 A 
ATOM     12 CL   UNL     1       1.542   2.272  21.372  0.00  0.00    +0.000 Cl
ATOM     13  C   UNL     1       1.590   4.936  20.973  0.00  0.00    +0.000 A 
ATOM     14  C   UNL     1       1.958   6.106  20.297  0.00  0.00    +0.000 A 
ATOM     15  C   UNL     1       2.762   5.980  19.151  0.00  0.00    +0.000 A 
ENDROOT
BRANCH   1  16
ATOM     16  C   UNL     1       3.131   8.368  18.473  0.00  0.00    +0.000 C 
BRANCH  16  17
ATOM     17  C   UNL     1       1.782   8.913  17.985  0.00  0.00    +0.000 C 
BRANCH  17  18
ATOM     18  O   UNL     1       1.945  10.014  17.080  0.00  0.00    +0.000 OA
ATOM     19  H   UNL     1       2.674   9.816  16.473  0.00  0.00    +0.000 HD
ENDBRANCH  17  18
BRANCH  17  20
ATOM     20  C   UNL     1       0.997   9.394  19.222  0.00  0.00    +0.000 C 
BRANCH  20  21
ATOM     21  N   UNL     1       0.826  10.848  19.235  0.00  0.00    +0.000 NA
ATOM     22  H   UNL     1       1.359  11.236  20.014  0.00  0.00    +0.000 HD
BRANCH  21  24
ATOM     23  C   UNL     1      -1.089  11.538  20.691  0.00  0.00    +0.000 C 
ATOM     24  C   UNL     1      -0.571  11.319  19.260  0.00  0.00    +0.000 C 
ATOM     25  C   UNL     1      -1.490  10.336  18.511  0.00  0.00    +0.000 C 
ATOM     26  C   UNL     1      -0.604  12.669  18.523  0.00  0.00    +0.000 C 
ENDBRANCH  21  24
ENDBRANCH  20  21
ENDBRANCH  17  20
ENDBRANCH  16  17
ENDBRANCH   1  16
TORSDOF 6
ENDMDL
MODEL 2
REMARK VINA RESULT:      -6.8      0.071      4.176
REMARK  Name = 
REMARK  9 active torsions:
REMARK  status: ('A' for Active; 'I' for Inactive)
REMARK    1  A    between atoms: C_1  and  C_2
REMARK    2  A    between atoms: C_2  and  C_3
REMARK    3  A    between atoms: C_2  and  C_4
REMARK    4  A    between atoms: C_2  and  N_5
REMARK    5  A    between atoms: N_5  and  C_6
REMARK    6  A    between atoms: C_6  and  C_7
REMARK    7  A    between atoms: C_7  and  O_8
REMARK    8  A    between atoms: C_7  and  C_9
REMARK    9  A    between atoms: C_9  and  N_10
REMARK                            x       y       z     vdW  Elec       q    Type
REMARK                         _______ _______ _______ _____ _____    ______ ____
ROOT
ATOM      1  N   UNL     1       3.375   6.935  18.323  0.00  0.00    +0.000 N 
ATOM      2  C   UNL     1       2.816   5.981  19.153  0.00  0.00    +0.000 A 
ATOM      3  C   UNL     1       2.008   6.107  20.295  0.00  0.00    +0.000 A 
ATOM      4  C   UNL     1       1.603   4.943  20.952  0.00  0.00    +0.000 A 
ATOM      5  C   UNL     1       1.986   3.696  20.473  0.00  0.00    +0.000 A 
ATOM      6 CL   UNL     1       1.468   2.278  21.304  0.00  0.00    +0.000 Cl
ATOM      7  C   UNL     1       2.778   3.574  19.331  0.00  0.00    +0.000 A 
ATOM      8  C   UNL     1       3.205   4.737  18.655  0.00  0.00    +0.000 A 
ATOM      9  C   UNL     1       3.997   4.966  17.486  0.00  0.00    +0.000 A 
ATOM     10  C   UNL     1       4.641   4.110  16.565  0.00  0.00    +0.000 A 
ATOM     11  C   UNL     1       5.350   4.664  15.495  0.00  0.00    +0.000 A 
ATOM     12 CL   UNL     1       6.126   3.623  14.365  0.00  0.00    +0.000 Cl
ATOM     13  C   UNL     1       5.438   6.041  15.331  0.00  0.00    +0.000 A 
ATOM     14  C   UNL     1       4.812   6.910  16.233  0.00  0.00    +0.000 A 
ATOM     15  C   UNL     1       4.093   6.346  17.301  0.00  0.00    +0.000 A 
ENDROOT
BRANCH   1  16
ATOM     16  C   UNL     1       3.167   8.364  18.470  0.00  0.00    +0.000 C 
BRANCH  16  17
ATOM     17  C   UNL     1       1.800   8.847  17.966  0.00  0.00    +0.000 C 
BRANCH  17  18
ATOM     18  O   UNL     1       1.922   9.960  17.069  0.00  0.00    +0.000 OA
ATOM     19  H   UNL     1       1.048  10.363  16.948  0.00  0.00    +0.000 HD
ENDBRANCH  17  18
BRANCH  17  20
ATOM     20  C   UNL     1       0.977   9.285  19.195  0.00  0.00    +0.000 C 
BRANCH  20  21
ATOM     21  N   UNL     1       0.866  10.741  19.294  0.00  0.00    +0.000 NA
ATOM     22  H   UNL     1       1.348  11.053  20.137  0.00  0.00    +0.000 HD
BRANCH  21  24
ATOM     23  C   UNL     1      -1.485  10.305  18.552  0.00  0.00    +0.000 C 
ATOM     24  C   UNL     1      -0.509  11.273  19.240  0.00  0.00    +0.000 C 
ATOM     25  C   UNL     1      -0.534  12.641  18.533  0.00  0.00    +0.000 C 
ATOM     26  C   UNL     1      -0.972  11.472  20.694  0.00  0.00    +0.000 C 
ENDBRANCH  21  24
ENDBRANCH  20  21
ENDBRANCH  17  20
ENDBRANCH  16  17
ENDBRANCH   1  16
TORSDOF 6
ENDMDL
MODEL 3
REMARK VINA RESULT:      -6.8      3.447      7.055
REMARK  Name = 
REMARK  9 active torsions:
REMARK  status: ('A' for Active; 'I' for Inactive)
REMARK    1  A    between atoms: C_1  and  C_2
REMARK    2  A    between atoms: C_2  and  C_3
REMARK    3  A    between atoms: C_2  and  C_4
REMARK    4  A    between atoms: C_2  and  N_5
REMARK    5  A    between atoms: N_5  and  C_6
REMARK    6  A    between atoms: C_6  and  C_7
REMARK    7  A    between atoms: C_7  and  O_8
REMARK    8  A    between atoms: C_7  and  C_9
REMARK    9  A    between atoms: C_9  and  N_10
REMARK                            x       y       z     vdW  Elec       q    Type
REMARK                         _______ _______ _______ _____ _____    ______ ____
ROOT
ATOM      1  N   UNL     1       4.321   5.408  17.989  0.00  0.00    +0.000 N 
ATOM      2  C   UNL     1       3.614   6.596  18.013  0.00  0.00    +0.000 A 
ATOM      3  C   UNL     1       3.744   7.767  17.247  0.00  0.00    +0.000 A 
ATOM      4  C   UNL     1       2.885   8.834  17.517  0.00  0.00    +0.000 A 
ATOM      5  C   UNL     1       1.921   8.727  18.513  0.00  0.00    +0.000 A 
ATOM      6 CL   UNL     1       0.873  10.060  18.820  0.00  0.00    +0.000 Cl
ATOM      7  C   UNL     1       1.786   7.558  19.263  0.00  0.00    +0.000 A 
ATOM      8  C   UNL     1       2.649   6.469  19.013  0.00  0.00    +0.000 A 
ATOM      9  C   UNL     1       2.777   5.161  19.576  0.00  0.00    +0.000 A 
ATOM     10  C   UNL     1       2.080   4.465  20.590  0.00  0.00    +0.000 A 
ATOM     11  C   UNL     1       2.459   3.158  20.908  0.00  0.00    +0.000 A 
ATOM     12 CL   UNL     1       1.604   2.305  22.135  0.00  0.00    +0.000 Cl
ATOM     13  C   UNL     1       3.513   2.537  20.250  0.00  0.00    +0.000 A 
ATOM     14  C   UNL     1       4.222   3.207  19.246  0.00  0.00    +0.000 A 
ATOM     15  C   UNL     1       3.830   4.518  18.924  0.00  0.00    +0.000 A 
ENDROOT
BRANCH   1  16
ATOM     16  C   UNL     1       5.387   5.115  17.048  0.00  0.00    +0.000 C 
BRANCH  16  17
ATOM     17  C   UNL     1       4.987   4.124  15.946  0.00  0.00    +0.000 C 
BRANCH  17  18
ATOM     18  O   UNL     1       5.424   2.790  16.241  0.00  0.00    +0.000 OA
ATOM     19  H   UNL     1       4.654   2.201  16.243  0.00  0.00    +0.000 HD
ENDBRANCH  17  18
BRANCH  17  20
ATOM     20  C   UNL     1       5.653   4.590  14.635  0.00  0.00    +0.000 C 
BRANCH  20  21
ATOM     21  N   UNL     1       6.354   3.500  13.956  0.00  0.00    +0.000 NA
ATOM     22  H   UNL     1       7.331   3.499  14.253  0.00  0.00    +0.000 HD
BRANCH  21  24
ATOM     23  C   UNL     1       6.590   2.132  11.872  0.00  0.00    +0.000 C 
ATOM     24  C   UNL     1       6.246   3.500  12.485  0.00  0.00    +0.000 C 
ATOM     25  C   UNL     1       7.143   4.592  11.874  0.00  0.00    +0.000 C 
ATOM     26  C   UNL     1       4.783   3.828  12.141  0.00  0.00    +0.000 C 
ENDBRANCH  21  24
ENDBRANCH  20  21
ENDBRANCH  17  20
ENDBRANCH  16  17
ENDBRANCH   1  16
TORSDOF 6
ENDMDL
MODEL 4
REMARK VINA RESULT:      -6.7      1.152      4.346
REMARK  Name = 
REMARK  9 active torsions:
REMARK  status: ('A' for Active; 'I' for Inactive)
REMARK    1  A    between atoms: C_1  and  C_2
REMARK    2  A    between atoms: C_2  and  C_3
REMARK    3  A    between atoms: C_2  and  C_4
REMARK    4  A    between atoms: C_2  and  N_5
REMARK    5  A    between atoms: N_5  and  C_6
REMARK    6  A    between atoms: C_6  and  C_7
REMARK    7  A    between atoms: C_7  and  O_8
REMARK    8  A    between atoms: C_7  and  C_9
REMARK    9  A    between atoms: C_9  and  N_10
REMARK                            x       y       z     vdW  Elec       q    Type
REMARK                         _______ _______ _______ _____ _____    ______ ____
ROOT
ATOM      1  N   UNL     1       3.266   6.979  18.396  0.00  0.00    +0.000 N 
ATOM      2  C   UNL     1       2.743   6.007  19.228  0.00  0.00    +0.000 A 
ATOM      3  C   UNL     1       1.935   6.105  20.373  0.00  0.00    +0.000 A 
ATOM      4  C   UNL     1       1.574   4.929  21.032  0.00  0.00    +0.000 A 
ATOM      5  C   UNL     1       2.000   3.695  20.554  0.00  0.00    +0.000 A 
ATOM      6 CL   UNL     1       1.535   2.260  21.388  0.00  0.00    +0.000 Cl
ATOM      7  C   UNL     1       2.792   3.601  19.409  0.00  0.00    +0.000 A 
ATOM      8  C   UNL     1       3.175   4.777  18.731  0.00  0.00    +0.000 A 
ATOM      9  C   UNL     1       3.955   5.033  17.559  0.00  0.00    +0.000 A 
ATOM     10  C   UNL     1       4.626   4.200  16.636  0.00  0.00    +0.000 A 
ATOM     11  C   UNL     1       5.312   4.778  15.564  0.00  0.00    +0.000 A 
ATOM     12 CL   UNL     1       6.121   3.763  14.432  0.00  0.00    +0.000 Cl
ATOM     13  C   UNL     1       5.349   6.157  15.398  0.00  0.00    +0.000 A 
ATOM     14  C   UNL     1       4.696   7.003  16.301  0.00  0.00    +0.000 A 
ATOM     15  C   UNL     1       4.001   6.415  17.372  0.00  0.00    +0.000 A 
ENDROOT
BRANCH   1  16
ATOM     16  C   UNL     1       3.007   8.401  18.541  0.00  0.00    +0.000 C 
BRANCH  16  17
ATOM     17  C   UNL     1       1.687   8.860  17.905  0.00  0.00    +0.000 C 
BRANCH  17  18
ATOM     18  O   UNL     1       1.850  10.068  17.149  0.00  0.00    +0.000 OA
ATOM     19  H   UNL     1       2.018   9.838  16.222  0.00  0.00    +0.000 HD
ENDBRANCH  17  18
BRANCH  17  20
ATOM     20  C   UNL     1       0.682   9.115  19.046  0.00  0.00    +0.000 C 
BRANCH  20  21
ATOM     21  N   UNL     1       1.316   9.732  20.211  0.00  0.00    +0.000 NA
ATOM     22  H   UNL     1       2.266   9.370  20.302  0.00  0.00    +0.000 HD
BRANCH  21  24
ATOM     23  C   UNL     1       1.494   9.271  22.665  0.00  0.00    +0.000 C 
ATOM     24  C   UNL     1       0.573   9.598  21.478  0.00  0.00    +0.000 C 
ATOM     25  C   UNL     1      -0.527   8.529  21.353  0.00  0.00    +0.000 C 
ATOM     26  C   UNL     1      -0.101  10.955  21.751  0.00  0.00    +0.000 C 
ENDBRANCH  21  24
ENDBRANCH  20  21
ENDBRANCH  17  20
ENDBRANCH  16  17
ENDBRANCH   1  16
TORSDOF 6
ENDMDL
MODEL 5
REMARK VINA RESULT:      -6.7      3.400      7.525
REMARK  Name = 
REMARK  9 active torsions:
REMARK  status: ('A' for Active; 'I' for Inactive)
REMARK    1  A    between atoms: C_1  and  C_2
REMARK    2  A    between atoms: C_2  and  C_3
REMARK    3  A    between atoms: C_2  and  C_4
REMARK    4  A    between atoms: C_2  and  N_5
REMARK    5  A    between atoms: N_5  and  C_6
REMARK    6  A    between atoms: C_6  and  C_7
REMARK    7  A    between atoms: C_7  and  O_8
REMARK    8  A    between atoms: C_7  and  C_9
REMARK    9  A    between atoms: C_9  and  N_10
REMARK                            x       y       z     vdW  Elec       q    Type
REMARK                         _______ _______ _______ _____ _____    ______ ____
ROOT
ATOM      1  N   UNL     1       4.235   5.498  17.891  0.00  0.00    +0.000 N 
ATOM      2  C   UNL     1       3.808   4.589  18.841  0.00  0.00    +0.000 A 
ATOM      3  C   UNL     1       4.239   3.283  19.132  0.00  0.00    +0.000 A 
ATOM      4  C   UNL     1       3.593   2.584  20.153  0.00  0.00    +0.000 A 
ATOM      5  C   UNL     1       2.558   3.178  20.866  0.00  0.00    +0.000 A 
ATOM      6 CL   UNL     1       1.783   2.291  22.124  0.00  0.00    +0.000 Cl
ATOM      7  C   UNL     1       2.142   4.479  20.583  0.00  0.00    +0.000 A 
ATOM      8  C   UNL     1       2.775   5.202  19.550  0.00  0.00    +0.000 A 
ATOM      9  C   UNL     1       2.605   6.518  19.017  0.00  0.00    +0.000 A 
ATOM     10  C   UNL     1       1.744   7.592  19.334  0.00  0.00    +0.000 A 
ATOM     11  C   UNL     1       1.836   8.783  18.607  0.00  0.00    +0.000 A 
ATOM     12 CL   UNL     1       0.795  10.096  18.999  0.00  0.00    +0.000 Cl
ATOM     13  C   UNL     1       2.756   8.922  17.575  0.00  0.00    +0.000 A 
ATOM     14  C   UNL     1       3.617   7.870  17.239  0.00  0.00    +0.000 A 
ATOM     15  C   UNL     1       3.525   6.680  17.980  0.00  0.00    +0.000 A 
ENDROOT
BRANCH   1  16
ATOM     16  C   UNL     1       5.337   5.263  16.976  0.00  0.00    +0.000 C 
BRANCH  16  17
ATOM     17  C   UNL     1       5.049   4.185  15.921  0.00  0.00    +0.000 C 
BRANCH  17  18
ATOM     18  O   UNL     1       5.526   2.895  16.330  0.00  0.00    +0.000 OA
ATOM     19  H   UNL     1       5.964   2.470  15.577  0.00  0.00    +0.000 HD
ENDBRANCH  17  18
BRANCH  17  20
ATOM     20  C   UNL     1       5.772   4.597  14.622  0.00  0.00    +0.000 C 
BRANCH  20  21
ATOM     21  N   UNL     1       6.295   3.441  13.893  0.00  0.00    +0.000 NA
ATOM     22  H   UNL     1       7.238   3.238  14.225  0.00  0.00    +0.000 HD
BRANCH  21  24
ATOM     23  C   UNL     1       7.151   4.698  11.905  0.00  0.00    +0.000 C 
ATOM     24  C   UNL     1       6.262   3.555  12.423  0.00  0.00    +0.000 C 
ATOM     25  C   UNL     1       4.817   3.743  11.924  0.00  0.00    +0.000 C 
ATOM     26  C   UNL     1       6.801   2.230  11.855  0.00  0.00    +0.000 C 
ENDBRANCH  21  24
ENDBRANCH  20  21
ENDBRANCH  17  20
ENDBRANCH  16  17
ENDBRANCH   1  16
TORSDOF 6
ENDMDL
MODEL 6
REMARK VINA RESULT:      -6.7      4.410      6.959
REMARK  Name = 
REMARK  9 active torsions:
REMARK  status: ('A' for Active; 'I' for Inactive)
REMARK    1  A    between atoms: C_1  and  C_2
REMARK    2  A    between atoms: C_2  and  C_3
REMARK    3  A    between atoms: C_2  and  C_4
REMARK    4  A    between atoms: C_2  and  N_5
REMARK    5  A    between atoms: N_5  and  C_6
REMARK    6  A    between atoms: C_6  and  C_7
REMARK    7  A    between atoms: C_7  and  O_8
REMARK    8  A    between atoms: C_7  and  C_9
REMARK    9  A    between atoms: C_9  and  N_10
REMARK                            x       y       z     vdW  Elec       q    Type
REMARK                         _______ _______ _______ _____ _____    ______ ____
ROOT
ATOM      1  N   UNL     1       5.784   6.050  17.207  0.00  0.00    +0.000 N 
ATOM      2  C   UNL     1       4.893   5.273  17.922  0.00  0.00    +0.000 A 
ATOM      3  C   UNL     1       4.305   5.463  19.184  0.00  0.00    +0.000 A 
ATOM      4  C   UNL     1       3.441   4.478  19.668  0.00  0.00    +0.000 A 
ATOM      5  C   UNL     1       3.168   3.347  18.908  0.00  0.00    +0.000 A 
ATOM      6 CL   UNL     1       2.095   2.151  19.531  0.00  0.00    +0.000 Cl
ATOM      7  C   UNL     1       3.743   3.168  17.649  0.00  0.00    +0.000 A 
ATOM      8  C   UNL     1       4.625   4.147  17.143  0.00  0.00    +0.000 A 
ATOM      9  C   UNL     1       5.363   4.277  15.925  0.00  0.00    +0.000 A 
ATOM     10  C   UNL     1       5.477   3.476  14.767  0.00  0.00    +0.000 A 
ATOM     11  C   UNL     1       6.300   3.899  13.719  0.00  0.00    +0.000 A 
ATOM     12 CL   UNL     1       6.432   2.930  12.302  0.00  0.00    +0.000 Cl
ATOM     13  C   UNL     1       7.012   5.089  13.804  0.00  0.00    +0.000 A 
ATOM     14  C   UNL     1       6.919   5.898  14.944  0.00  0.00    +0.000 A 
ATOM     15  C   UNL     1       6.082   5.471  15.989  0.00  0.00    +0.000 A 
ENDROOT
BRANCH   1  16
ATOM     16  C   UNL     1       6.278   7.341  17.651  0.00  0.00    +0.000 C 
BRANCH  16  17
ATOM     17  C   UNL     1       7.804   7.398  17.818  0.00  0.00    +0.000 C 
BRANCH  17  18
ATOM     18  O   UNL     1       8.230   6.789  19.045  0.00  0.00    +0.000 OA
ATOM     19  H   UNL     1       9.099   7.146  19.287  0.00  0.00    +0.000 HD
ENDBRANCH  17  18
BRANCH  17  20
ATOM     20  C   UNL     1       8.218   8.883  17.827  0.00  0.00    +0.000 C 
BRANCH  20  21
ATOM     21  N   UNL     1       9.031   9.222  18.996  0.00  0.00    +0.000 NA
ATOM     22  H   UNL     1       8.542   8.916  19.839  0.00  0.00    +0.000 HD
BRANCH  21  24
ATOM     23  C   UNL     1      10.881  10.870  18.644  0.00  0.00    +0.000 C 
ATOM     24  C   UNL     1       9.431  10.638  19.097  0.00  0.00    +0.000 C 
ATOM     25  C   UNL     1       9.237  11.156  20.534  0.00  0.00    +0.000 C 
ATOM     26  C   UNL     1       8.501  11.436  18.166  0.00  0.00    +0.000 C 
ENDBRANCH  21  24
ENDBRANCH  20  21
ENDBRANCH  17  20
ENDBRANCH  16  17
ENDBRANCH   1  16
TORSDOF 6
ENDMDL
MODEL 7
REMARK VINA RESULT:      -6.6      0.724      4.197
REMARK  Name = 
REMARK  9 active torsions:
REMARK  status: ('A' for Active; 'I' for Inactive)
REMARK    1  A    between atoms: C_1  and  C_2
REMARK    2  A    between atoms: C_2  and  C_3
REMARK    3  A    between atoms: C_2  and  C_4
REMARK    4  A    between atoms: C_2  and  N_5
REMARK    5  A    between atoms: N_5  and  C_6
REMARK    6  A    between atoms: C_6  and  C_7
REMARK    7  A    between atoms: C_7  and  O_8
REMARK    8  A    between atoms: C_7  and  C_9
REMARK    9  A    between atoms: C_9  and  N_10
REMARK                            x       y       z     vdW  Elec       q    Type
REMARK                         _______ _______ _______ _____ _____    ______ ____
ROOT
ATOM      1  N   UNL     1       3.445   6.861  18.252  0.00  0.00    +0.000 N 
ATOM      2  C   UNL     1       2.895   5.909  19.090  0.00  0.00    +0.000 A 
ATOM      3  C   UNL     1       2.098   6.038  20.240  0.00  0.00    +0.000 A 
ATOM      4  C   UNL     1       1.701   4.877  20.905  0.00  0.00    +0.000 A 
ATOM      5  C   UNL     1       2.082   3.628  20.427  0.00  0.00    +0.000 A 
ATOM      6 CL   UNL     1       1.573   2.212  21.268  0.00  0.00    +0.000 Cl
ATOM      7  C   UNL     1       2.862   3.503  19.277  0.00  0.00    +0.000 A 
ATOM      8  C   UNL     1       3.281   4.664  18.593  0.00  0.00    +0.000 A 
ATOM      9  C   UNL     1       4.061   4.890  17.416  0.00  0.00    +0.000 A 
ATOM     10  C   UNL     1       4.698   4.032  16.491  0.00  0.00    +0.000 A 
ATOM     11  C   UNL     1       5.395   4.583  15.413  0.00  0.00    +0.000 A 
ATOM     12 CL   UNL     1       6.162   3.539  14.279  0.00  0.00    +0.000 Cl
ATOM     13  C   UNL     1       5.480   5.959  15.242  0.00  0.00    +0.000 A 
ATOM     14  C   UNL     1       4.862   6.831  16.148  0.00  0.00    +0.000 A 
ATOM     15  C   UNL     1       4.154   6.269  17.224  0.00  0.00    +0.000 A 
ENDROOT
BRANCH   1  16
ATOM     16  C   UNL     1       3.237   8.291  18.395  0.00  0.00    +0.000 C 
BRANCH  16  17
ATOM     17  C   UNL     1       1.795   8.739  18.117  0.00  0.00    +0.000 C 
BRANCH  17  18
ATOM     18  O   UNL     1       1.742   9.815  17.170  0.00  0.00    +0.000 OA
ATOM     19  H   UNL     1       0.825  10.125  17.099  0.00  0.00    +0.000 HD
ENDBRANCH  17  18
BRANCH  17  20
ATOM     20  C   UNL     1       1.188   9.218  19.452  0.00  0.00    +0.000 C 
BRANCH  20  21
ATOM     21  N   UNL     1       0.167  10.247  19.255  0.00  0.00    +0.000 NA
ATOM     22  H   UNL     1       0.436  10.834  18.465  0.00  0.00    +0.000 HD
BRANCH  21  24
ATOM     23  C   UNL     1       0.940  12.121  20.724  0.00  0.00    +0.000 C 
ATOM     24  C   UNL     1      -0.141  11.064  20.443  0.00  0.00    +0.000 C 
ATOM     25  C   UNL     1      -0.340  10.171  21.681  0.00  0.00    +0.000 C 
ATOM     26  C   UNL     1      -1.465  11.794  20.157  0.00  0.00    +0.000 C 
ENDBRANCH  21  24
ENDBRANCH  20  21
ENDBRANCH  17  20
ENDBRANCH  16  17
ENDBRANCH   1  16
TORSDOF 6
ENDMDL
MODEL 8
REMARK VINA RESULT:      -6.5      4.446      6.913
REMARK  Name = 
REMARK  9 active torsions:
REMARK  status: ('A' for Active; 'I' for Inactive)
REMARK    1  A    between atoms: C_1  and  C_2
REMARK    2  A    between atoms: C_2  and  C_3
REMARK    3  A    between atoms: C_2  and  C_4
REMARK    4  A    between atoms: C_2  and  N_5
REMARK    5  A    between atoms: N_5  and  C_6
REMARK    6  A    between atoms: C_6  and  C_7
REMARK    7  A    between atoms: C_7  and  O_8
REMARK    8  A    between atoms: C_7  and  C_9
REMARK    9  A    between atoms: C_9  and  N_10
REMARK                            x       y       z     vdW  Elec       q    Type
REMARK                         _______ _______ _______ _____ _____    ______ ____
ROOT
ATOM      1  N   UNL     1       6.531   5.524  17.338  0.00  0.00    +0.000 N 
ATOM      2  C   UNL     1       5.370   5.147  17.987  0.00  0.00    +0.000 A 
ATOM      3  C   UNL     1       4.914   5.402  19.292  0.00  0.00    +0.000 A 
ATOM      4  C   UNL     1       3.688   4.862  19.682  0.00  0.00    +0.000 A 
ATOM      5  C   UNL     1       2.939   4.101  18.792  0.00  0.00    +0.000 A 
ATOM      6 CL   UNL     1       1.426   3.451  19.303  0.00  0.00    +0.000 Cl
ATOM      7  C   UNL     1       3.388   3.861  17.493  0.00  0.00    +0.000 A 
ATOM      8  C   UNL     1       4.629   4.390  17.079  0.00  0.00    +0.000 A 
ATOM      9  C   UNL     1       5.364   4.341  15.853  0.00  0.00    +0.000 A 
ATOM     10  C   UNL     1       5.117   3.750  14.594  0.00  0.00    +0.000 A 
ATOM     11  C   UNL     1       6.060   3.896  13.572  0.00  0.00    +0.000 A 
ATOM     12 CL   UNL     1       5.756   3.186  12.033  0.00  0.00    +0.000 Cl
ATOM     13  C   UNL     1       7.237   4.605  13.779  0.00  0.00    +0.000 A 
ATOM     14  C   UNL     1       7.506   5.195  15.020  0.00  0.00    +0.000 A 
ATOM     15  C   UNL     1       6.550   5.053  16.039  0.00  0.00    +0.000 A 
ENDROOT
BRANCH   1  16
ATOM     16  C   UNL     1       7.554   6.370  17.925  0.00  0.00    +0.000 C 
BRANCH  16  17
ATOM     17  C   UNL     1       7.182   7.859  17.964  0.00  0.00    +0.000 C 
BRANCH  17  18
ATOM     18  O   UNL     1       6.644   8.309  16.712  0.00  0.00    +0.000 OA
ATOM     19  H   UNL     1       6.322   9.218  16.818  0.00  0.00    +0.000 HD
ENDBRANCH  17  18
BRANCH  17  20
ATOM     20  C   UNL     1       8.467   8.655  18.270  0.00  0.00    +0.000 C 
BRANCH  20  21
ATOM     21  N   UNL     1       8.398  10.027  17.768  0.00  0.00    +0.000 NA
ATOM     22  H   UNL     1       8.557  10.020  16.760  0.00  0.00    +0.000 HD
BRANCH  21  24
ATOM     23  C   UNL     1      10.705  10.996  17.836  0.00  0.00    +0.000 C 
ATOM     24  C   UNL     1       9.291  10.990  18.440  0.00  0.00    +0.000 C 
ATOM     25  C   UNL     1       9.364  10.702  19.950  0.00  0.00    +0.000 C 
ATOM     26  C   UNL     1       8.678  12.387  18.243  0.00  0.00    +0.000 C 
ENDBRANCH  21  24
ENDBRANCH  20  21
ENDBRANCH  17  20
ENDBRANCH  16  17
ENDBRANCH   1  16
TORSDOF 6
ENDMDL
MODEL 9
REMARK VINA RESULT:      -6.5      1.339      1.747
REMARK  Name = 
REMARK  9 active torsions:
REMARK  status: ('A' for Active; 'I' for Inactive)
REMARK    1  A    between atoms: C_1  and  C_2
REMARK    2  A    between atoms: C_2  and  C_3
REMARK    3  A    between atoms: C_2  and  C_4
REMARK    4  A    between atoms: C_2  and  N_5
REMARK    5  A    between atoms: N_5  and  C_6
REMARK    6  A    between atoms: C_6  and  C_7
REMARK    7  A    between atoms: C_7  and  O_8
REMARK    8  A    between atoms: C_7  and  C_9
REMARK    9  A    between atoms: C_9  and  N_10
REMARK                            x       y       z     vdW  Elec       q    Type
REMARK                         _______ _______ _______ _____ _____    ______ ____
ROOT
ATOM      1  N   UNL     1       3.201   7.023  18.094  0.00  0.00    +0.000 N 
ATOM      2  C   UNL     1       4.004   6.406  17.153  0.00  0.00    +0.000 A 
ATOM      3  C   UNL     1       4.692   6.921  16.041  0.00  0.00    +0.000 A 
ATOM      4  C   UNL     1       5.419   6.036  15.243  0.00  0.00    +0.000 A 
ATOM      5  C   UNL     1       5.465   4.683  15.556  0.00  0.00    +0.000 A 
ATOM      6 CL   UNL     1       6.375   3.616  14.554  0.00  0.00    +0.000 Cl
ATOM      7  C   UNL     1       4.792   4.176  16.668  0.00  0.00    +0.000 A 
ATOM      8  C   UNL     1       4.044   5.051  17.484  0.00  0.00    +0.000 A 
ATOM      9  C   UNL     1       3.261   4.872  18.668  0.00  0.00    +0.000 A 
ATOM     10  C   UNL     1       2.951   3.749  19.468  0.00  0.00    +0.000 A 
ATOM     11  C   UNL     1       2.141   3.914  20.595  0.00  0.00    +0.000 A 
ATOM     12 CL   UNL     1       1.772   2.549  21.578  0.00  0.00    +0.000 Cl
ATOM     13  C   UNL     1       1.630   5.160  20.934  0.00  0.00    +0.000 A 
ATOM     14  C   UNL     1       1.918   6.287  20.154  0.00  0.00    +0.000 A 
ATOM     15  C   UNL     1       2.742   6.116  19.028  0.00  0.00    +0.000 A 
ENDROOT
BRANCH   1  16
ATOM     16  C   UNL     1       2.944   8.452  18.133  0.00  0.00    +0.000 C 
BRANCH  16  17
ATOM     17  C   UNL     1       1.507   8.812  18.538  0.00  0.00    +0.000 C 
BRANCH  17  18
ATOM     18  O   UNL     1       0.787   9.431  17.463  0.00  0.00    +0.000 OA
ATOM     19  H   UNL     1       0.587   8.760  16.792  0.00  0.00    +0.000 HD
ENDBRANCH  17  18
BRANCH  17  20
ATOM     20  C   UNL     1       1.589   9.801  19.719  0.00  0.00    +0.000 C 
BRANCH  20  21
ATOM     21  N   UNL     1       0.274  10.079  20.297  0.00  0.00    +0.000 NA
ATOM     22  H   UNL     1       0.084  11.079  20.222  0.00  0.00    +0.000 HD
BRANCH  21  24
ATOM     23  C   UNL     1      -0.686   8.272  21.739  0.00  0.00    +0.000 C 
ATOM     24  C   UNL     1       0.079   9.604  21.680  0.00  0.00    +0.000 C 
ATOM     25  C   UNL     1      -0.647  10.667  22.523  0.00  0.00    +0.000 C 
ATOM     26  C   UNL     1       1.478   9.383  22.281  0.00  0.00    +0.000 C 
ENDBRANCH  21  24
ENDBRANCH  20  21
ENDBRANCH  17  20
ENDBRANCH  16  17
ENDBRANCH   1  16
TORSDOF 6
ENDMDL
