MODEL 1
REMARK VINA RESULT:      -8.5      0.000      0.000
REMARK  Name = 
REMARK  4 active torsions:
REMARK  status: ('A' for Active; 'I' for Inactive)
REMARK    1  A    between atoms: S_2  and  C_4
REMARK    2  A    between atoms: S_2  and  C_10
REMARK    3  A    between atoms: N_13  and  S_14
REMARK    4  A    between atoms: S_14  and  C_17
REMARK                            x       y       z     vdW  Elec       q    Type
REMARK                         _______ _______ _______ _____ _____    ______ ____
ROOT
ATOM      1  C   UNL     1       1.895   5.188  19.032  0.00  0.00    +0.000 C 
ATOM      2  C   UNL     1       1.623   4.314  17.817  0.00  0.00    +0.000 C 
ATOM      3  C   UNL     1       1.449   2.924  18.413  0.00  0.00    +0.000 C 
ATOM      4  N   UNL     1       2.463   2.879  19.495  0.00  0.00    +0.000 NA
ATOM      5  C   UNL     1       2.513   4.262  20.071  0.00  0.00    +0.000 C 
ENDROOT
BRANCH   1   7
ATOM      6  O   UNL     1       3.284   6.647  17.329  0.00  0.00    +0.000 OA
ATOM      7  S   UNL     1       2.979   6.565  18.742  0.00  0.00    +0.000 S 
ATOM      8  O   UNL     1       4.046   6.489  19.725  0.00  0.00    +0.000 OA
BRANCH   7   9
ATOM      9  C   UNL     1       1.991   7.979  19.154  0.00  0.00    +0.000 A 
ATOM     10  C   UNL     1       1.681   8.914  18.164  0.00  0.00    +0.000 A 
ATOM     11  C   UNL     1       0.929  10.038  18.501  0.00  0.00    +0.000 A 
ATOM     12  C   UNL     1       0.486  10.215  19.814  0.00  0.00    +0.000 A 
ATOM     13  C   UNL     1       0.771   9.258  20.790  0.00  0.00    +0.000 A 
ATOM     14  C   UNL     1       1.518   8.130  20.461  0.00  0.00    +0.000 A 
ENDBRANCH   7   9
ENDBRANCH   1   7
BRANCH   4  15
ATOM     15  S   UNL     1       3.997   2.266  19.035  0.00  0.00    +0.000 S 
ATOM     16  O   UNL     1       4.779   2.065  20.235  0.00  0.00    +0.000 OA
ATOM     17  O   UNL     1       3.798   1.206  18.069  0.00  0.00    +0.000 OA
BRANCH  15  18
ATOM     18  C   UNL     1       4.725   3.607  18.123  0.00  0.00    +0.000 A 
ATOM     19  C   UNL     1       5.772   4.359  18.701  0.00  0.00    +0.000 A 
ATOM     20  C   UNL     1       6.645   5.079  17.881  0.00  0.00    +0.000 A 
ATOM     21  C   UNL     1       6.458   4.975  16.518  0.00  0.00    +0.000 A 
ATOM     22  C   UNL     1       5.388   4.295  15.972  0.00  0.00    +0.000 A 
ATOM     23  C   UNL     1       4.471   3.634  16.748  0.00  0.00    +0.000 A 
ATOM     24  O   UNL     1       5.464   4.225  14.613  0.00  0.00    +0.000 OA
ATOM     25  C   UNL     1       6.842   4.608  14.442  0.00  0.00    +0.000 C 
ATOM     26  O   UNL     1       7.334   5.386  15.556  0.00  0.00    +0.000 OA
ENDBRANCH  15  18
ENDBRANCH   4  15
TORSDOF 4
ENDMDL
MODEL 2
REMARK VINA RESULT:      -8.4      0.747      1.225
REMARK  Name = 
REMARK  4 active torsions:
REMARK  status: ('A' for Active; 'I' for Inactive)
REMARK    1  A    between atoms: S_2  and  C_4
REMARK    2  A    between atoms: S_2  and  C_10
REMARK    3  A    between atoms: N_13  and  S_14
REMARK    4  A    between atoms: S_14  and  C_17
REMARK                            x       y       z     vdW  Elec       q    Type
REMARK                         _______ _______ _______ _____ _____    ______ ____
ROOT
ATOM      1  C   UNL     1       2.088   5.287  19.997  0.00  0.00    +0.000 C 
ATOM      2  C   UNL     1       1.207   4.166  19.466  0.00  0.00    +0.000 C 
ATOM      3  C   UNL     1       1.599   2.972  20.325  0.00  0.00    +0.000 C 
ATOM      4  N   UNL     1       3.065   3.125  20.488  0.00  0.00    +0.000 NA
ATOM      5  C   UNL     1       3.318   4.601  20.575  0.00  0.00    +0.000 C 
ENDROOT
BRANCH   1   7
ATOM      6  O   UNL     1       2.023   6.139  17.501  0.00  0.00    +0.000 OA
ATOM      7  S   UNL     1       2.591   6.487  18.787  0.00  0.00    +0.000 S 
ATOM      8  O   UNL     1       4.023   6.677  18.936  0.00  0.00    +0.000 OA
BRANCH   7   9
ATOM      9  C   UNL     1       1.808   7.986  19.323  0.00  0.00    +0.000 A 
ATOM     10  C   UNL     1       1.460   8.139  20.667  0.00  0.00    +0.000 A 
ATOM     11  C   UNL     1       0.819   9.307  21.076  0.00  0.00    +0.000 A 
ATOM     12  C   UNL     1       0.540  10.312  20.148  0.00  0.00    +0.000 A 
ATOM     13  C   UNL     1       0.921  10.166  18.813  0.00  0.00    +0.000 A 
ATOM     14  C   UNL     1       1.567   9.004  18.397  0.00  0.00    +0.000 A 
ENDBRANCH   7   9
ENDBRANCH   1   7
BRANCH   4  15
ATOM     15  S   UNL     1       4.020   2.330  19.307  0.00  0.00    +0.000 S 
ATOM     16  O   UNL     1       5.048   1.578  19.992  0.00  0.00    +0.000 OA
ATOM     17  O   UNL     1       3.136   1.707  18.344  0.00  0.00    +0.000 OA
BRANCH  15  18
ATOM     18  C   UNL     1       4.805   3.666  18.436  0.00  0.00    +0.000 A 
ATOM     19  C   UNL     1       5.963   4.268  18.976  0.00  0.00    +0.000 A 
ATOM     20  C   UNL     1       6.836   4.968  18.138  0.00  0.00    +0.000 A 
ATOM     21  C   UNL     1       6.534   4.992  16.792  0.00  0.00    +0.000 A 
ATOM     22  C   UNL     1       5.362   4.460  16.292  0.00  0.00    +0.000 A 
ATOM     23  C   UNL     1       4.447   3.828  17.094  0.00  0.00    +0.000 A 
ATOM     24  O   UNL     1       5.324   4.494  14.930  0.00  0.00    +0.000 OA
ATOM     25  C   UNL     1       6.716   4.759  14.670  0.00  0.00    +0.000 C 
ATOM     26  O   UNL     1       7.368   5.396  15.791  0.00  0.00    +0.000 OA
ENDBRANCH  15  18
ENDBRANCH   4  15
TORSDOF 4
ENDMDL
MODEL 3
REMARK VINA RESULT:      -8.4      2.051      6.632
REMARK  Name = 
REMARK  4 active torsions:
REMARK  status: ('A' for Active; 'I' for Inactive)
REMARK    1  A    between atoms: S_2  and  C_4
REMARK    2  A    between atoms: S_2  and  C_10
REMARK    3  A    between atoms: N_13  and  S_14
REMARK    4  A    between atoms: S_14  and  C_17
REMARK                            x       y       z     vdW  Elec       q    Type
REMARK                         _______ _______ _______ _____ _____    ______ ____
ROOT
ATOM      1  C   UNL     1       4.660   3.994  16.600  0.00  0.00    +0.000 C 
ATOM      2  C   UNL     1       4.757   2.971  17.723  0.00  0.00    +0.000 C 
ATOM      3  C   UNL     1       3.352   2.956  18.310  0.00  0.00    +0.000 C 
ATOM      4  N   UNL     1       2.938   4.379  18.261  0.00  0.00    +0.000 NA
ATOM      5  C   UNL     1       3.539   4.941  17.007  0.00  0.00    +0.000 C 
ENDROOT
BRANCH   1   7
ATOM      6  O   UNL     1       7.232   4.351  17.061  0.00  0.00    +0.000 OA
ATOM      7  S   UNL     1       6.143   4.923  16.298  0.00  0.00    +0.000 S 
ATOM      8  O   UNL     1       5.806   6.330  16.431  0.00  0.00    +0.000 OA
BRANCH   7   9
ATOM      9  C   UNL     1       6.486   4.630  14.582  0.00  0.00    +0.000 A 
ATOM     10  C   UNL     1       5.685   3.742  13.862  0.00  0.00    +0.000 A 
ATOM     11  C   UNL     1       5.979   3.494  12.522  0.00  0.00    +0.000 A 
ATOM     12  C   UNL     1       7.057   4.139  11.912  0.00  0.00    +0.000 A 
ATOM     13  C   UNL     1       7.832   5.051  12.630  0.00  0.00    +0.000 A 
ATOM     14  C   UNL     1       7.543   5.308  13.968  0.00  0.00    +0.000 A 
ENDBRANCH   7   9
ENDBRANCH   1   7
BRANCH   4  15
ATOM     15  S   UNL     1       3.294   5.294  19.666  0.00  0.00    +0.000 S 
ATOM     16  O   UNL     1       2.900   4.518  20.821  0.00  0.00    +0.000 OA
ATOM     17  O   UNL     1       4.630   5.838  19.535  0.00  0.00    +0.000 OA
BRANCH  15  18
ATOM     18  C   UNL     1       2.201   6.690  19.543  0.00  0.00    +0.000 A 
ATOM     19  C   UNL     1       1.598   7.211  20.709  0.00  0.00    +0.000 A 
ATOM     20  C   UNL     1       1.129   8.528  20.720  0.00  0.00    +0.000 A 
ATOM     21  C   UNL     1       1.329   9.276  19.578  0.00  0.00    +0.000 A 
ATOM     22  C   UNL     1       1.853   8.731  18.424  0.00  0.00    +0.000 A 
ATOM     23  C   UNL     1       2.260   7.423  18.354  0.00  0.00    +0.000 A 
ATOM     24  O   UNL     1       2.065   9.673  17.462  0.00  0.00    +0.000 OA
ATOM     25  C   UNL     1       1.956  10.858  18.275  0.00  0.00    +0.000 C 
ATOM     26  O   UNL     1       1.176  10.628  19.470  0.00  0.00    +0.000 OA
ENDBRANCH  15  18
ENDBRANCH   4  15
TORSDOF 4
ENDMDL
MODEL 4
REMARK VINA RESULT:      -8.2      2.855      7.381
REMARK  Name = 
REMARK  4 active torsions:
REMARK  status: ('A' for Active; 'I' for Inactive)
REMARK    1  A    between atoms: S_2  and  C_4
REMARK    2  A    between atoms: S_2  and  C_10
REMARK    3  A    between atoms: N_13  and  S_14
REMARK    4  A    between atoms: S_14  and  C_17
REMARK                            x       y       z     vdW  Elec       q    Type
REMARK                         _______ _______ _______ _____ _____    ______ ____
ROOT
ATOM      1  C   UNL     1       6.902   4.137  15.597  0.00  0.00    +0.000 C 
ATOM      2  C   UNL     1       7.668   4.802  16.732  0.00  0.00    +0.000 C 
ATOM      3  C   UNL     1       6.946   4.313  17.980  0.00  0.00    +0.000 C 
ATOM      4  N   UNL     1       5.518   4.311  17.578  0.00  0.00    +0.000 NA
ATOM      5  C   UNL     1       5.496   3.906  16.134  0.00  0.00    +0.000 C 
ENDROOT
BRANCH   1   7
ATOM      6  O   UNL     1       8.144   5.540  13.740  0.00  0.00    +0.000 OA
ATOM      7  S   UNL     1       6.817   5.078  14.093  0.00  0.00    +0.000 S 
ATOM      8  O   UNL     1       5.720   6.020  14.234  0.00  0.00    +0.000 OA
BRANCH   7   9
ATOM      9  C   UNL     1       6.328   3.887  12.873  0.00  0.00    +0.000 A 
ATOM     10  C   UNL     1       4.977   3.746  12.552  0.00  0.00    +0.000 A 
ATOM     11  C   UNL     1       4.596   2.788  11.614  0.00  0.00    +0.000 A 
ATOM     12  C   UNL     1       5.563   1.990  10.998  0.00  0.00    +0.000 A 
ATOM     13  C   UNL     1       6.916   2.162  11.299  0.00  0.00    +0.000 A 
ATOM     14  C   UNL     1       7.305   3.120  12.232  0.00  0.00    +0.000 A 
ENDBRANCH   7   9
ENDBRANCH   1   7
BRANCH   4  15
ATOM     15  S   UNL     1       4.664   5.763  17.901  0.00  0.00    +0.000 S 
ATOM     16  O   UNL     1       5.396   6.502  18.905  0.00  0.00    +0.000 OA
ATOM     17  O   UNL     1       4.285   6.363  16.638  0.00  0.00    +0.000 OA
BRANCH  15  18
ATOM     18  C   UNL     1       3.145   5.199  18.631  0.00  0.00    +0.000 A 
ATOM     19  C   UNL     1       2.181   4.550  17.828  0.00  0.00    +0.000 A 
ATOM     20  C   UNL     1       1.229   3.717  18.422  0.00  0.00    +0.000 A 
ATOM     21  C   UNL     1       1.316   3.534  19.786  0.00  0.00    +0.000 A 
ATOM     22  C   UNL     1       2.217   4.232  20.566  0.00  0.00    +0.000 A 
ATOM     23  C   UNL     1       3.120   5.111  20.027  0.00  0.00    +0.000 A 
ATOM     24  O   UNL     1       2.205   3.813  21.862  0.00  0.00    +0.000 OA
ATOM     25  C   UNL     1       1.482   2.578  21.697  0.00  0.00    +0.000 C 
ATOM     26  O   UNL     1       0.656   2.585  20.511  0.00  0.00    +0.000 OA
ENDBRANCH  15  18
ENDBRANCH   4  15
TORSDOF 4
ENDMDL
MODEL 5
REMARK VINA RESULT:      -8.1      2.186      6.893
REMARK  Name = 
REMARK  4 active torsions:
REMARK  status: ('A' for Active; 'I' for Inactive)
REMARK    1  A    between atoms: S_2  and  C_4
REMARK    2  A    between atoms: S_2  and  C_10
REMARK    3  A    between atoms: N_13  and  S_14
REMARK    4  A    between atoms: S_14  and  C_17
REMARK                            x       y       z     vdW  Elec       q    Type
REMARK                         _______ _______ _______ _____ _____    ______ ____
ROOT
ATOM      1  C   UNL     1       4.371   4.260  16.539  0.00  0.00    +0.000 C 
ATOM      2  C   UNL     1       4.224   3.167  17.588  0.00  0.00    +0.000 C 
ATOM      3  C   UNL     1       2.806   3.362  18.107  0.00  0.00    +0.000 C 
ATOM      4  N   UNL     1       2.649   4.837  18.142  0.00  0.00    +0.000 NA
ATOM      5  C   UNL     1       3.409   5.362  16.962  0.00  0.00    +0.000 C 
ENDROOT
BRANCH   1   7
ATOM      6  O   UNL     1       6.928   4.154  17.180  0.00  0.00    +0.000 OA
ATOM      7  S   UNL     1       6.007   4.930  16.374  0.00  0.00    +0.000 S 
ATOM      8  O   UNL     1       5.905   6.368  16.548  0.00  0.00    +0.000 OA
BRANCH   7   9
ATOM      9  C   UNL     1       6.417   4.638  14.673  0.00  0.00    +0.000 A 
ATOM     10  C   UNL     1       5.660   3.732  13.928  0.00  0.00    +0.000 A 
ATOM     11  C   UNL     1       6.005   3.486  12.600  0.00  0.00    +0.000 A 
ATOM     12  C   UNL     1       7.092   4.149  12.026  0.00  0.00    +0.000 A 
ATOM     13  C   UNL     1       7.823   5.079  12.768  0.00  0.00    +0.000 A 
ATOM     14  C   UNL     1       7.481   5.335  14.094  0.00  0.00    +0.000 A 
ENDBRANCH   7   9
ENDBRANCH   1   7
BRANCH   4  15
ATOM     15  S   UNL     1       3.075   5.583  19.626  0.00  0.00    +0.000 S 
ATOM     16  O   UNL     1       2.233   5.034  20.665  0.00  0.00    +0.000 OA
ATOM     17  O   UNL     1       4.520   5.588  19.739  0.00  0.00    +0.000 OA
BRANCH  15  18
ATOM     18  C   UNL     1       2.614   7.283  19.386  0.00  0.00    +0.000 A 
ATOM     19  C   UNL     1       2.735   7.865  18.105  0.00  0.00    +0.000 A 
ATOM     20  C   UNL     1       1.982   8.998  17.783  0.00  0.00    +0.000 A 
ATOM     21  C   UNL     1       1.108   9.466  18.742  0.00  0.00    +0.000 A 
ATOM     22  C   UNL     1       1.055   8.930  20.013  0.00  0.00    +0.000 A 
ATOM     23  C   UNL     1       1.830   7.862  20.388  0.00  0.00    +0.000 A 
ATOM     24  O   UNL     1       0.047   9.468  20.755  0.00  0.00    +0.000 OA
ATOM     25  C   UNL     1      -0.702  10.100  19.699  0.00  0.00    +0.000 C 
ATOM     26  O   UNL     1       0.120  10.386  18.545  0.00  0.00    +0.000 OA
ENDBRANCH  15  18
ENDBRANCH   4  15
TORSDOF 4
ENDMDL
MODEL 6
REMARK VINA RESULT:      -7.9      2.219      5.673
REMARK  Name = 
REMARK  4 active torsions:
REMARK  status: ('A' for Active; 'I' for Inactive)
REMARK    1  A    between atoms: S_2  and  C_4
REMARK    2  A    between atoms: S_2  and  C_10
REMARK    3  A    between atoms: N_13  and  S_14
REMARK    4  A    between atoms: S_14  and  C_17
REMARK                            x       y       z     vdW  Elec       q    Type
REMARK                         _______ _______ _______ _____ _____    ______ ____
ROOT
ATOM      1  C   UNL     1       5.018   3.299  18.170  0.00  0.00    +0.000 C 
ATOM      2  C   UNL     1       4.751   4.069  19.456  0.00  0.00    +0.000 C 
ATOM      3  C   UNL     1       3.728   3.203  20.179  0.00  0.00    +0.000 C 
ATOM      4  N   UNL     1       2.855   2.709  19.087  0.00  0.00    +0.000 NA
ATOM      5  C   UNL     1       3.753   2.495  17.905  0.00  0.00    +0.000 C 
ENDROOT
BRANCH   1   7
ATOM      6  O   UNL     1       4.177   4.941  16.284  0.00  0.00    +0.000 OA
ATOM      7  S   UNL     1       5.391   4.305  16.755  0.00  0.00    +0.000 S 
ATOM      8  O   UNL     1       6.201   3.502  15.855  0.00  0.00    +0.000 OA
BRANCH   7   9
ATOM      9  C   UNL     1       6.440   5.581  17.402  0.00  0.00    +0.000 A 
ATOM     10  C   UNL     1       6.317   6.885  16.919  0.00  0.00    +0.000 A 
ATOM     11  C   UNL     1       7.164   7.876  17.411  0.00  0.00    +0.000 A 
ATOM     12  C   UNL     1       8.116   7.562  18.384  0.00  0.00    +0.000 A 
ATOM     13  C   UNL     1       8.209   6.263  18.887  0.00  0.00    +0.000 A 
ATOM     14  C   UNL     1       7.363   5.268  18.404  0.00  0.00    +0.000 A 
ENDBRANCH   7   9
ENDBRANCH   1   7
BRANCH   4  15
ATOM     15  S   UNL     1       1.486   3.683  18.746  0.00  0.00    +0.000 S 
ATOM     16  O   UNL     1       1.258   3.656  17.318  0.00  0.00    +0.000 OA
ATOM     17  O   UNL     1       0.439   3.352  19.691  0.00  0.00    +0.000 OA
BRANCH  15  18
ATOM     18  C   UNL     1       2.019   5.321  19.187  0.00  0.00    +0.000 A 
ATOM     19  C   UNL     1       2.444   6.213  18.177  0.00  0.00    +0.000 A 
ATOM     20  C   UNL     1       2.425   7.590  18.415  0.00  0.00    +0.000 A 
ATOM     21  C   UNL     1       1.937   8.012  19.634  0.00  0.00    +0.000 A 
ATOM     22  C   UNL     1       1.594   7.126  20.636  0.00  0.00    +0.000 A 
ATOM     23  C   UNL     1       1.666   5.767  20.464  0.00  0.00    +0.000 A 
ATOM     24  O   UNL     1       1.032   7.754  21.706  0.00  0.00    +0.000 OA
ATOM     25  C   UNL     1       0.752   9.031  21.100  0.00  0.00    +0.000 C 
ATOM     26  O   UNL     1       1.605   9.294  19.964  0.00  0.00    +0.000 OA
ENDBRANCH  15  18
ENDBRANCH   4  15
TORSDOF 4
ENDMDL
MODEL 7
REMARK VINA RESULT:      -7.9      1.473      2.273
REMARK  Name = 
REMARK  4 active torsions:
REMARK  status: ('A' for Active; 'I' for Inactive)
REMARK    1  A    between atoms: S_2  and  C_4
REMARK    2  A    between atoms: S_2  and  C_10
REMARK    3  A    between atoms: N_13  and  S_14
REMARK    4  A    between atoms: S_14  and  C_17
REMARK                            x       y       z     vdW  Elec       q    Type
REMARK                         _______ _______ _______ _____ _____    ______ ____
ROOT
ATOM      1  C   UNL     1       2.452   5.757  19.810  0.00  0.00    +0.000 C 
ATOM      2  C   UNL     1       1.332   4.733  19.689  0.00  0.00    +0.000 C 
ATOM      3  C   UNL     1       2.002   3.426  20.088  0.00  0.00    +0.000 C 
ATOM      4  N   UNL     1       3.355   3.532  19.489  0.00  0.00    +0.000 NA
ATOM      5  C   UNL     1       3.742   4.977  19.595  0.00  0.00    +0.000 C 
ENDROOT
BRANCH   1   7
ATOM      6  O   UNL     1       1.466   6.758  17.578  0.00  0.00    +0.000 OA
ATOM      7  S   UNL     1       2.370   7.103  18.655  0.00  0.00    +0.000 S 
ATOM      8  O   UNL     1       3.735   7.511  18.371  0.00  0.00    +0.000 OA
BRANCH   7   9
ATOM      9  C   UNL     1       1.616   8.414  19.581  0.00  0.00    +0.000 A 
ATOM     10  C   UNL     1       1.405   8.256  20.952  0.00  0.00    +0.000 A 
ATOM     11  C   UNL     1       0.785   9.278  21.668  0.00  0.00    +0.000 A 
ATOM     12  C   UNL     1       0.392  10.449  21.016  0.00  0.00    +0.000 A 
ATOM     13  C   UNL     1       0.638  10.614  19.651  0.00  0.00    +0.000 A 
ATOM     14  C   UNL     1       1.261   9.599  18.929  0.00  0.00    +0.000 A 
ENDBRANCH   7   9
ENDBRANCH   1   7
BRANCH   4  15
ATOM     15  S   UNL     1       3.509   2.890  17.907  0.00  0.00    +0.000 S 
ATOM     16  O   UNL     1       3.961   1.522  18.018  0.00  0.00    +0.000 OA
ATOM     17  O   UNL     1       2.324   3.242  17.152  0.00  0.00    +0.000 OA
BRANCH  15  18
ATOM     18  C   UNL     1       4.825   3.849  17.194  0.00  0.00    +0.000 A 
ATOM     19  C   UNL     1       4.562   4.678  16.081  0.00  0.00    +0.000 A 
ATOM     20  C   UNL     1       5.414   5.750  15.798  0.00  0.00    +0.000 A 
ATOM     21  C   UNL     1       6.461   5.970  16.669  0.00  0.00    +0.000 A 
ATOM     22  C   UNL     1       6.746   5.108  17.708  0.00  0.00    +0.000 A 
ATOM     23  C   UNL     1       5.974   4.006  17.975  0.00  0.00    +0.000 A 
ATOM     24  O   UNL     1       7.747   5.577  18.503  0.00  0.00    +0.000 OA
ATOM     25  C   UNL     1       7.778   6.945  18.050  0.00  0.00    +0.000 C 
ATOM     26  O   UNL     1       7.243   7.087  16.715  0.00  0.00    +0.000 OA
ENDBRANCH  15  18
ENDBRANCH   4  15
TORSDOF 4
ENDMDL
MODEL 8
REMARK VINA RESULT:      -7.8      1.521      2.132
REMARK  Name = 
REMARK  4 active torsions:
REMARK  status: ('A' for Active; 'I' for Inactive)
REMARK    1  A    between atoms: S_2  and  C_4
REMARK    2  A    between atoms: S_2  and  C_10
REMARK    3  A    between atoms: N_13  and  S_14
REMARK    4  A    between atoms: S_14  and  C_17
REMARK                            x       y       z     vdW  Elec       q    Type
REMARK                         _______ _______ _______ _____ _____    ______ ____
ROOT
ATOM      1  C   UNL     1       2.484   6.207  19.814  0.00  0.00    +0.000 C 
ATOM      2  C   UNL     1       1.418   5.122  19.860  0.00  0.00    +0.000 C 
ATOM      3  C   UNL     1       2.145   3.938  20.482  0.00  0.00    +0.000 C 
ATOM      4  N   UNL     1       3.501   4.010  19.885  0.00  0.00    +0.000 NA
ATOM      5  C   UNL     1       3.814   5.470  19.745  0.00  0.00    +0.000 C 
ENDROOT
BRANCH   1   7
ATOM      6  O   UNL     1       1.490   6.760  17.433  0.00  0.00    +0.000 OA
ATOM      7  S   UNL     1       2.356   7.331  18.444  0.00  0.00    +0.000 S 
ATOM      8  O   UNL     1       3.703   7.757  18.107  0.00  0.00    +0.000 OA
BRANCH   7   9
ATOM      9  C   UNL     1       1.519   8.739  19.125  0.00  0.00    +0.000 A 
ATOM     10  C   UNL     1       1.131   9.783  18.283  0.00  0.00    +0.000 A 
ATOM     11  C   UNL     1       0.500  10.900  18.828  0.00  0.00    +0.000 A 
ATOM     12  C   UNL     1       0.254  10.961  20.202  0.00  0.00    +0.000 A 
ATOM     13  C   UNL     1       0.614   9.898  21.032  0.00  0.00    +0.000 A 
ATOM     14  C   UNL     1       1.241   8.777  20.494  0.00  0.00    +0.000 A 
ENDBRANCH   7   9
ENDBRANCH   1   7
BRANCH   4  15
ATOM     15  S   UNL     1       3.712   3.117  18.437  0.00  0.00    +0.000 S 
ATOM     16  O   UNL     1       4.221   1.809  18.784  0.00  0.00    +0.000 OA
ATOM     17  O   UNL     1       2.528   3.280  17.619  0.00  0.00    +0.000 OA
BRANCH  15  18
ATOM     18  C   UNL     1       4.999   4.000  17.586  0.00  0.00    +0.000 A 
ATOM     19  C   UNL     1       4.715   4.638  16.359  0.00  0.00    +0.000 A 
ATOM     20  C   UNL     1       5.531   5.683  15.914  0.00  0.00    +0.000 A 
ATOM     21  C   UNL     1       6.564   6.071  16.742  0.00  0.00    +0.000 A 
ATOM     22  C   UNL     1       6.872   5.389  17.903  0.00  0.00    +0.000 A 
ATOM     23  C   UNL     1       6.137   4.315  18.335  0.00  0.00    +0.000 A 
ATOM     24  O   UNL     1       7.852   6.010  18.617  0.00  0.00    +0.000 OA
ATOM     25  C   UNL     1       7.838   7.291  17.958  0.00  0.00    +0.000 C 
ATOM     26  O   UNL     1       7.307   7.208  16.617  0.00  0.00    +0.000 OA
ENDBRANCH  15  18
ENDBRANCH   4  15
TORSDOF 4
ENDMDL
MODEL 9
REMARK VINA RESULT:      -7.8      2.434      7.257
REMARK  Name = 
REMARK  4 active torsions:
REMARK  status: ('A' for Active; 'I' for Inactive)
REMARK    1  A    between atoms: S_2  and  C_4
REMARK    2  A    between atoms: S_2  and  C_10
REMARK    3  A    between atoms: N_13  and  S_14
REMARK    4  A    between atoms: S_14  and  C_17
REMARK                            x       y       z     vdW  Elec       q    Type
REMARK                         _______ _______ _______ _____ _____    ______ ____
ROOT
ATOM      1  C   UNL     1       6.193   6.108  16.526  0.00  0.00    +0.000 C 
ATOM      2  C   UNL     1       4.932   6.599  15.829  0.00  0.00    +0.000 C 
ATOM      3  C   UNL     1       4.344   7.592  16.822  0.00  0.00    +0.000 C 
ATOM      4  N   UNL     1       4.600   6.960  18.140  0.00  0.00    +0.000 NA
ATOM      5  C   UNL     1       5.925   6.270  18.016  0.00  0.00    +0.000 C 
ENDROOT
BRANCH   1   7
ATOM      6  O   UNL     1       5.526   3.555  16.523  0.00  0.00    +0.000 OA
ATOM      7  S   UNL     1       6.635   4.422  16.181  0.00  0.00    +0.000 S 
ATOM      8  O   UNL     1       7.952   4.196  16.750  0.00  0.00    +0.000 OA
BRANCH   7   9
ATOM      9  C   UNL     1       6.815   4.381  14.417  0.00  0.00    +0.000 A 
ATOM     10  C   UNL     1       7.713   5.252  13.797  0.00  0.00    +0.000 A 
ATOM     11  C   UNL     1       7.829   5.235  12.408  0.00  0.00    +0.000 A 
ATOM     12  C   UNL     1       7.058   4.347  11.653  0.00  0.00    +0.000 A 
ATOM     13  C   UNL     1       6.188   3.456  12.284  0.00  0.00    +0.000 A 
ATOM     14  C   UNL     1       6.070   3.463  13.672  0.00  0.00    +0.000 A 
ENDBRANCH   7   9
ENDBRANCH   1   7
BRANCH   4  15
ATOM     15  S   UNL     1       3.345   5.947  18.722  0.00  0.00    +0.000 S 
ATOM     16  O   UNL     1       2.795   5.221  17.599  0.00  0.00    +0.000 OA
ATOM     17  O   UNL     1       3.818   5.267  19.910  0.00  0.00    +0.000 OA
BRANCH  15  18
ATOM     18  C   UNL     1       2.113   7.094  19.292  0.00  0.00    +0.000 A 
ATOM     19  C   UNL     1       1.732   7.091  20.652  0.00  0.00    +0.000 A 
ATOM     20  C   UNL     1       1.143   8.229  21.210  0.00  0.00    +0.000 A 
ATOM     21  C   UNL     1       1.006   9.332  20.393  0.00  0.00    +0.000 A 
ATOM     22  C   UNL     1       1.316   9.295  19.049  0.00  0.00    +0.000 A 
ATOM     23  C   UNL     1       1.831   8.174  18.450  0.00  0.00    +0.000 A 
ATOM     24  O   UNL     1       1.211  10.521  18.464  0.00  0.00    +0.000 OA
ATOM     25  C   UNL     1       1.162  11.336  19.651  0.00  0.00    +0.000 C 
ATOM     26  O   UNL     1       0.693  10.596  20.800  0.00  0.00    +0.000 OA
ENDBRANCH  15  18
ENDBRANCH   4  15
TORSDOF 4
ENDMDL
