MODEL 1
REMARK VINA RESULT:      -8.6      0.000      0.000
REMARK  Name = 
REMARK  7 active torsions:
REMARK  status: ('A' for Active; 'I' for Inactive)
REMARK    1  A    between atoms: C_1  and  N_2
REMARK    2  A    between atoms: N_5  and  C_6
REMARK    3  A    between atoms: C_14  and  C_15
REMARK    4  A    between atoms: C_18  and  C_19
REMARK    5  A    between atoms: C_20  and  C_21
REMARK    6  A    between atoms: C_21  and  O_22
REMARK    7  A    between atoms: O_22  and  C_23
REMARK                            x       y       z     vdW  Elec       q    Type
REMARK                         _______ _______ _______ _____ _____    ______ ____
ROOT
ATOM      1  C   UNL     1       2.529   6.659  19.103  0.00  0.00    +0.000 A 
ATOM      2  C   UNL     1       2.762   7.406  17.920  0.00  0.00    +0.000 A 
ATOM      3  C   UNL     1       2.293   8.704  17.742  0.00  0.00    +0.000 A 
ATOM      4  C   UNL     1       1.600   9.259  18.782  0.00  0.00    +0.000 A 
ATOM      5  C   UNL     1       1.350   8.565  19.995  0.00  0.00    +0.000 A 
ATOM      6  C   UNL     1       1.802   7.257  20.148  0.00  0.00    +0.000 A 
ATOM      7  C   UNL     1       0.570   9.411  21.020  0.00  0.00    +0.000 C 
ATOM      8  C   UNL     1       0.414  10.639  20.179  0.00  0.00    +0.000 A 
ATOM      9  C   UNL     1      -0.161  11.922  20.177  0.00  0.00    +0.000 A 
ATOM     10  N   UNL     1       0.035  12.543  18.999  0.00  0.00    +0.000 NA
ATOM     11  N   UNL     1       0.756  11.655  18.263  0.00  0.00    +0.000 N 
ATOM     12  C   UNL     1       0.989  10.529  18.953  0.00  0.00    +0.000 A 
ATOM     13  H   UNL     1       1.018  11.909  17.320  0.00  0.00    +0.000 HD
ENDROOT
BRANCH   1  18
ATOM     14  C   UNL     1       4.779   1.747  20.464  0.00  0.00    +0.000 C 
ATOM     15  N   UNL     1       4.037   2.720  19.664  0.00  0.00    +0.000 NA
ATOM     16  C   UNL     1       4.911   3.842  19.250  0.00  0.00    +0.000 C 
ATOM     17  C   UNL     1       4.153   4.896  18.405  0.00  0.00    +0.000 C 
ATOM     18  N   UNL     1       2.985   5.360  19.152  0.00  0.00    +0.000 N 
ATOM     19  C   UNL     1       2.084   4.290  19.610  0.00  0.00    +0.000 C 
ATOM     20  C   UNL     1       2.887   3.255  20.423  0.00  0.00    +0.000 C 
ENDBRANCH   1  18
BRANCH   9  21
ATOM     21  C   UNL     1      -0.915  12.522  21.277  0.00  0.00    +0.000 A 
ATOM     22  C   UNL     1      -0.386  13.338  22.253  0.00  0.00    +0.000 A 
ATOM     23  S   UNL     1      -1.560  13.837  23.388  0.00  0.00    +0.000 S 
ATOM     24  C   UNL     1      -2.786  12.942  22.601  0.00  0.00    +0.000 A 
ATOM     25  C   UNL     1      -2.315  12.295  21.483  0.00  0.00    +0.000 A 
BRANCH  24  26
ATOM     26  C   UNL     1      -4.129  12.889  23.085  0.00  0.00    +0.000 C 
ATOM     27  C   UNL     1      -5.362  12.860  23.506  0.00  0.00    +0.000 C 
BRANCH  27  28
ATOM     28  C   UNL     1      -6.801  12.826  23.996  0.00  0.00    +0.000 C 
BRANCH  28  29
ATOM     29  O   UNL     1      -7.550  11.950  23.156  0.00  0.00    +0.000 OA
BRANCH  29  30
ATOM     30  C   UNL     1      -7.608  12.304  21.835  0.00  0.00    +0.000 A 
ATOM     31  C   UNL     1      -7.325  11.279  20.930  0.00  0.00    +0.000 A 
ATOM     32  C   UNL     1      -7.309  11.531  19.557  0.00  0.00    +0.000 A 
ATOM     33  C   UNL     1      -7.606  12.805  19.080  0.00  0.00    +0.000 A 
ATOM     34  C   UNL     1      -7.917  13.826  19.978  0.00  0.00    +0.000 A 
ATOM     35  C   UNL     1      -7.916  13.578  21.353  0.00  0.00    +0.000 A 
ENDBRANCH  29  30
ENDBRANCH  28  29
ENDBRANCH  27  28
ENDBRANCH  24  26
ENDBRANCH   9  21
TORSDOF 6
ENDMDL
MODEL 2
REMARK VINA RESULT:      -8.6      0.678      1.180
REMARK  Name = 
REMARK  7 active torsions:
REMARK  status: ('A' for Active; 'I' for Inactive)
REMARK    1  A    between atoms: C_1  and  N_2
REMARK    2  A    between atoms: N_5  and  C_6
REMARK    3  A    between atoms: C_14  and  C_15
REMARK    4  A    between atoms: C_18  and  C_19
REMARK    5  A    between atoms: C_20  and  C_21
REMARK    6  A    between atoms: C_21  and  O_22
REMARK    7  A    between atoms: O_22  and  C_23
REMARK                            x       y       z     vdW  Elec       q    Type
REMARK                         _______ _______ _______ _____ _____    ______ ____
ROOT
ATOM      1  C   UNL     1       2.501   6.647  19.338  0.00  0.00    +0.000 A 
ATOM      2  C   UNL     1       2.743   7.350  18.131  0.00  0.00    +0.000 A 
ATOM      3  C   UNL     1       2.289   8.647  17.907  0.00  0.00    +0.000 A 
ATOM      4  C   UNL     1       1.600   9.244  18.926  0.00  0.00    +0.000 A 
ATOM      5  C   UNL     1       1.341   8.595  20.161  0.00  0.00    +0.000 A 
ATOM      6  C   UNL     1       1.779   7.289  20.360  0.00  0.00    +0.000 A 
ATOM      7  C   UNL     1       0.568   9.485  21.155  0.00  0.00    +0.000 C 
ATOM      8  C   UNL     1       0.426  10.685  20.271  0.00  0.00    +0.000 A 
ATOM      9  C   UNL     1      -0.135  11.973  20.224  0.00  0.00    +0.000 A 
ATOM     10  N   UNL     1       0.069  12.550  19.025  0.00  0.00    +0.000 NA
ATOM     11  N   UNL     1       0.782  11.630  18.322  0.00  0.00    +0.000 N 
ATOM     12  C   UNL     1       1.002  10.525  19.051  0.00  0.00    +0.000 A 
ATOM     13  H   UNL     1       1.048  11.848  17.371  0.00  0.00    +0.000 HD
ENDROOT
BRANCH   1  18
ATOM     14  C   UNL     1       3.877   1.311  18.520  0.00  0.00    +0.000 C 
ATOM     15  N   UNL     1       3.783   2.592  19.218  0.00  0.00    +0.000 NA
ATOM     16  C   UNL     1       2.370   2.960  19.463  0.00  0.00    +0.000 C 
ATOM     17  C   UNL     1       2.235   4.318  20.196  0.00  0.00    +0.000 C 
ATOM     18  N   UNL     1       2.943   5.346  19.434  0.00  0.00    +0.000 N 
ATOM     19  C   UNL     1       4.350   5.032  19.140  0.00  0.00    +0.000 C 
ATOM     20  C   UNL     1       4.435   3.663  18.435  0.00  0.00    +0.000 C 
ENDBRANCH   1  18
BRANCH   9  21
ATOM     21  C   UNL     1      -0.885  12.618  21.301  0.00  0.00    +0.000 A 
ATOM     22  C   UNL     1      -0.351  13.472  22.242  0.00  0.00    +0.000 A 
ATOM     23  S   UNL     1      -1.520  14.019  23.358  0.00  0.00    +0.000 S 
ATOM     24  C   UNL     1      -2.751  13.095  22.613  0.00  0.00    +0.000 A 
ATOM     25  C   UNL     1      -2.284  12.403  21.520  0.00  0.00    +0.000 A 
BRANCH  24  26
ATOM     26  C   UNL     1      -4.092  13.065  23.103  0.00  0.00    +0.000 C 
ATOM     27  C   UNL     1      -5.319  13.066  23.543  0.00  0.00    +0.000 C 
BRANCH  27  28
ATOM     28  C   UNL     1      -6.750  13.067  24.056  0.00  0.00    +0.000 C 
BRANCH  28  29
ATOM     29  O   UNL     1      -7.614  13.484  23.001  0.00  0.00    +0.000 OA
BRANCH  29  30
ATOM     30  C   UNL     1      -7.529  12.755  21.846  0.00  0.00    +0.000 A 
ATOM     31  C   UNL     1      -7.916  11.417  21.955  0.00  0.00    +0.000 A 
ATOM     32  C   UNL     1      -7.831  10.563  20.854  0.00  0.00    +0.000 A 
ATOM     33  C   UNL     1      -7.384  11.050  19.628  0.00  0.00    +0.000 A 
ATOM     34  C   UNL     1      -7.022  12.392  19.507  0.00  0.00    +0.000 A 
ATOM     35  C   UNL     1      -7.092  13.243  20.612  0.00  0.00    +0.000 A 
ENDBRANCH  29  30
ENDBRANCH  28  29
ENDBRANCH  27  28
ENDBRANCH  24  26
ENDBRANCH   9  21
TORSDOF 6
ENDMDL
MODEL 3
REMARK VINA RESULT:      -8.3      0.566      1.029
REMARK  Name = 
REMARK  7 active torsions:
REMARK  status: ('A' for Active; 'I' for Inactive)
REMARK    1  A    between atoms: C_1  and  N_2
REMARK    2  A    between atoms: N_5  and  C_6
REMARK    3  A    between atoms: C_14  and  C_15
REMARK    4  A    between atoms: C_18  and  C_19
REMARK    5  A    between atoms: C_20  and  C_21
REMARK    6  A    between atoms: C_21  and  O_22
REMARK    7  A    between atoms: O_22  and  C_23
REMARK                            x       y       z     vdW  Elec       q    Type
REMARK                         _______ _______ _______ _____ _____    ______ ____
ROOT
ATOM      1  C   UNL     1       2.640   6.837  18.838  0.00  0.00    +0.000 A 
ATOM      2  C   UNL     1       2.920   7.664  17.721  0.00  0.00    +0.000 A 
ATOM      3  C   UNL     1       2.422   8.958  17.594  0.00  0.00    +0.000 A 
ATOM      4  C   UNL     1       1.651   9.426  18.622  0.00  0.00    +0.000 A 
ATOM      5  C   UNL     1       1.351   8.649  19.772  0.00  0.00    +0.000 A 
ATOM      6  C   UNL     1       1.833   7.347  19.871  0.00  0.00    +0.000 A 
ATOM      7  C   UNL     1       0.484   9.406  20.797  0.00  0.00    +0.000 C 
ATOM      8  C   UNL     1       0.341  10.681  20.025  0.00  0.00    +0.000 A 
ATOM      9  C   UNL     1      -0.272  11.946  20.068  0.00  0.00    +0.000 A 
ATOM     10  N   UNL     1      -0.026  12.645  18.945  0.00  0.00    +0.000 NA
ATOM     11  N   UNL     1       0.766  11.826  18.201  0.00  0.00    +0.000 N 
ATOM     12  C   UNL     1       0.992  10.665  18.833  0.00  0.00    +0.000 A 
ATOM     13  H   UNL     1       1.076  12.147  17.294  0.00  0.00    +0.000 HD
ENDROOT
BRANCH   1  18
ATOM     14  C   UNL     1       4.621   1.784  20.095  0.00  0.00    +0.000 C 
ATOM     15  N   UNL     1       4.120   2.869  19.254  0.00  0.00    +0.000 NA
ATOM     16  C   UNL     1       5.011   4.050  19.325  0.00  0.00    +0.000 C 
ATOM     17  C   UNL     1       4.504   5.223  18.450  0.00  0.00    +0.000 C 
ATOM     18  N   UNL     1       3.132   5.550  18.835  0.00  0.00    +0.000 N 
ATOM     19  C   UNL     1       2.198   4.414  18.803  0.00  0.00    +0.000 C 
ATOM     20  C   UNL     1       2.756   3.265  19.667  0.00  0.00    +0.000 C 
ENDBRANCH   1  18
BRANCH   9  21
ATOM     21  C   UNL     1      -1.110  12.453  21.154  0.00  0.00    +0.000 A 
ATOM     22  C   UNL     1      -0.643  12.994  22.332  0.00  0.00    +0.000 A 
ATOM     23  S   UNL     1      -1.910  13.463  23.376  0.00  0.00    +0.000 S 
ATOM     24  C   UNL     1      -3.099  12.918  22.275  0.00  0.00    +0.000 A 
ATOM     25  C   UNL     1      -2.542  12.413  21.124  0.00  0.00    +0.000 A 
BRANCH  24  26
ATOM     26  C   UNL     1      -4.497  12.990  22.557  0.00  0.00    +0.000 C 
ATOM     27  C   UNL     1      -5.774  13.027  22.819  0.00  0.00    +0.000 C 
BRANCH  27  28
ATOM     28  C   UNL     1      -7.263  13.069  23.124  0.00  0.00    +0.000 C 
BRANCH  28  29
ATOM     29  O   UNL     1      -7.903  12.001  22.429  0.00  0.00    +0.000 OA
BRANCH  29  30
ATOM     30  C   UNL     1      -7.605  11.901  21.097  0.00  0.00    +0.000 A 
ATOM     31  C   UNL     1      -7.772  13.076  20.359  0.00  0.00    +0.000 A 
ATOM     32  C   UNL     1      -7.543  13.086  18.982  0.00  0.00    +0.000 A 
ATOM     33  C   UNL     1      -7.115  11.926  18.339  0.00  0.00    +0.000 A 
ATOM     34  C   UNL     1      -6.920  10.758  19.076  0.00  0.00    +0.000 A 
ATOM     35  C   UNL     1      -7.165  10.744  20.451  0.00  0.00    +0.000 A 
ENDBRANCH  29  30
ENDBRANCH  28  29
ENDBRANCH  27  28
ENDBRANCH  24  26
ENDBRANCH   9  21
TORSDOF 6
ENDMDL
MODEL 4
REMARK VINA RESULT:      -8.2      4.016     11.437
REMARK  Name = 
REMARK  7 active torsions:
REMARK  status: ('A' for Active; 'I' for Inactive)
REMARK    1  A    between atoms: C_1  and  N_2
REMARK    2  A    between atoms: N_5  and  C_6
REMARK    3  A    between atoms: C_14  and  C_15
REMARK    4  A    between atoms: C_18  and  C_19
REMARK    5  A    between atoms: C_20  and  C_21
REMARK    6  A    between atoms: C_21  and  O_22
REMARK    7  A    between atoms: O_22  and  C_23
REMARK                            x       y       z     vdW  Elec       q    Type
REMARK                         _______ _______ _______ _____ _____    ______ ____
ROOT
ATOM      1  C   UNL     1      -4.013  13.667  22.248  0.00  0.00    +0.000 A 
ATOM      2  C   UNL     1      -3.710  13.161  23.538  0.00  0.00    +0.000 A 
ATOM      3  C   UNL     1      -2.737  12.191  23.760  0.00  0.00    +0.000 A 
ATOM      4  C   UNL     1      -2.049  11.746  22.666  0.00  0.00    +0.000 A 
ATOM      5  C   UNL     1      -2.298  12.227  21.354  0.00  0.00    +0.000 A 
ATOM      6  C   UNL     1      -3.293  13.177  21.144  0.00  0.00    +0.000 A 
ATOM      7  C   UNL     1      -1.377  11.587  20.296  0.00  0.00    +0.000 C 
ATOM      8  C   UNL     1      -0.623  10.680  21.218  0.00  0.00    +0.000 A 
ATOM      9  C   UNL     1       0.372   9.688  21.236  0.00  0.00    +0.000 A 
ATOM     10  N   UNL     1       0.554   9.202  22.478  0.00  0.00    +0.000 NA
ATOM     11  N   UNL     1      -0.315   9.908  23.250  0.00  0.00    +0.000 N 
ATOM     12  C   UNL     1      -1.013  10.787  22.515  0.00  0.00    +0.000 A 
ATOM     13  H   UNL     1      -0.359   9.703  24.239  0.00  0.00    +0.000 HD
ENDROOT
BRANCH   1  18
ATOM     14  C   UNL     1      -7.421  17.846  20.847  0.00  0.00    +0.000 C 
ATOM     15  N   UNL     1      -6.974  16.640  21.542  0.00  0.00    +0.000 NA
ATOM     16  C   UNL     1      -5.767  16.913  22.356  0.00  0.00    +0.000 C 
ATOM     17  C   UNL     1      -5.263  15.653  23.101  0.00  0.00    +0.000 C 
ATOM     18  N   UNL     1      -5.037  14.582  22.132  0.00  0.00    +0.000 N 
ATOM     19  C   UNL     1      -6.194  14.273  21.277  0.00  0.00    +0.000 C 
ATOM     20  C   UNL     1      -6.675  15.560  20.577  0.00  0.00    +0.000 C 
ENDBRANCH   1  18
BRANCH   9  21
ATOM     21  C   UNL     1       1.107   9.193  20.072  0.00  0.00    +0.000 A 
ATOM     22  C   UNL     1       1.192   9.832  18.855  0.00  0.00    +0.000 A 
ATOM     23  S   UNL     1       2.117   8.950  17.723  0.00  0.00    +0.000 S 
ATOM     24  C   UNL     1       2.390   7.686  18.842  0.00  0.00    +0.000 A 
ATOM     25  C   UNL     1       1.808   7.943  20.061  0.00  0.00    +0.000 A 
BRANCH  24  26
ATOM     26  C   UNL     1       3.133   6.513  18.509  0.00  0.00    +0.000 C 
ATOM     27  C   UNL     1       3.831   5.449  18.225  0.00  0.00    +0.000 C 
BRANCH  27  28
ATOM     28  C   UNL     1       4.645   4.208  17.895  0.00  0.00    +0.000 C 
BRANCH  28  29
ATOM     29  O   UNL     1       3.791   3.069  17.962  0.00  0.00    +0.000 OA
BRANCH  29  30
ATOM     30  C   UNL     1       3.003   2.985  19.078  0.00  0.00    +0.000 A 
ATOM     31  C   UNL     1       1.630   3.103  18.849  0.00  0.00    +0.000 A 
ATOM     32  C   UNL     1       0.729   3.079  19.915  0.00  0.00    +0.000 A 
ATOM     33  C   UNL     1       1.196   2.908  21.217  0.00  0.00    +0.000 A 
ATOM     34  C   UNL     1       2.564   2.762  21.448  0.00  0.00    +0.000 A 
ATOM     35  C   UNL     1       3.467   2.802  20.382  0.00  0.00    +0.000 A 
ENDBRANCH  29  30
ENDBRANCH  28  29
ENDBRANCH  27  28
ENDBRANCH  24  26
ENDBRANCH   9  21
TORSDOF 6
ENDMDL
MODEL 5
REMARK VINA RESULT:      -7.9      4.567     11.875
REMARK  Name = 
REMARK  7 active torsions:
REMARK  status: ('A' for Active; 'I' for Inactive)
REMARK    1  A    between atoms: C_1  and  N_2
REMARK    2  A    between atoms: N_5  and  C_6
REMARK    3  A    between atoms: C_14  and  C_15
REMARK    4  A    between atoms: C_18  and  C_19
REMARK    5  A    between atoms: C_20  and  C_21
REMARK    6  A    between atoms: C_21  and  O_22
REMARK    7  A    between atoms: O_22  and  C_23
REMARK                            x       y       z     vdW  Elec       q    Type
REMARK                         _______ _______ _______ _____ _____    ______ ____
ROOT
ATOM      1  C   UNL     1      -1.964  13.383  21.702  0.00  0.00    +0.000 A 
ATOM      2  C   UNL     1      -1.480  14.181  20.634  0.00  0.00    +0.000 A 
ATOM      3  C   UNL     1      -0.584  13.706  19.681  0.00  0.00    +0.000 A 
ATOM      4  C   UNL     1      -0.192  12.402  19.799  0.00  0.00    +0.000 A 
ATOM      5  C   UNL     1      -0.655  11.551  20.837  0.00  0.00    +0.000 A 
ATOM      6  C   UNL     1      -1.529  12.048  21.798  0.00  0.00    +0.000 A 
ATOM      7  C   UNL     1      -0.086  10.122  20.739  0.00  0.00    +0.000 C 
ATOM      8  C   UNL     1       0.764  10.334  19.525  0.00  0.00    +0.000 A 
ATOM      9  C   UNL     1       1.681   9.684  18.680  0.00  0.00    +0.000 A 
ATOM     10  N   UNL     1       2.154  10.521  17.738  0.00  0.00    +0.000 NA
ATOM     11  N   UNL     1       1.514  11.697  17.977  0.00  0.00    +0.000 N 
ATOM     12  C   UNL     1       0.688  11.596  19.029  0.00  0.00    +0.000 A 
ATOM     13  H   UNL     1       1.723  12.490  17.384  0.00  0.00    +0.000 HD
ENDROOT
BRANCH   1  18
ATOM     14  C   UNL     1      -5.321  16.734  24.624  0.00  0.00    +0.000 C 
ATOM     15  N   UNL     1      -4.596  15.513  24.279  0.00  0.00    +0.000 NA
ATOM     16  C   UNL     1      -3.133  15.744  24.288  0.00  0.00    +0.000 C 
ATOM     17  C   UNL     1      -2.334  14.469  23.919  0.00  0.00    +0.000 C 
ATOM     18  N   UNL     1      -2.800  13.969  22.626  0.00  0.00    +0.000 N 
ATOM     19  C   UNL     1      -4.251  13.735  22.545  0.00  0.00    +0.000 C 
ATOM     20  C   UNL     1      -5.002  15.022  22.945  0.00  0.00    +0.000 C 
ENDBRANCH   1  18
BRANCH   9  21
ATOM     21  C   UNL     1       2.119   8.294  18.802  0.00  0.00    +0.000 A 
ATOM     22  C   UNL     1       1.874   7.475  19.883  0.00  0.00    +0.000 A 
ATOM     23  S   UNL     1       2.555   5.922  19.685  0.00  0.00    +0.000 S 
ATOM     24  C   UNL     1       3.211   6.338  18.162  0.00  0.00    +0.000 A 
ATOM     25  C   UNL     1       2.897   7.627  17.801  0.00  0.00    +0.000 A 
BRANCH  24  26
ATOM     26  C   UNL     1       3.996   5.428  17.390  0.00  0.00    +0.000 C 
ATOM     27  C   UNL     1       4.704   4.576  16.703  0.00  0.00    +0.000 C 
BRANCH  27  28
ATOM     28  C   UNL     1       5.530   3.582  15.903  0.00  0.00    +0.000 C 
BRANCH  28  29
ATOM     29  O   UNL     1       6.877   4.047  15.846  0.00  0.00    +0.000 OA
BRANCH  29  30
ATOM     30  C   UNL     1       7.233   4.947  16.814  0.00  0.00    +0.000 A 
ATOM     31  C   UNL     1       7.183   6.289  16.428  0.00  0.00    +0.000 A 
ATOM     32  C   UNL     1       7.567   7.295  17.316  0.00  0.00    +0.000 A 
ATOM     33  C   UNL     1       7.975   6.967  18.606  0.00  0.00    +0.000 A 
ATOM     34  C   UNL     1       8.000   5.630  19.006  0.00  0.00    +0.000 A 
ATOM     35  C   UNL     1       7.632   4.622  18.112  0.00  0.00    +0.000 A 
ENDBRANCH  29  30
ENDBRANCH  28  29
ENDBRANCH  27  28
ENDBRANCH  24  26
ENDBRANCH   9  21
TORSDOF 6
ENDMDL
MODEL 6
REMARK VINA RESULT:      -7.8      1.412      2.053
REMARK  Name = 
REMARK  7 active torsions:
REMARK  status: ('A' for Active; 'I' for Inactive)
REMARK    1  A    between atoms: C_1  and  N_2
REMARK    2  A    between atoms: N_5  and  C_6
REMARK    3  A    between atoms: C_14  and  C_15
REMARK    4  A    between atoms: C_18  and  C_19
REMARK    5  A    between atoms: C_20  and  C_21
REMARK    6  A    between atoms: C_21  and  O_22
REMARK    7  A    between atoms: O_22  and  C_23
REMARK                            x       y       z     vdW  Elec       q    Type
REMARK                         _______ _______ _______ _____ _____    ______ ____
ROOT
ATOM      1  C   UNL     1       2.476   6.960  19.140  0.00  0.00    +0.000 A 
ATOM      2  C   UNL     1       2.643   7.653  17.914  0.00  0.00    +0.000 A 
ATOM      3  C   UNL     1       2.137   8.930  17.693  0.00  0.00    +0.000 A 
ATOM      4  C   UNL     1       1.474   9.520  18.733  0.00  0.00    +0.000 A 
ATOM      5  C   UNL     1       1.290   8.881  19.987  0.00  0.00    +0.000 A 
ATOM      6  C   UNL     1       1.778   7.593  20.184  0.00  0.00    +0.000 A 
ATOM      7  C   UNL     1       0.531   9.760  21.002  0.00  0.00    +0.000 C 
ATOM      8  C   UNL     1       0.312  10.942  20.109  0.00  0.00    +0.000 A 
ATOM      9  C   UNL     1      -0.292  12.210  20.069  0.00  0.00    +0.000 A 
ATOM     10  N   UNL     1      -0.159  12.776  18.856  0.00  0.00    +0.000 NA
ATOM     11  N   UNL     1       0.553  11.870  18.134  0.00  0.00    +0.000 N 
ATOM     12  C   UNL     1       0.840  10.783  18.867  0.00  0.00    +0.000 A 
ATOM     13  H   UNL     1       0.771  12.083  17.170  0.00  0.00    +0.000 HD
ENDROOT
BRANCH   1  18
ATOM     14  C   UNL     1       3.538   1.512  18.661  0.00  0.00    +0.000 C 
ATOM     15  N   UNL     1       3.722   2.891  19.108  0.00  0.00    +0.000 NA
ATOM     16  C   UNL     1       2.561   3.350  19.906  0.00  0.00    +0.000 C 
ATOM     17  C   UNL     1       2.721   4.812  20.389  0.00  0.00    +0.000 C 
ATOM     18  N   UNL     1       2.964   5.675  19.234  0.00  0.00    +0.000 N 
ATOM     19  C   UNL     1       4.095   5.263  18.387  0.00  0.00    +0.000 C 
ATOM     20  C   UNL     1       3.904   3.796  17.952  0.00  0.00    +0.000 C 
ENDBRANCH   1  18
BRANCH   9  21
ATOM     21  C   UNL     1      -1.015  12.847  21.170  0.00  0.00    +0.000 A 
ATOM     22  C   UNL     1      -0.737  12.678  22.508  0.00  0.00    +0.000 A 
ATOM     23  S   UNL     1      -1.802  13.562  23.508  0.00  0.00    +0.000 S 
ATOM     24  C   UNL     1      -2.668  14.158  22.160  0.00  0.00    +0.000 A 
ATOM     25  C   UNL     1      -2.141  13.713  20.971  0.00  0.00    +0.000 A 
BRANCH  24  26
ATOM     26  C   UNL     1      -3.805  15.011  22.294  0.00  0.00    +0.000 C 
ATOM     27  C   UNL     1      -4.856  15.776  22.395  0.00  0.00    +0.000 C 
BRANCH  27  28
ATOM     28  C   UNL     1      -6.082  16.668  22.511  0.00  0.00    +0.000 C 
BRANCH  28  29
ATOM     29  O   UNL     1      -7.058  16.001  23.309  0.00  0.00    +0.000 OA
BRANCH  29  30
ATOM     30  C   UNL     1      -7.335  14.711  22.948  0.00  0.00    +0.000 A 
ATOM     31  C   UNL     1      -7.255  13.773  23.980  0.00  0.00    +0.000 A 
ATOM     32  C   UNL     1      -7.472  12.418  23.725  0.00  0.00    +0.000 A 
ATOM     33  C   UNL     1      -7.799  11.996  22.438  0.00  0.00    +0.000 A 
ATOM     34  C   UNL     1      -7.908  12.931  21.409  0.00  0.00    +0.000 A 
ATOM     35  C   UNL     1      -7.675  14.286  21.662  0.00  0.00    +0.000 A 
ENDBRANCH  29  30
ENDBRANCH  28  29
ENDBRANCH  27  28
ENDBRANCH  24  26
ENDBRANCH   9  21
TORSDOF 6
ENDMDL
MODEL 7
REMARK VINA RESULT:      -7.8      4.093     11.359
REMARK  Name = 
REMARK  7 active torsions:
REMARK  status: ('A' for Active; 'I' for Inactive)
REMARK    1  A    between atoms: C_1  and  N_2
REMARK    2  A    between atoms: N_5  and  C_6
REMARK    3  A    between atoms: C_14  and  C_15
REMARK    4  A    between atoms: C_18  and  C_19
REMARK    5  A    between atoms: C_20  and  C_21
REMARK    6  A    between atoms: C_21  and  O_22
REMARK    7  A    between atoms: O_22  and  C_23
REMARK                            x       y       z     vdW  Elec       q    Type
REMARK                         _______ _______ _______ _____ _____    ______ ____
ROOT
ATOM      1  C   UNL     1      -3.463  13.307  22.033  0.00  0.00    +0.000 A 
ATOM      2  C   UNL     1      -3.142  12.805  23.320  0.00  0.00    +0.000 A 
ATOM      3  C   UNL     1      -2.175  11.826  23.530  0.00  0.00    +0.000 A 
ATOM      4  C   UNL     1      -1.512  11.366  22.426  0.00  0.00    +0.000 A 
ATOM      5  C   UNL     1      -1.780  11.843  21.116  0.00  0.00    +0.000 A 
ATOM      6  C   UNL     1      -2.768  12.803  20.919  0.00  0.00    +0.000 A 
ATOM      7  C   UNL     1      -0.886  11.187  20.045  0.00  0.00    +0.000 C 
ATOM      8  C   UNL     1      -0.125  10.277  20.959  0.00  0.00    +0.000 A 
ATOM      9  C   UNL     1       0.860   9.274  20.964  0.00  0.00    +0.000 A 
ATOM     10  N   UNL     1       1.059   8.793  22.205  0.00  0.00    +0.000 NA
ATOM     11  N   UNL     1       0.212   9.513  22.989  0.00  0.00    +0.000 N 
ATOM     12  C   UNL     1      -0.489  10.396  22.262  0.00  0.00    +0.000 A 
ATOM     13  H   UNL     1       0.184   9.314  23.980  0.00  0.00    +0.000 HD
ENDROOT
BRANCH   1  18
ATOM     14  C   UNL     1      -6.924  17.643  22.541  0.00  0.00    +0.000 C 
ATOM     15  N   UNL     1      -6.378  16.406  21.986  0.00  0.00    +0.000 NA
ATOM     16  C   UNL     1      -6.409  15.315  22.988  0.00  0.00    +0.000 C 
ATOM     17  C   UNL     1      -5.830  13.991  22.434  0.00  0.00    +0.000 C 
ATOM     18  N   UNL     1      -4.479  14.232  21.930  0.00  0.00    +0.000 N 
ATOM     19  C   UNL     1      -4.376  15.318  20.942  0.00  0.00    +0.000 C 
ATOM     20  C   UNL     1      -4.986  16.606  21.529  0.00  0.00    +0.000 C 
ENDBRANCH   1  18
BRANCH   9  21
ATOM     21  C   UNL     1       1.567   8.765  19.789  0.00  0.00    +0.000 A 
ATOM     22  C   UNL     1       1.834   9.486  18.647  0.00  0.00    +0.000 A 
ATOM     23  S   UNL     1       2.661   8.560  17.475  0.00  0.00    +0.000 S 
ATOM     24  C   UNL     1       2.645   7.172  18.473  0.00  0.00    +0.000 A 
ATOM     25  C   UNL     1       2.043   7.417  19.685  0.00  0.00    +0.000 A 
BRANCH  24  26
ATOM     26  C   UNL     1       3.195   5.921  18.058  0.00  0.00    +0.000 C 
ATOM     27  C   UNL     1       3.670   4.771  17.671  0.00  0.00    +0.000 C 
BRANCH  27  28
ATOM     28  C   UNL     1       4.223   3.429  17.219  0.00  0.00    +0.000 C 
BRANCH  28  29
ATOM     29  O   UNL     1       4.171   2.520  18.317  0.00  0.00    +0.000 OA
BRANCH  29  30
ATOM     30  C   UNL     1       3.091   2.658  19.147  0.00  0.00    +0.000 A 
ATOM     31  C   UNL     1       3.397   2.925  20.484  0.00  0.00    +0.000 A 
ATOM     32  C   UNL     1       2.381   3.041  21.433  0.00  0.00    +0.000 A 
ATOM     33  C   UNL     1       1.049   2.920  21.045  0.00  0.00    +0.000 A 
ATOM     34  C   UNL     1       0.736   2.681  19.707  0.00  0.00    +0.000 A 
ATOM     35  C   UNL     1       1.754   2.548  18.759  0.00  0.00    +0.000 A 
ENDBRANCH  29  30
ENDBRANCH  28  29
ENDBRANCH  27  28
ENDBRANCH  24  26
ENDBRANCH   9  21
TORSDOF 6
ENDMDL
MODEL 8
REMARK VINA RESULT:      -7.7      4.113      6.787
REMARK  Name = 
REMARK  7 active torsions:
REMARK  status: ('A' for Active; 'I' for Inactive)
REMARK    1  A    between atoms: C_1  and  N_2
REMARK    2  A    between atoms: N_5  and  C_6
REMARK    3  A    between atoms: C_14  and  C_15
REMARK    4  A    between atoms: C_18  and  C_19
REMARK    5  A    between atoms: C_20  and  C_21
REMARK    6  A    between atoms: C_21  and  O_22
REMARK    7  A    between atoms: O_22  and  C_23
REMARK                            x       y       z     vdW  Elec       q    Type
REMARK                         _______ _______ _______ _____ _____    ______ ____
ROOT
ATOM      1  C   UNL     1       3.584   6.470  18.115  0.00  0.00    +0.000 A 
ATOM      2  C   UNL     1       3.241   5.817  19.326  0.00  0.00    +0.000 A 
ATOM      3  C   UNL     1       2.392   6.380  20.274  0.00  0.00    +0.000 A 
ATOM      4  C   UNL     1       1.868   7.609  19.981  0.00  0.00    +0.000 A 
ATOM      5  C   UNL     1       2.164   8.303  18.779  0.00  0.00    +0.000 A 
ATOM      6  C   UNL     1       3.036   7.739  17.853  0.00  0.00    +0.000 A 
ATOM      7  C   UNL     1       1.434   9.657  18.673  0.00  0.00    +0.000 C 
ATOM      8  C   UNL     1       0.731   9.602  19.994  0.00  0.00    +0.000 A 
ATOM      9  C   UNL     1      -0.119  10.341  20.835  0.00  0.00    +0.000 A 
ATOM     10  N   UNL     1      -0.341   9.695  21.994  0.00  0.00    +0.000 NA
ATOM     11  N   UNL     1       0.354   8.532  21.873  0.00  0.00    +0.000 N 
ATOM     12  C   UNL     1       0.988   8.466  20.693  0.00  0.00    +0.000 A 
ATOM     13  H   UNL     1       0.338   7.877  22.644  0.00  0.00    +0.000 HD
ENDROOT
BRANCH   1  18
ATOM     14  C   UNL     1       6.184   3.801  13.972  0.00  0.00    +0.000 C 
ATOM     15  N   UNL     1       6.040   4.534  15.229  0.00  0.00    +0.000 NA
ATOM     16  C   UNL     1       5.218   3.772  16.197  0.00  0.00    +0.000 C 
ATOM     17  C   UNL     1       5.039   4.525  17.538  0.00  0.00    +0.000 C 
ATOM     18  N   UNL     1       4.482   5.851  17.273  0.00  0.00    +0.000 N 
ATOM     19  C   UNL     1       5.243   6.655  16.303  0.00  0.00    +0.000 C 
ATOM     20  C   UNL     1       5.416   5.854  14.996  0.00  0.00    +0.000 C 
ENDBRANCH   1  18
BRANCH   9  21
ATOM     21  C   UNL     1      -0.675  11.662  20.540  0.00  0.00    +0.000 A 
ATOM     22  C   UNL     1      -1.981  12.041  20.757  0.00  0.00    +0.000 A 
ATOM     23  S   UNL     1      -2.277  13.652  20.274  0.00  0.00    +0.000 S 
ATOM     24  C   UNL     1      -0.664  13.850  19.741  0.00  0.00    +0.000 A 
ATOM     25  C   UNL     1       0.090  12.720  19.949  0.00  0.00    +0.000 A 
BRANCH  24  26
ATOM     26  C   UNL     1      -0.196  15.061  19.146  0.00  0.00    +0.000 C 
ATOM     27  C   UNL     1       0.233  16.179  18.629  0.00  0.00    +0.000 C 
BRANCH  27  28
ATOM     28  C   UNL     1       0.733  17.482  18.027  0.00  0.00    +0.000 C 
BRANCH  28  29
ATOM     29  O   UNL     1       1.954  17.844  18.670  0.00  0.00    +0.000 OA
BRANCH  29  30
ATOM     30  C   UNL     1       2.922  16.876  18.687  0.00  0.00    +0.000 A 
ATOM     31  C   UNL     1       3.428  16.560  19.950  0.00  0.00    +0.000 A 
ATOM     32  C   UNL     1       4.450  15.620  20.090  0.00  0.00    +0.000 A 
ATOM     33  C   UNL     1       4.954  14.968  18.966  0.00  0.00    +0.000 A 
ATOM     34  C   UNL     1       4.433  15.260  17.705  0.00  0.00    +0.000 A 
ATOM     35  C   UNL     1       3.421  16.212  17.564  0.00  0.00    +0.000 A 
ENDBRANCH  29  30
ENDBRANCH  28  29
ENDBRANCH  27  28
ENDBRANCH  24  26
ENDBRANCH   9  21
TORSDOF 6
ENDMDL
MODEL 9
REMARK VINA RESULT:      -7.7      2.606      3.644
REMARK  Name = 
REMARK  7 active torsions:
REMARK  status: ('A' for Active; 'I' for Inactive)
REMARK    1  A    between atoms: C_1  and  N_2
REMARK    2  A    between atoms: N_5  and  C_6
REMARK    3  A    between atoms: C_14  and  C_15
REMARK    4  A    between atoms: C_18  and  C_19
REMARK    5  A    between atoms: C_20  and  C_21
REMARK    6  A    between atoms: C_21  and  O_22
REMARK    7  A    between atoms: O_22  and  C_23
REMARK                            x       y       z     vdW  Elec       q    Type
REMARK                         _______ _______ _______ _____ _____    ______ ____
ROOT
ATOM      1  C   UNL     1       4.098   5.955  17.731  0.00  0.00    +0.000 A 
ATOM      2  C   UNL     1       3.841   5.339  18.982  0.00  0.00    +0.000 A 
ATOM      3  C   UNL     1       3.023   5.912  19.951  0.00  0.00    +0.000 A 
ATOM      4  C   UNL     1       2.442   7.110  19.640  0.00  0.00    +0.000 A 
ATOM      5  C   UNL     1       2.651   7.764  18.398  0.00  0.00    +0.000 A 
ATOM      6  C   UNL     1       3.493   7.193  17.449  0.00  0.00    +0.000 A 
ATOM      7  C   UNL     1       1.869   9.088  18.279  0.00  0.00    +0.000 C 
ATOM      8  C   UNL     1       1.238   9.063  19.636  0.00  0.00    +0.000 A 
ATOM      9  C   UNL     1       0.407   9.807  20.492  0.00  0.00    +0.000 A 
ATOM     10  N   UNL     1       0.268   9.201  21.685  0.00  0.00    +0.000 NA
ATOM     11  N   UNL     1       0.996   8.058  21.573  0.00  0.00    +0.000 N 
ATOM     12  C   UNL     1       1.570   7.965  20.364  0.00  0.00    +0.000 A 
ATOM     13  H   UNL     1       1.043   7.435  22.368  0.00  0.00    +0.000 HD
ENDROOT
BRANCH   1  18
ATOM     14  C   UNL     1       7.221   4.323  13.414  0.00  0.00    +0.000 C 
ATOM     15  N   UNL     1       6.714   4.345  14.785  0.00  0.00    +0.000 NA
ATOM     16  C   UNL     1       5.273   4.005  14.824  0.00  0.00    +0.000 C 
ATOM     17  C   UNL     1       4.703   4.027  16.264  0.00  0.00    +0.000 C 
ATOM     18  N   UNL     1       4.972   5.332  16.866  0.00  0.00    +0.000 N 
ATOM     19  C   UNL     1       6.386   5.739  16.843  0.00  0.00    +0.000 C 
ATOM     20  C   UNL     1       6.915   5.677  15.396  0.00  0.00    +0.000 C 
ENDBRANCH   1  18
BRANCH   9  21
ATOM     21  C   UNL     1      -0.209  11.096  20.177  0.00  0.00    +0.000 A 
ATOM     22  C   UNL     1       0.406  12.129  19.505  0.00  0.00    +0.000 A 
ATOM     23  S   UNL     1      -0.612  13.488  19.335  0.00  0.00    +0.000 S 
ATOM     24  C   UNL     1      -1.881  12.719  20.185  0.00  0.00    +0.000 A 
ATOM     25  C   UNL     1      -1.543  11.443  20.569  0.00  0.00    +0.000 A 
BRANCH  24  26
ATOM     26  C   UNL     1      -3.127  13.363  20.451  0.00  0.00    +0.000 C 
ATOM     27  C   UNL     1      -4.278  13.933  20.676  0.00  0.00    +0.000 C 
BRANCH  27  28
ATOM     28  C   UNL     1      -5.620  14.597  20.938  0.00  0.00    +0.000 C 
BRANCH  28  29
ATOM     29  O   UNL     1      -6.518  14.244  19.887  0.00  0.00    +0.000 OA
BRANCH  29  30
ATOM     30  C   UNL     1      -6.696  12.901  19.689  0.00  0.00    +0.000 A 
ATOM     31  C   UNL     1      -7.319  12.222  20.740  0.00  0.00    +0.000 A 
ATOM     32  C   UNL     1      -7.515  10.841  20.672  0.00  0.00    +0.000 A 
ATOM     33  C   UNL     1      -7.115  10.136  19.540  0.00  0.00    +0.000 A 
ATOM     34  C   UNL     1      -6.518  10.814  18.477  0.00  0.00    +0.000 A 
ATOM     35  C   UNL     1      -6.307  12.193  18.551  0.00  0.00    +0.000 A 
ENDBRANCH  29  30
ENDBRANCH  28  29
ENDBRANCH  27  28
ENDBRANCH  24  26
ENDBRANCH   9  21
TORSDOF 6
ENDMDL
