MODEL 1
REMARK VINA RESULT:      -8.9      0.000      0.000
REMARK  Name = 
REMARK  7 active torsions:
REMARK  status: ('A' for Active; 'I' for Inactive)
REMARK    1  A    between atoms: C_1  and  C_2
REMARK    2  A    between atoms: C_4  and  N_5
REMARK    3  A    between atoms: N_5  and  C_6
REMARK    4  A    between atoms: C_15  and  S_16
REMARK    5  A    between atoms: S_16  and  C_17
REMARK    6  A    between atoms: C_17  and  C_18
REMARK    7  A    between atoms: C_21  and  C_22
REMARK                            x       y       z     vdW  Elec       q    Type
REMARK                         _______ _______ _______ _____ _____    ______ ____
ROOT
ATOM      1  C   UNL     1       0.441   2.148  19.034  0.00  0.00    +0.000 C 
ATOM      2  C   UNL     1       1.610   3.096  19.144  0.00  0.00    +0.000 A 
ATOM      3  C   UNL     1       1.363   4.378  19.867  0.00  0.00    +0.000 A 
ATOM      4  C   UNL     1       2.405   5.212  20.017  0.00  0.00    +0.000 A 
ATOM      5  N   UNL     1       3.645   4.833  19.449  0.00  0.00    +0.000 N 
ATOM      6  N   UNL     1       4.819   5.515  19.424  0.00  0.00    +0.000 NA
ATOM      7  C   UNL     1       5.589   4.722  18.666  0.00  0.00    +0.000 A 
ATOM      8  N   UNL     1       5.008   3.565  18.252  0.00  0.00    +0.000 NA
ATOM      9  C   UNL     1       3.781   3.632  18.740  0.00  0.00    +0.000 A 
ATOM     10  N   UNL     1       2.749   2.749  18.611  0.00  0.00    +0.000 NA
ENDROOT
BRANCH   4  11
ATOM     11  N   UNL     1       2.298   6.414  20.717  0.00  0.00    +0.000 N 
ATOM     12  H   UNL     1       3.024   6.549  21.424  0.00  0.00    +0.000 HD
BRANCH  11  13
ATOM     13  C   UNL     1       1.894   7.629  20.116  0.00  0.00    +0.000 A 
ATOM     14  C   UNL     1       1.150   8.549  20.869  0.00  0.00    +0.000 A 
ATOM     15  C   UNL     1       0.612   9.693  20.269  0.00  0.00    +0.000 A 
ATOM     16  C   UNL     1       0.851   9.941  18.924  0.00  0.00    +0.000 A 
ATOM     17  F   UNL     1       0.308  11.019  18.342  0.00  0.00    +0.000 F 
ATOM     18  C   UNL     1       1.636   9.081  18.172  0.00  0.00    +0.000 A 
ATOM     19  C   UNL     1       2.158   7.929  18.768  0.00  0.00    +0.000 A 
ENDBRANCH  11  13
ENDBRANCH   4  11
BRANCH   7  20
ATOM     20  S   UNL     1       7.245   5.191  18.344  0.00  0.00    +0.000 S 
BRANCH  20  21
ATOM     21  C   UNL     1       7.108   6.276  16.897  0.00  0.00    +0.000 C 
BRANCH  21  22
ATOM     22  C   UNL     1       6.816   5.478  15.628  0.00  0.00    +0.000 A 
ATOM     23  C   UNL     1       5.636   4.729  15.511  0.00  0.00    +0.000 A 
ATOM     24  C   UNL     1       5.364   3.978  14.353  0.00  0.00    +0.000 A 
ATOM     25  C   UNL     1       6.274   3.963  13.283  0.00  0.00    +0.000 A 
ATOM     26  C   UNL     1       7.456   4.705  13.400  0.00  0.00    +0.000 A 
ATOM     27  C   UNL     1       7.724   5.453  14.559  0.00  0.00    +0.000 A 
BRANCH  25  28
ATOM     28  C   UNL     1       5.995   3.171  12.026  0.00  0.00    +0.000 C 
ATOM     29  F   UNL     1       5.310   2.014  12.244  0.00  0.00    +0.000 F 
ATOM     30  F   UNL     1       5.253   3.875  11.125  0.00  0.00    +0.000 F 
ATOM     31  F   UNL     1       7.132   2.810  11.367  0.00  0.00    +0.000 F 
ENDBRANCH  25  28
ENDBRANCH  21  22
ENDBRANCH  20  21
ENDBRANCH   7  20
TORSDOF 6
ENDMDL
MODEL 2
REMARK VINA RESULT:      -8.8      0.519      1.020
REMARK  Name = 
REMARK  7 active torsions:
REMARK  status: ('A' for Active; 'I' for Inactive)
REMARK    1  A    between atoms: C_1  and  C_2
REMARK    2  A    between atoms: C_4  and  N_5
REMARK    3  A    between atoms: N_5  and  C_6
REMARK    4  A    between atoms: C_15  and  S_16
REMARK    5  A    between atoms: S_16  and  C_17
REMARK    6  A    between atoms: C_17  and  C_18
REMARK    7  A    between atoms: C_21  and  C_22
REMARK                            x       y       z     vdW  Elec       q    Type
REMARK                         _______ _______ _______ _____ _____    ______ ____
ROOT
ATOM      1  C   UNL     1       0.604   2.072  19.150  0.00  0.00    +0.000 C 
ATOM      2  C   UNL     1       1.714   3.086  19.294  0.00  0.00    +0.000 A 
ATOM      3  C   UNL     1       1.363   4.365  19.978  0.00  0.00    +0.000 A 
ATOM      4  C   UNL     1       2.350   5.258  20.159  0.00  0.00    +0.000 A 
ATOM      5  N   UNL     1       3.635   4.937  19.658  0.00  0.00    +0.000 N 
ATOM      6  N   UNL     1       4.770   5.682  19.672  0.00  0.00    +0.000 NA
ATOM      7  C   UNL     1       5.617   4.919  18.968  0.00  0.00    +0.000 A 
ATOM      8  N   UNL     1       5.119   3.725  18.551  0.00  0.00    +0.000 NA
ATOM      9  C   UNL     1       3.870   3.732  18.981  0.00  0.00    +0.000 A 
ATOM     10  N   UNL     1       2.894   2.792  18.821  0.00  0.00    +0.000 NA
ENDROOT
BRANCH   4  11
ATOM     11  N   UNL     1       2.146   6.464  20.828  0.00  0.00    +0.000 N 
ATOM     12  H   UNL     1       2.794   6.625  21.603  0.00  0.00    +0.000 HD
BRANCH  11  13
ATOM     13  C   UNL     1       1.776   7.662  20.173  0.00  0.00    +0.000 A 
ATOM     14  C   UNL     1       2.124   7.839  18.826  0.00  0.00    +0.000 A 
ATOM     15  C   UNL     1       1.904   9.064  18.187  0.00  0.00    +0.000 A 
ATOM     16  C   UNL     1       1.298  10.103  18.881  0.00  0.00    +0.000 A 
ATOM     17  F   UNL     1       1.118  11.287  18.280  0.00  0.00    +0.000 F 
ATOM     18  C   UNL     1       0.887   9.934  20.195  0.00  0.00    +0.000 A 
ATOM     19  C   UNL     1       1.125   8.716  20.837  0.00  0.00    +0.000 A 
ENDBRANCH  11  13
ENDBRANCH   4  11
BRANCH   7  20
ATOM     20  S   UNL     1       7.258   5.472  18.713  0.00  0.00    +0.000 S 
BRANCH  20  21
ATOM     21  C   UNL     1       7.126   6.548  17.259  0.00  0.00    +0.000 C 
BRANCH  21  22
ATOM     22  C   UNL     1       6.762   5.751  16.007  0.00  0.00    +0.000 A 
ATOM     23  C   UNL     1       5.439   5.346  15.779  0.00  0.00    +0.000 A 
ATOM     24  C   UNL     1       5.096   4.598  14.639  0.00  0.00    +0.000 A 
ATOM     25  C   UNL     1       6.076   4.240  13.698  0.00  0.00    +0.000 A 
ATOM     26  C   UNL     1       7.399   4.639  13.927  0.00  0.00    +0.000 A 
ATOM     27  C   UNL     1       7.738   5.385  15.068  0.00  0.00    +0.000 A 
BRANCH  25  28
ATOM     28  C   UNL     1       5.725   3.447  12.460  0.00  0.00    +0.000 C 
ATOM     29  F   UNL     1       5.839   2.098  12.619  0.00  0.00    +0.000 F 
ATOM     30  F   UNL     1       4.442   3.663  12.053  0.00  0.00    +0.000 F 
ATOM     31  F   UNL     1       6.510   3.762  11.392  0.00  0.00    +0.000 F 
ENDBRANCH  25  28
ENDBRANCH  21  22
ENDBRANCH  20  21
ENDBRANCH   7  20
TORSDOF 6
ENDMDL
MODEL 3
REMARK VINA RESULT:      -8.6      5.338      8.190
REMARK  Name = 
REMARK  7 active torsions:
REMARK  status: ('A' for Active; 'I' for Inactive)
REMARK    1  A    between atoms: C_1  and  C_2
REMARK    2  A    between atoms: C_4  and  N_5
REMARK    3  A    between atoms: N_5  and  C_6
REMARK    4  A    between atoms: C_15  and  S_16
REMARK    5  A    between atoms: S_16  and  C_17
REMARK    6  A    between atoms: C_17  and  C_18
REMARK    7  A    between atoms: C_21  and  C_22
REMARK                            x       y       z     vdW  Elec       q    Type
REMARK                         _______ _______ _______ _____ _____    ______ ____
ROOT
ATOM      1  C   UNL     1       5.612   3.638  13.180  0.00  0.00    +0.000 C 
ATOM      2  C   UNL     1       5.923   4.209  14.542  0.00  0.00    +0.000 A 
ATOM      3  C   UNL     1       5.338   3.495  15.715  0.00  0.00    +0.000 A 
ATOM      4  C   UNL     1       5.645   3.960  16.937  0.00  0.00    +0.000 A 
ATOM      5  N   UNL     1       6.466   5.110  17.021  0.00  0.00    +0.000 N 
ATOM      6  N   UNL     1       6.874   5.793  18.123  0.00  0.00    +0.000 NA
ATOM      7  C   UNL     1       7.523   6.833  17.585  0.00  0.00    +0.000 A 
ATOM      8  N   UNL     1       7.603   6.836  16.228  0.00  0.00    +0.000 NA
ATOM      9  C   UNL     1       6.935   5.754  15.867  0.00  0.00    +0.000 A 
ATOM     10  N   UNL     1       6.672   5.276  14.617  0.00  0.00    +0.000 NA
ENDROOT
BRANCH   4  11
ATOM     11  N   UNL     1       5.192   3.341  18.101  0.00  0.00    +0.000 N 
ATOM     12  H   UNL     1       5.918   3.205  18.809  0.00  0.00    +0.000 HD
BRANCH  11  13
ATOM     13  C   UNL     1       3.921   3.592  18.670  0.00  0.00    +0.000 A 
ATOM     14  C   UNL     1       3.076   4.534  18.065  0.00  0.00    +0.000 A 
ATOM     15  C   UNL     1       1.876   4.912  18.677  0.00  0.00    +0.000 A 
ATOM     16  C   UNL     1       1.497   4.319  19.874  0.00  0.00    +0.000 A 
ATOM     17  F   UNL     1       0.365   4.706  20.477  0.00  0.00    +0.000 F 
ATOM     18  C   UNL     1       2.284   3.340  20.462  0.00  0.00    +0.000 A 
ATOM     19  C   UNL     1       3.492   2.976  19.859  0.00  0.00    +0.000 A 
ENDBRANCH  11  13
ENDBRANCH   4  11
BRANCH   7  20
ATOM     20  S   UNL     1       8.254   8.025  18.640  0.00  0.00    +0.000 S 
BRANCH  20  21
ATOM     21  C   UNL     1       8.350   9.511  17.605  0.00  0.00    +0.000 C 
BRANCH  21  22
ATOM     22  C   UNL     1       8.885  10.705  18.393  0.00  0.00    +0.000 A 
ATOM     23  C   UNL     1       8.818  12.000  17.860  0.00  0.00    +0.000 A 
ATOM     24  C   UNL     1       9.322  13.104  18.571  0.00  0.00    +0.000 A 
ATOM     25  C   UNL     1       9.906  12.932  19.837  0.00  0.00    +0.000 A 
ATOM     26  C   UNL     1       9.979  11.638  20.369  0.00  0.00    +0.000 A 
ATOM     27  C   UNL     1       9.475  10.538  19.655  0.00  0.00    +0.000 A 
BRANCH  25  28
ATOM     28  C   UNL     1      10.443  14.108  20.622  0.00  0.00    +0.000 C 
ATOM     29  F   UNL     1      11.754  14.383  20.373  0.00  0.00    +0.000 F 
ATOM     30  F   UNL     1       9.766  15.261  20.354  0.00  0.00    +0.000 F 
ATOM     31  F   UNL     1      10.350  13.928  21.970  0.00  0.00    +0.000 F 
ENDBRANCH  25  28
ENDBRANCH  21  22
ENDBRANCH  20  21
ENDBRANCH   7  20
TORSDOF 6
ENDMDL
MODEL 4
REMARK VINA RESULT:      -8.5      1.930      7.693
REMARK  Name = 
REMARK  7 active torsions:
REMARK  status: ('A' for Active; 'I' for Inactive)
REMARK    1  A    between atoms: C_1  and  C_2
REMARK    2  A    between atoms: C_4  and  N_5
REMARK    3  A    between atoms: N_5  and  C_6
REMARK    4  A    between atoms: C_15  and  S_16
REMARK    5  A    between atoms: S_16  and  C_17
REMARK    6  A    between atoms: C_17  and  C_18
REMARK    7  A    between atoms: C_21  and  C_22
REMARK                            x       y       z     vdW  Elec       q    Type
REMARK                         _______ _______ _______ _____ _____    ______ ____
ROOT
ATOM      1  C   UNL     1       8.474   7.296  18.946  0.00  0.00    +0.000 C 
ATOM      2  C   UNL     1       7.409   6.346  18.454  0.00  0.00    +0.000 A 
ATOM      3  C   UNL     1       6.939   6.539  17.051  0.00  0.00    +0.000 A 
ATOM      4  C   UNL     1       6.028   5.672  16.581  0.00  0.00    +0.000 A 
ATOM      5  N   UNL     1       5.555   4.667  17.458  0.00  0.00    +0.000 N 
ATOM      6  N   UNL     1       4.612   3.713  17.239  0.00  0.00    +0.000 NA
ATOM      7  C   UNL     1       4.511   3.136  18.443  0.00  0.00    +0.000 A 
ATOM      8  N   UNL     1       5.353   3.617  19.395  0.00  0.00    +0.000 NA
ATOM      9  C   UNL     1       6.012   4.584  18.780  0.00  0.00    +0.000 A 
ATOM     10  N   UNL     1       6.967   5.426  19.268  0.00  0.00    +0.000 NA
ENDROOT
BRANCH   4  11
ATOM     11  N   UNL     1       5.555   5.731  15.270  0.00  0.00    +0.000 N 
ATOM     12  H   UNL     1       5.314   6.675  14.957  0.00  0.00    +0.000 HD
BRANCH  11  13
ATOM     13  C   UNL     1       6.065   4.927  14.224  0.00  0.00    +0.000 A 
ATOM     14  C   UNL     1       7.319   5.234  13.675  0.00  0.00    +0.000 A 
ATOM     15  C   UNL     1       7.790   4.553  12.548  0.00  0.00    +0.000 A 
ATOM     16  C   UNL     1       7.028   3.535  11.990  0.00  0.00    +0.000 A 
ATOM     17  F   UNL     1       7.465   2.905  10.891  0.00  0.00    +0.000 F 
ATOM     18  C   UNL     1       5.814   3.169  12.551  0.00  0.00    +0.000 A 
ATOM     19  C   UNL     1       5.335   3.862  13.666  0.00  0.00    +0.000 A 
ENDBRANCH  11  13
ENDBRANCH   4  11
BRANCH   7  20
ATOM     20  S   UNL     1       3.391   1.808  18.665  0.00  0.00    +0.000 S 
BRANCH  20  21
ATOM     21  C   UNL     1       1.947   2.590  19.434  0.00  0.00    +0.000 C 
BRANCH  21  22
ATOM     22  C   UNL     1       1.937   4.099  19.194  0.00  0.00    +0.000 A 
ATOM     23  C   UNL     1       1.669   4.617  17.919  0.00  0.00    +0.000 A 
ATOM     24  C   UNL     1       1.674   6.004  17.684  0.00  0.00    +0.000 A 
ATOM     25  C   UNL     1       1.946   6.904  18.728  0.00  0.00    +0.000 A 
ATOM     26  C   UNL     1       2.219   6.388  20.001  0.00  0.00    +0.000 A 
ATOM     27  C   UNL     1       2.215   5.002  20.231  0.00  0.00    +0.000 A 
BRANCH  25  28
ATOM     28  C   UNL     1       1.944   8.398  18.497  0.00  0.00    +0.000 C 
ATOM     29  F   UNL     1       1.022   8.813  17.584  0.00  0.00    +0.000 F 
ATOM     30  F   UNL     1       1.676   9.097  19.637  0.00  0.00    +0.000 F 
ATOM     31  F   UNL     1       3.144   8.865  18.051  0.00  0.00    +0.000 F 
ENDBRANCH  25  28
ENDBRANCH  21  22
ENDBRANCH  20  21
ENDBRANCH   7  20
TORSDOF 6
ENDMDL
MODEL 5
REMARK VINA RESULT:      -8.4      0.661      1.421
REMARK  Name = 
REMARK  7 active torsions:
REMARK  status: ('A' for Active; 'I' for Inactive)
REMARK    1  A    between atoms: C_1  and  C_2
REMARK    2  A    between atoms: C_4  and  N_5
REMARK    3  A    between atoms: N_5  and  C_6
REMARK    4  A    between atoms: C_15  and  S_16
REMARK    5  A    between atoms: S_16  and  C_17
REMARK    6  A    between atoms: C_17  and  C_18
REMARK    7  A    between atoms: C_21  and  C_22
REMARK                            x       y       z     vdW  Elec       q    Type
REMARK                         _______ _______ _______ _____ _____    ______ ____
ROOT
ATOM      1  C   UNL     1       0.313   2.765  19.282  0.00  0.00    +0.000 C 
ATOM      2  C   UNL     1       1.583   3.579  19.237  0.00  0.00    +0.000 A 
ATOM      3  C   UNL     1       1.505   4.968  19.778  0.00  0.00    +0.000 A 
ATOM      4  C   UNL     1       2.638   5.689  19.791  0.00  0.00    +0.000 A 
ATOM      5  N   UNL     1       3.808   5.096  19.259  0.00  0.00    +0.000 N 
ATOM      6  N   UNL     1       5.050   5.629  19.117  0.00  0.00    +0.000 NA
ATOM      7  C   UNL     1       5.700   4.656  18.465  0.00  0.00    +0.000 A 
ATOM      8  N   UNL     1       4.980   3.528  18.227  0.00  0.00    +0.000 NA
ATOM      9  C   UNL     1       3.786   3.801  18.723  0.00  0.00    +0.000 A 
ATOM     10  N   UNL     1       2.658   3.034  18.737  0.00  0.00    +0.000 NA
ENDROOT
BRANCH   4  11
ATOM     11  N   UNL     1       2.690   6.980  20.317  0.00  0.00    +0.000 N 
ATOM     12  H   UNL     1       3.638   7.347  20.427  0.00  0.00    +0.000 HD
BRANCH  11  13
ATOM     13  C   UNL     1       1.753   7.989  19.993  0.00  0.00    +0.000 A 
ATOM     14  C   UNL     1       1.821   8.604  18.734  0.00  0.00    +0.000 A 
ATOM     15  C   UNL     1       1.006   9.701  18.431  0.00  0.00    +0.000 A 
ATOM     16  C   UNL     1       0.093  10.160  19.371  0.00  0.00    +0.000 A 
ATOM     17  F   UNL     1      -0.663  11.231  19.094  0.00  0.00    +0.000 F 
ATOM     18  C   UNL     1      -0.039   9.530  20.600  0.00  0.00    +0.000 A 
ATOM     19  C   UNL     1       0.788   8.446  20.907  0.00  0.00    +0.000 A 
ENDBRANCH  11  13
ENDBRANCH   4  11
BRANCH   7  20
ATOM     20  S   UNL     1       7.386   4.882  18.049  0.00  0.00    +0.000 S 
BRANCH  20  21
ATOM     21  C   UNL     1       7.327   5.966  16.597  0.00  0.00    +0.000 C 
BRANCH  21  22
ATOM     22  C   UNL     1       6.770   5.234  15.378  0.00  0.00    +0.000 A 
ATOM     23  C   UNL     1       7.582   4.982  14.263  0.00  0.00    +0.000 A 
ATOM     24  C   UNL     1       7.074   4.323  13.129  0.00  0.00    +0.000 A 
ATOM     25  C   UNL     1       5.735   3.899  13.090  0.00  0.00    +0.000 A 
ATOM     26  C   UNL     1       4.921   4.155  14.200  0.00  0.00    +0.000 A 
ATOM     27  C   UNL     1       5.432   4.814  15.330  0.00  0.00    +0.000 A 
BRANCH  25  28
ATOM     28  C   UNL     1       5.174   3.178  11.885  0.00  0.00    +0.000 C 
ATOM     29  F   UNL     1       3.830   2.964  11.948  0.00  0.00    +0.000 F 
ATOM     30  F   UNL     1       5.385   3.866  10.726  0.00  0.00    +0.000 F 
ATOM     31  F   UNL     1       5.737   1.952  11.695  0.00  0.00    +0.000 F 
ENDBRANCH  25  28
ENDBRANCH  21  22
ENDBRANCH  20  21
ENDBRANCH   7  20
TORSDOF 6
ENDMDL
MODEL 6
REMARK VINA RESULT:      -8.4      5.758      8.544
REMARK  Name = 
REMARK  7 active torsions:
REMARK  status: ('A' for Active; 'I' for Inactive)
REMARK    1  A    between atoms: C_1  and  C_2
REMARK    2  A    between atoms: C_4  and  N_5
REMARK    3  A    between atoms: N_5  and  C_6
REMARK    4  A    between atoms: C_15  and  S_16
REMARK    5  A    between atoms: S_16  and  C_17
REMARK    6  A    between atoms: C_17  and  C_18
REMARK    7  A    between atoms: C_21  and  C_22
REMARK                            x       y       z     vdW  Elec       q    Type
REMARK                         _______ _______ _______ _____ _____    ______ ____
ROOT
ATOM      1  C   UNL     1       5.685   3.971  13.877  0.00  0.00    +0.000 C 
ATOM      2  C   UNL     1       6.092   4.585  15.194  0.00  0.00    +0.000 A 
ATOM      3  C   UNL     1       5.651   3.869  16.427  0.00  0.00    +0.000 A 
ATOM      4  C   UNL     1       6.046   4.374  17.608  0.00  0.00    +0.000 A 
ATOM      5  N   UNL     1       6.816   5.562  17.597  0.00  0.00    +0.000 N 
ATOM      6  N   UNL     1       7.290   6.285  18.645  0.00  0.00    +0.000 NA
ATOM      7  C   UNL     1       7.838   7.342  18.032  0.00  0.00    +0.000 A 
ATOM      8  N   UNL     1       7.793   7.320  16.673  0.00  0.00    +0.000 NA
ATOM      9  C   UNL     1       7.147   6.201  16.394  0.00  0.00    +0.000 A 
ATOM     10  N   UNL     1       6.793   5.685  15.182  0.00  0.00    +0.000 NA
ENDROOT
BRANCH   4  11
ATOM     11  N   UNL     1       5.732   3.760  18.820  0.00  0.00    +0.000 N 
ATOM     12  H   UNL     1       6.422   3.919  19.558  0.00  0.00    +0.000 HD
BRANCH  11  13
ATOM     13  C   UNL     1       4.413   3.663  19.322  0.00  0.00    +0.000 A 
ATOM     14  C   UNL     1       3.751   4.830  19.733  0.00  0.00    +0.000 A 
ATOM     15  C   UNL     1       2.505   4.758  20.366  0.00  0.00    +0.000 A 
ATOM     16  C   UNL     1       1.899   3.523  20.554  0.00  0.00    +0.000 A 
ATOM     17  F   UNL     1       0.722   3.452  21.191  0.00  0.00    +0.000 F 
ATOM     18  C   UNL     1       2.503   2.360  20.102  0.00  0.00    +0.000 A 
ATOM     19  C   UNL     1       3.755   2.431  19.486  0.00  0.00    +0.000 A 
ENDBRANCH  11  13
ENDBRANCH   4  11
BRANCH   7  20
ATOM     20  S   UNL     1       8.605   8.588  18.994  0.00  0.00    +0.000 S 
BRANCH  20  21
ATOM     21  C   UNL     1       8.697  10.005  17.866  0.00  0.00    +0.000 C 
BRANCH  21  22
ATOM     22  C   UNL     1       9.255  11.241  18.569  0.00  0.00    +0.000 A 
ATOM     23  C   UNL     1       8.975  11.481  19.922  0.00  0.00    +0.000 A 
ATOM     24  C   UNL     1       9.470  12.624  20.575  0.00  0.00    +0.000 A 
ATOM     25  C   UNL     1      10.262  13.554  19.881  0.00  0.00    +0.000 A 
ATOM     26  C   UNL     1      10.539  13.319  18.529  0.00  0.00    +0.000 A 
ATOM     27  C   UNL     1      10.041  12.177  17.880  0.00  0.00    +0.000 A 
BRANCH  25  28
ATOM     28  C   UNL     1      10.814  14.783  20.568  0.00  0.00    +0.000 C 
ATOM     29  F   UNL     1      12.093  15.087  20.209  0.00  0.00    +0.000 F 
ATOM     30  F   UNL     1      10.079  15.899  20.301  0.00  0.00    +0.000 F 
ATOM     31  F   UNL     1      10.829  14.665  21.926  0.00  0.00    +0.000 F 
ENDBRANCH  25  28
ENDBRANCH  21  22
ENDBRANCH  20  21
ENDBRANCH   7  20
TORSDOF 6
ENDMDL
MODEL 7
REMARK VINA RESULT:      -8.2      4.473      6.228
REMARK  Name = 
REMARK  7 active torsions:
REMARK  status: ('A' for Active; 'I' for Inactive)
REMARK    1  A    between atoms: C_1  and  C_2
REMARK    2  A    between atoms: C_4  and  N_5
REMARK    3  A    between atoms: N_5  and  C_6
REMARK    4  A    between atoms: C_15  and  S_16
REMARK    5  A    between atoms: S_16  and  C_17
REMARK    6  A    between atoms: C_17  and  C_18
REMARK    7  A    between atoms: C_21  and  C_22
REMARK                            x       y       z     vdW  Elec       q    Type
REMARK                         _______ _______ _______ _____ _____    ______ ____
ROOT
ATOM      1  C   UNL     1       1.814   2.122  18.042  0.00  0.00    +0.000 C 
ATOM      2  C   UNL     1       2.744   3.261  18.380  0.00  0.00    +0.000 A 
ATOM      3  C   UNL     1       2.176   4.362  19.211  0.00  0.00    +0.000 A 
ATOM      4  C   UNL     1       3.004   5.360  19.564  0.00  0.00    +0.000 A 
ATOM      5  N   UNL     1       4.338   5.312  19.093  0.00  0.00    +0.000 N 
ATOM      6  N   UNL     1       5.341   6.211  19.268  0.00  0.00    +0.000 NA
ATOM      7  C   UNL     1       6.319   5.692  18.514  0.00  0.00    +0.000 A 
ATOM      8  N   UNL     1       6.029   4.508  17.914  0.00  0.00    +0.000 NA
ATOM      9  C   UNL     1       4.781   4.265  18.273  0.00  0.00    +0.000 A 
ATOM     10  N   UNL     1       3.971   3.219  17.936  0.00  0.00    +0.000 NA
ENDROOT
BRANCH   4  11
ATOM     11  N   UNL     1       2.590   6.414  20.377  0.00  0.00    +0.000 N 
ATOM     12  H   UNL     1       3.215   6.600  21.166  0.00  0.00    +0.000 HD
BRANCH  11  13
ATOM     13  C   UNL     1       1.985   7.591  19.876  0.00  0.00    +0.000 A 
ATOM     14  C   UNL     1       2.178   7.938  18.531  0.00  0.00    +0.000 A 
ATOM     15  C   UNL     1       1.717   9.164  18.038  0.00  0.00    +0.000 A 
ATOM     16  C   UNL     1       1.025  10.027  18.877  0.00  0.00    +0.000 A 
ATOM     17  F   UNL     1       0.613  11.214  18.413  0.00  0.00    +0.000 F 
ATOM     18  C   UNL     1       0.766   9.680  20.194  0.00  0.00    +0.000 A 
ATOM     19  C   UNL     1       1.243   8.464  20.691  0.00  0.00    +0.000 A 
ENDBRANCH  11  13
ENDBRANCH   4  11
BRANCH   7  20
ATOM     20  S   UNL     1       7.860   6.518  18.423  0.00  0.00    +0.000 S 
BRANCH  20  21
ATOM     21  C   UNL     1       7.488   8.016  17.471  0.00  0.00    +0.000 C 
BRANCH  21  22
ATOM     22  C   UNL     1       8.226   9.230  18.032  0.00  0.00    +0.000 A 
ATOM     23  C   UNL     1       8.967   9.130  19.218  0.00  0.00    +0.000 A 
ATOM     24  C   UNL     1       9.637  10.245  19.751  0.00  0.00    +0.000 A 
ATOM     25  C   UNL     1       9.578  11.490  19.103  0.00  0.00    +0.000 A 
ATOM     26  C   UNL     1       8.834  11.594  17.921  0.00  0.00    +0.000 A 
ATOM     27  C   UNL     1       8.165  10.477  17.392  0.00  0.00    +0.000 A 
BRANCH  25  28
ATOM     28  C   UNL     1      10.301  12.698  19.655  0.00  0.00    +0.000 C 
ATOM     29  F   UNL     1      11.062  12.431  20.752  0.00  0.00    +0.000 F 
ATOM     30  F   UNL     1      11.149  13.255  18.743  0.00  0.00    +0.000 F 
ATOM     31  F   UNL     1       9.451  13.697  20.027  0.00  0.00    +0.000 F 
ENDBRANCH  25  28
ENDBRANCH  21  22
ENDBRANCH  20  21
ENDBRANCH   7  20
TORSDOF 6
ENDMDL
MODEL 8
REMARK VINA RESULT:      -8.1      4.124      9.061
REMARK  Name = 
REMARK  7 active torsions:
REMARK  status: ('A' for Active; 'I' for Inactive)
REMARK    1  A    between atoms: C_1  and  C_2
REMARK    2  A    between atoms: C_4  and  N_5
REMARK    3  A    between atoms: N_5  and  C_6
REMARK    4  A    between atoms: C_15  and  S_16
REMARK    5  A    between atoms: S_16  and  C_17
REMARK    6  A    between atoms: C_17  and  C_18
REMARK    7  A    between atoms: C_21  and  C_22
REMARK                            x       y       z     vdW  Elec       q    Type
REMARK                         _______ _______ _______ _____ _____    ______ ____
ROOT
ATOM      1  C   UNL     1       6.692   5.103  14.025  0.00  0.00    +0.000 C 
ATOM      2  C   UNL     1       5.811   5.100  15.251  0.00  0.00    +0.000 A 
ATOM      3  C   UNL     1       5.524   3.769  15.863  0.00  0.00    +0.000 A 
ATOM      4  C   UNL     1       4.783   3.752  16.983  0.00  0.00    +0.000 A 
ATOM      5  N   UNL     1       4.300   4.988  17.478  0.00  0.00    +0.000 N 
ATOM      6  N   UNL     1       3.502   5.228  18.551  0.00  0.00    +0.000 NA
ATOM      7  C   UNL     1       3.295   6.548  18.457  0.00  0.00    +0.000 A 
ATOM      8  N   UNL     1       3.941   7.171  17.436  0.00  0.00    +0.000 NA
ATOM      9  C   UNL     1       4.574   6.192  16.814  0.00  0.00    +0.000 A 
ATOM     10  N   UNL     1       5.359   6.239  15.699  0.00  0.00    +0.000 NA
ENDROOT
BRANCH   4  11
ATOM     11  N   UNL     1       4.495   2.570  17.664  0.00  0.00    +0.000 N 
ATOM     12  H   UNL     1       5.310   1.973  17.824  0.00  0.00    +0.000 HD
BRANCH  11  13
ATOM     13  C   UNL     1       3.549   2.489  18.713  0.00  0.00    +0.000 A 
ATOM     14  C   UNL     1       2.182   2.456  18.398  0.00  0.00    +0.000 A 
ATOM     15  C   UNL     1       1.216   2.520  19.408  0.00  0.00    +0.000 A 
ATOM     16  C   UNL     1       1.613   2.576  20.738  0.00  0.00    +0.000 A 
ATOM     17  F   UNL     1       0.688   2.672  21.703  0.00  0.00    +0.000 F 
ATOM     18  C   UNL     1       2.957   2.547  21.079  0.00  0.00    +0.000 A 
ATOM     19  C   UNL     1       3.921   2.501  20.068  0.00  0.00    +0.000 A 
ENDBRANCH  11  13
ENDBRANCH   4  11
BRANCH   7  20
ATOM     20  S   UNL     1       2.301   7.346  19.657  0.00  0.00    +0.000 S 
BRANCH  20  21
ATOM     21  C   UNL     1       1.746   8.856  18.819  0.00  0.00    +0.000 C 
BRANCH  21  22
ATOM     22  C   UNL     1       0.836   9.690  19.718  0.00  0.00    +0.000 A 
ATOM     23  C   UNL     1       0.411   9.195  20.960  0.00  0.00    +0.000 A 
ATOM     24  C   UNL     1      -0.440   9.948  21.789  0.00  0.00    +0.000 A 
ATOM     25  C   UNL     1      -0.884  11.219  21.388  0.00  0.00    +0.000 A 
ATOM     26  C   UNL     1      -0.466  11.712  20.146  0.00  0.00    +0.000 A 
ATOM     27  C   UNL     1       0.383  10.957  19.321  0.00  0.00    +0.000 A 
BRANCH  25  28
ATOM     28  C   UNL     1      -1.790  12.048  22.270  0.00  0.00    +0.000 C 
ATOM     29  F   UNL     1      -2.058  11.476  23.478  0.00  0.00    +0.000 F 
ATOM     30  F   UNL     1      -1.260  13.272  22.551  0.00  0.00    +0.000 F 
ATOM     31  F   UNL     1      -3.003  12.292  21.699  0.00  0.00    +0.000 F 
ENDBRANCH  25  28
ENDBRANCH  21  22
ENDBRANCH  20  21
ENDBRANCH   7  20
TORSDOF 6
ENDMDL
MODEL 9
REMARK VINA RESULT:      -8.1      4.989      6.618
REMARK  Name = 
REMARK  7 active torsions:
REMARK  status: ('A' for Active; 'I' for Inactive)
REMARK    1  A    between atoms: C_1  and  C_2
REMARK    2  A    between atoms: C_4  and  N_5
REMARK    3  A    between atoms: N_5  and  C_6
REMARK    4  A    between atoms: C_15  and  S_16
REMARK    5  A    between atoms: S_16  and  C_17
REMARK    6  A    between atoms: C_17  and  C_18
REMARK    7  A    between atoms: C_21  and  C_22
REMARK                            x       y       z     vdW  Elec       q    Type
REMARK                         _______ _______ _______ _____ _____    ______ ____
ROOT
ATOM      1  C   UNL     1       2.748   1.944  19.325  0.00  0.00    +0.000 C 
ATOM      2  C   UNL     1       3.491   3.218  19.001  0.00  0.00    +0.000 A 
ATOM      3  C   UNL     1       2.686   4.328  18.413  0.00  0.00    +0.000 A 
ATOM      4  C   UNL     1       3.320   5.486  18.164  0.00  0.00    +0.000 A 
ATOM      5  N   UNL     1       4.706   5.555  18.442  0.00  0.00    +0.000 N 
ATOM      6  N   UNL     1       5.571   6.583  18.236  0.00  0.00    +0.000 NA
ATOM      7  C   UNL     1       6.744   6.036  18.581  0.00  0.00    +0.000 A 
ATOM      8  N   UNL     1       6.683   4.757  19.037  0.00  0.00    +0.000 NA
ATOM      9  C   UNL     1       5.401   4.448  18.948  0.00  0.00    +0.000 A 
ATOM     10  N   UNL     1       4.771   3.276  19.248  0.00  0.00    +0.000 NA
ENDROOT
BRANCH   4  11
ATOM     11  N   UNL     1       2.655   6.603  17.660  0.00  0.00    +0.000 N 
ATOM     12  H   UNL     1       2.106   6.415  16.818  0.00  0.00    +0.000 HD
BRANCH  11  13
ATOM     13  C   UNL     1       2.064   7.592  18.482  0.00  0.00    +0.000 A 
ATOM     14  C   UNL     1       1.600   8.778  17.895  0.00  0.00    +0.000 A 
ATOM     15  C   UNL     1       1.143   9.835  18.691  0.00  0.00    +0.000 A 
ATOM     16  C   UNL     1       1.111   9.694  20.071  0.00  0.00    +0.000 A 
ATOM     17  F   UNL     1       0.706  10.718  20.834  0.00  0.00    +0.000 F 
ATOM     18  C   UNL     1       1.506   8.508  20.673  0.00  0.00    +0.000 A 
ATOM     19  C   UNL     1       1.979   7.460  19.879  0.00  0.00    +0.000 A 
ENDBRANCH  11  13
ENDBRANCH   4  11
BRANCH   7  20
ATOM     20  S   UNL     1       8.200   7.005  18.487  0.00  0.00    +0.000 S 
BRANCH  20  21
ATOM     21  C   UNL     1       7.648   8.529  17.674  0.00  0.00    +0.000 C 
BRANCH  21  22
ATOM     22  C   UNL     1       8.410   9.746  18.197  0.00  0.00    +0.000 A 
ATOM     23  C   UNL     1       8.325  10.979  17.535  0.00  0.00    +0.000 A 
ATOM     24  C   UNL     1       9.035  12.102  17.999  0.00  0.00    +0.000 A 
ATOM     25  C   UNL     1       9.848  12.010  19.141  0.00  0.00    +0.000 A 
ATOM     26  C   UNL     1       9.938  10.777  19.800  0.00  0.00    +0.000 A 
ATOM     27  C   UNL     1       9.229   9.659  19.333  0.00  0.00    +0.000 A 
BRANCH  25  28
ATOM     28  C   UNL     1      10.610  13.208  19.661  0.00  0.00    +0.000 C 
ATOM     29  F   UNL     1       9.982  13.860  20.680  0.00  0.00    +0.000 F 
ATOM     30  F   UNL     1      11.840  12.870  20.142  0.00  0.00    +0.000 F 
ATOM     31  F   UNL     1      10.833  14.149  18.700  0.00  0.00    +0.000 F 
ENDBRANCH  25  28
ENDBRANCH  21  22
ENDBRANCH  20  21
ENDBRANCH   7  20
TORSDOF 6
ENDMDL
