MODEL 1
REMARK VINA RESULT:      -9.1      0.000      0.000
REMARK  Name = 
REMARK  4 active torsions:
REMARK  status: ('A' for Active; 'I' for Inactive)
REMARK    1  A    between atoms: C_1  and  C_2
REMARK    2  A    between atoms: C_5  and  N_6
REMARK    3  A    between atoms: N_9  and  C_10
REMARK    4  A    between atoms: C_13  and  C_14
REMARK                            x       y       z     vdW  Elec       q    Type
REMARK                         _______ _______ _______ _____ _____    ______ ____
ROOT
ATOM      1  C   UNL     1       0.839   8.666  21.245  0.00  0.00    +0.000 A 
ATOM      2  C   UNL     1       0.228   9.063  22.439  0.00  0.00    +0.000 A 
ATOM      3  C   UNL     1      -0.461  10.290  22.523  0.00  0.00    +0.000 A 
ATOM      4  C   UNL     1      -0.594  11.143  21.413  0.00  0.00    +0.000 A 
ATOM      5  C   UNL     1      -0.008  10.701  20.213  0.00  0.00    +0.000 A 
ATOM      6  C   UNL     1       0.708   9.496  20.128  0.00  0.00    +0.000 A 
ENDROOT
BRANCH   4   7
ATOM      7  C   UNL     1      -1.294  12.445  21.506  0.00  0.00    +0.000 A 
ATOM      8  N   UNL     1      -2.237  12.591  22.431  0.00  0.00    +0.000 NA
ATOM      9  C   UNL     1      -2.849  13.770  22.456  0.00  0.00    +0.000 A 
ATOM     10  N   UNL     1      -3.845  14.015  23.358  0.00  0.00    +0.000 N 
ATOM     11  C   UNL     1      -4.249  13.022  24.345  0.00  0.00    +0.000 C 
ATOM     12  C   UNL     1      -5.706  12.594  24.119  0.00  0.00    +0.000 C 
ATOM     13  O   UNL     1      -6.586  13.729  24.045  0.00  0.00    +0.000 OA
ATOM     14  C   UNL     1      -6.205  14.583  22.954  0.00  0.00    +0.000 C 
ATOM     15  C   UNL     1      -4.779  15.125  23.137  0.00  0.00    +0.000 C 
ATOM     16  N   UNL     1      -2.517  14.758  21.632  0.00  0.00    +0.000 NA
ATOM     17  C   UNL     1      -1.549  14.554  20.763  0.00  0.00    +0.000 A 
ATOM     18  N   UNL     1      -1.208  15.593  19.935  0.00  0.00    +0.000 N 
ATOM     19  C   UNL     1      -0.163  15.467  18.931  0.00  0.00    +0.000 C 
ATOM     20  C   UNL     1       0.914  16.541  19.153  0.00  0.00    +0.000 C 
ATOM     21  O   UNL     1       0.343  17.858  19.241  0.00  0.00    +0.000 OA
ATOM     22  C   UNL     1      -0.586  17.927  20.337  0.00  0.00    +0.000 C 
ATOM     23  C   UNL     1      -1.745  16.934  20.154  0.00  0.00    +0.000 C 
ATOM     24  N   UNL     1      -0.909  13.403  20.654  0.00  0.00    +0.000 NA
ENDBRANCH   4   7
BRANCH   1  28
ATOM     25  N   UNL     1       2.971   5.935  20.055  0.00  0.00    +0.000 N 
ATOM     26  C   UNL     1       2.240   7.117  19.992  0.00  0.00    +0.000 C 
ATOM     27  O   UNL     1       2.131   7.817  18.983  0.00  0.00    +0.000 OA
ATOM     28  N   UNL     1       1.611   7.468  21.179  0.00  0.00    +0.000 N 
ATOM     29  H   UNL     1       2.860   5.339  20.867  0.00  0.00    +0.000 HD
ATOM     30  H   UNL     1       2.085   7.192  22.025  0.00  0.00    +0.000 HD
BRANCH  25  35
ATOM     31  C   UNL     1       5.980   3.699  15.654  0.00  0.00    +0.000 C 
ATOM     32  C   UNL     1       5.240   4.305  16.799  0.00  0.00    +0.000 A 
ATOM     33  C   UNL     1       5.860   5.037  17.801  0.00  0.00    +0.000 A 
ATOM     34  C   UNL     1       5.112   5.579  18.865  0.00  0.00    +0.000 A 
ATOM     35  C   UNL     1       3.729   5.398  18.959  0.00  0.00    +0.000 A 
ATOM     36  C   UNL     1       3.100   4.653  17.952  0.00  0.00    +0.000 A 
ATOM     37  C   UNL     1       3.844   4.123  16.882  0.00  0.00    +0.000 A 
ENDBRANCH  25  35
ENDBRANCH   1  28
TORSDOF 3
ENDMDL
MODEL 2
REMARK VINA RESULT:      -9.1      0.140      4.324
REMARK  Name = 
REMARK  4 active torsions:
REMARK  status: ('A' for Active; 'I' for Inactive)
REMARK    1  A    between atoms: C_1  and  C_2
REMARK    2  A    between atoms: C_5  and  N_6
REMARK    3  A    between atoms: N_9  and  C_10
REMARK    4  A    between atoms: C_13  and  C_14
REMARK                            x       y       z     vdW  Elec       q    Type
REMARK                         _______ _______ _______ _____ _____    ______ ____
ROOT
ATOM      1  C   UNL     1       0.811   8.673  21.269  0.00  0.00    +0.000 A 
ATOM      2  C   UNL     1       0.303   9.138  22.487  0.00  0.00    +0.000 A 
ATOM      3  C   UNL     1      -0.374  10.372  22.562  0.00  0.00    +0.000 A 
ATOM      4  C   UNL     1      -0.599  11.164  21.422  0.00  0.00    +0.000 A 
ATOM      5  C   UNL     1      -0.117  10.655  20.203  0.00  0.00    +0.000 A 
ATOM      6  C   UNL     1       0.587   9.442  20.123  0.00  0.00    +0.000 A 
ENDROOT
BRANCH   4   7
ATOM      7  C   UNL     1      -1.287  12.474  21.503  0.00  0.00    +0.000 A 
ATOM      8  N   UNL     1      -0.910  13.439  20.672  0.00  0.00    +0.000 NA
ATOM      9  C   UNL     1      -1.543  14.599  20.803  0.00  0.00    +0.000 A 
ATOM     10  N   UNL     1      -1.218  15.660  20.007  0.00  0.00    +0.000 N 
ATOM     11  C   UNL     1      -0.202  15.558  18.967  0.00  0.00    +0.000 C 
ATOM     12  C   UNL     1       0.976  16.496  19.265  0.00  0.00    +0.000 C 
ATOM     13  O   UNL     1       0.533  17.841  19.511  0.00  0.00    +0.000 OA
ATOM     14  C   UNL     1      -0.352  17.874  20.643  0.00  0.00    +0.000 C 
ATOM     15  C   UNL     1      -1.605  17.020  20.401  0.00  0.00    +0.000 C 
ATOM     16  N   UNL     1      -2.519  14.777  21.686  0.00  0.00    +0.000 NA
ATOM     17  C   UNL     1      -2.865  13.766  22.455  0.00  0.00    +0.000 A 
ATOM     18  N   UNL     1      -3.889  13.964  23.346  0.00  0.00    +0.000 N 
ATOM     19  C   UNL     1      -4.337  12.916  24.251  0.00  0.00    +0.000 C 
ATOM     20  C   UNL     1      -5.836  12.649  24.046  0.00  0.00    +0.000 C 
ATOM     21  O   UNL     1      -6.609  13.859  24.123  0.00  0.00    +0.000 OA
ATOM     22  C   UNL     1      -6.181  14.791  23.115  0.00  0.00    +0.000 C 
ATOM     23  C   UNL     1      -4.704  15.175  23.294  0.00  0.00    +0.000 C 
ATOM     24  N   UNL     1      -2.268  12.588  22.407  0.00  0.00    +0.000 NA
ENDBRANCH   4   7
BRANCH   1  28
ATOM     25  N   UNL     1       2.939   5.936  20.087  0.00  0.00    +0.000 N 
ATOM     26  C   UNL     1       2.221   7.126  20.024  0.00  0.00    +0.000 C 
ATOM     27  O   UNL     1       2.139   7.838  19.023  0.00  0.00    +0.000 OA
ATOM     28  N   UNL     1       1.573   7.468  21.204  0.00  0.00    +0.000 N 
ATOM     29  H   UNL     1       2.807   5.331  20.890  0.00  0.00    +0.000 HD
ATOM     30  H   UNL     1       2.027   7.177  22.055  0.00  0.00    +0.000 HD
BRANCH  25  35
ATOM     31  C   UNL     1       6.012   3.724  15.717  0.00  0.00    +0.000 C 
ATOM     32  C   UNL     1       5.256   4.323  16.856  0.00  0.00    +0.000 A 
ATOM     33  C   UNL     1       5.866   5.014  17.893  0.00  0.00    +0.000 A 
ATOM     34  C   UNL     1       5.103   5.550  18.949  0.00  0.00    +0.000 A 
ATOM     35  C   UNL     1       3.714   5.404  19.000  0.00  0.00    +0.000 A 
ATOM     36  C   UNL     1       3.094   4.701  17.958  0.00  0.00    +0.000 A 
ATOM     37  C   UNL     1       3.854   4.177  16.896  0.00  0.00    +0.000 A 
ENDBRANCH  25  35
ENDBRANCH   1  28
TORSDOF 3
ENDMDL
MODEL 3
REMARK VINA RESULT:      -9.1      0.207      1.157
REMARK  Name = 
REMARK  4 active torsions:
REMARK  status: ('A' for Active; 'I' for Inactive)
REMARK    1  A    between atoms: C_1  and  C_2
REMARK    2  A    between atoms: C_5  and  N_6
REMARK    3  A    between atoms: N_9  and  C_10
REMARK    4  A    between atoms: C_13  and  C_14
REMARK                            x       y       z     vdW  Elec       q    Type
REMARK                         _______ _______ _______ _____ _____    ______ ____
ROOT
ATOM      1  C   UNL     1       0.819   8.732  21.302  0.00  0.00    +0.000 A 
ATOM      2  C   UNL     1       0.513   9.475  20.157  0.00  0.00    +0.000 A 
ATOM      3  C   UNL     1      -0.184  10.697  20.256  0.00  0.00    +0.000 A 
ATOM      4  C   UNL     1      -0.565  11.235  21.498  0.00  0.00    +0.000 A 
ATOM      5  C   UNL     1      -0.207  10.490  22.636  0.00  0.00    +0.000 A 
ATOM      6  C   UNL     1       0.459   9.256  22.546  0.00  0.00    +0.000 A 
ENDROOT
BRANCH   4   7
ATOM      7  C   UNL     1      -1.320  12.504  21.603  0.00  0.00    +0.000 A 
ATOM      8  N   UNL     1      -2.268  12.603  22.528  0.00  0.00    +0.000 NA
ATOM      9  C   UNL     1      -2.930  13.754  22.563  0.00  0.00    +0.000 A 
ATOM     10  N   UNL     1      -3.935  13.949  23.467  0.00  0.00    +0.000 N 
ATOM     11  C   UNL     1      -4.296  12.931  24.445  0.00  0.00    +0.000 C 
ATOM     12  C   UNL     1      -5.734  12.443  24.215  0.00  0.00    +0.000 C 
ATOM     13  O   UNL     1      -6.661  13.540  24.151  0.00  0.00    +0.000 OA
ATOM     14  C   UNL     1      -6.317  14.419  23.067  0.00  0.00    +0.000 C 
ATOM     15  C   UNL     1      -4.916  15.020  23.255  0.00  0.00    +0.000 C 
ATOM     16  N   UNL     1      -2.640  14.762  21.747  0.00  0.00    +0.000 NA
ATOM     17  C   UNL     1      -1.665  14.607  20.876  0.00  0.00    +0.000 A 
ATOM     18  N   UNL     1      -1.368  15.666  20.057  0.00  0.00    +0.000 N 
ATOM     19  C   UNL     1      -0.319  15.594  19.053  0.00  0.00    +0.000 C 
ATOM     20  C   UNL     1       0.711  16.711  19.284  0.00  0.00    +0.000 C 
ATOM     21  O   UNL     1       0.084  18.001  19.383  0.00  0.00    +0.000 OA
ATOM     22  C   UNL     1      -0.847  18.021  20.479  0.00  0.00    +0.000 C 
ATOM     23  C   UNL     1      -1.962  16.981  20.288  0.00  0.00    +0.000 C 
ATOM     24  N   UNL     1      -0.976  13.485  20.759  0.00  0.00    +0.000 NA
ENDBRANCH   4   7
BRANCH   1  28
ATOM     25  N   UNL     1       2.731   5.858  20.077  0.00  0.00    +0.000 N 
ATOM     26  C   UNL     1       2.157   7.124  20.054  0.00  0.00    +0.000 C 
ATOM     27  O   UNL     1       2.245   7.913  19.111  0.00  0.00    +0.000 OA
ATOM     28  N   UNL     1       1.446   7.454  21.200  0.00  0.00    +0.000 N 
ATOM     29  H   UNL     1       2.460   5.216  20.812  0.00  0.00    +0.000 HD
ATOM     30  H   UNL     1       1.786   7.051  22.059  0.00  0.00    +0.000 HD
BRANCH  25  35
ATOM     31  C   UNL     1       6.019   3.766  15.806  0.00  0.00    +0.000 C 
ATOM     32  C   UNL     1       5.136   4.276  16.895  0.00  0.00    +0.000 A 
ATOM     33  C   UNL     1       3.760   4.097  16.903  0.00  0.00    +0.000 A 
ATOM     34  C   UNL     1       2.973   4.610  17.953  0.00  0.00    +0.000 A 
ATOM     35  C   UNL     1       3.538   5.319  19.016  0.00  0.00    +0.000 A 
ATOM     36  C   UNL     1       4.926   5.509  19.008  0.00  0.00    +0.000 A 
ATOM     37  C   UNL     1       5.715   4.985  17.967  0.00  0.00    +0.000 A 
ENDBRANCH  25  35
ENDBRANCH   1  28
TORSDOF 3
ENDMDL
MODEL 4
REMARK VINA RESULT:      -9.0      0.261      4.477
REMARK  Name = 
REMARK  4 active torsions:
REMARK  status: ('A' for Active; 'I' for Inactive)
REMARK    1  A    between atoms: C_1  and  C_2
REMARK    2  A    between atoms: C_5  and  N_6
REMARK    3  A    between atoms: N_9  and  C_10
REMARK    4  A    between atoms: C_13  and  C_14
REMARK                            x       y       z     vdW  Elec       q    Type
REMARK                         _______ _______ _______ _____ _____    ______ ____
ROOT
ATOM      1  C   UNL     1       0.831   8.756  21.345  0.00  0.00    +0.000 A 
ATOM      2  C   UNL     1       0.617   9.543  20.208  0.00  0.00    +0.000 A 
ATOM      3  C   UNL     1      -0.082  10.764  20.298  0.00  0.00    +0.000 A 
ATOM      4  C   UNL     1      -0.555  11.259  21.526  0.00  0.00    +0.000 A 
ATOM      5  C   UNL     1      -0.289  10.471  22.660  0.00  0.00    +0.000 A 
ATOM      6  C   UNL     1       0.378   9.236  22.576  0.00  0.00    +0.000 A 
ENDROOT
BRANCH   4   7
ATOM      7  C   UNL     1      -1.311  12.529  21.619  0.00  0.00    +0.000 A 
ATOM      8  N   UNL     1      -0.986  13.520  20.797  0.00  0.00    +0.000 NA
ATOM      9  C   UNL     1      -1.680  14.644  20.938  0.00  0.00    +0.000 A 
ATOM     10  N   UNL     1      -1.411  15.728  20.152  0.00  0.00    +0.000 N 
ATOM     11  C   UNL     1      -0.391  15.689  19.112  0.00  0.00    +0.000 C 
ATOM     12  C   UNL     1       0.736  16.686  19.419  0.00  0.00    +0.000 C 
ATOM     13  O   UNL     1       0.222  18.004  19.677  0.00  0.00    +0.000 OA
ATOM     14  C   UNL     1      -0.664  17.979  20.808  0.00  0.00    +0.000 C 
ATOM     15  C   UNL     1      -1.870  17.062  20.557  0.00  0.00    +0.000 C 
ATOM     16  N   UNL     1      -2.664  14.762  21.821  0.00  0.00    +0.000 NA
ATOM     17  C   UNL     1      -2.956  13.727  22.581  0.00  0.00    +0.000 A 
ATOM     18  N   UNL     1      -3.989  13.862  23.473  0.00  0.00    +0.000 N 
ATOM     19  C   UNL     1      -4.382  12.784  24.368  0.00  0.00    +0.000 C 
ATOM     20  C   UNL     1      -5.864  12.440  24.159  0.00  0.00    +0.000 C 
ATOM     21  O   UNL     1      -6.701  13.606  24.247  0.00  0.00    +0.000 OA
ATOM     22  C   UNL     1      -6.322  14.568  23.247  0.00  0.00    +0.000 C 
ATOM     23  C   UNL     1      -4.868  15.029  23.431  0.00  0.00    +0.000 C 
ATOM     24  N   UNL     1      -2.297  12.583  22.523  0.00  0.00    +0.000 NA
ENDBRANCH   4   7
BRANCH   1  28
ATOM     25  N   UNL     1       2.726   5.874  20.114  0.00  0.00    +0.000 N 
ATOM     26  C   UNL     1       2.149   7.139  20.088  0.00  0.00    +0.000 C 
ATOM     27  O   UNL     1       2.217   7.918  19.136  0.00  0.00    +0.000 OA
ATOM     28  N   UNL     1       1.459   7.478  21.244  0.00  0.00    +0.000 N 
ATOM     29  H   UNL     1       2.471   5.239  20.861  0.00  0.00    +0.000 HD
ATOM     30  H   UNL     1       1.816   7.085  22.101  0.00  0.00    +0.000 HD
BRANCH  25  35
ATOM     31  C   UNL     1       5.938   3.746  15.802  0.00  0.00    +0.000 C 
ATOM     32  C   UNL     1       5.075   4.265  16.903  0.00  0.00    +0.000 A 
ATOM     33  C   UNL     1       3.702   4.070  16.947  0.00  0.00    +0.000 A 
ATOM     34  C   UNL     1       2.933   4.592  18.006  0.00  0.00    +0.000 A 
ATOM     35  C   UNL     1       3.514   5.326  19.043  0.00  0.00    +0.000 A 
ATOM     36  C   UNL     1       4.900   5.531  19.000  0.00  0.00    +0.000 A 
ATOM     37  C   UNL     1       5.670   4.999  17.949  0.00  0.00    +0.000 A 
ENDBRANCH  25  35
ENDBRANCH   1  28
TORSDOF 3
ENDMDL
MODEL 5
REMARK VINA RESULT:      -8.9      2.829      4.046
REMARK  Name = 
REMARK  4 active torsions:
REMARK  status: ('A' for Active; 'I' for Inactive)
REMARK    1  A    between atoms: C_1  and  C_2
REMARK    2  A    between atoms: C_5  and  N_6
REMARK    3  A    between atoms: N_9  and  C_10
REMARK    4  A    between atoms: C_13  and  C_14
REMARK                            x       y       z     vdW  Elec       q    Type
REMARK                         _______ _______ _______ _____ _____    ______ ____
ROOT
ATOM      1  C   UNL     1       0.970  10.056  18.319  0.00  0.00    +0.000 A 
ATOM      2  C   UNL     1      -0.357   9.868  17.918  0.00  0.00    +0.000 A 
ATOM      3  C   UNL     1      -1.394  10.649  18.468  0.00  0.00    +0.000 A 
ATOM      4  C   UNL     1      -1.139  11.666  19.405  0.00  0.00    +0.000 A 
ATOM      5  C   UNL     1       0.208  11.865  19.759  0.00  0.00    +0.000 A 
ATOM      6  C   UNL     1       1.244  11.070  19.241  0.00  0.00    +0.000 A 
ENDROOT
BRANCH   4   7
ATOM      7  C   UNL     1      -2.230  12.470  20.003  0.00  0.00    +0.000 A 
ATOM      8  N   UNL     1      -1.916  13.381  20.918  0.00  0.00    +0.000 NA
ATOM      9  C   UNL     1      -2.934  14.057  21.438  0.00  0.00    +0.000 A 
ATOM     10  N   UNL     1      -2.719  15.003  22.399  0.00  0.00    +0.000 N 
ATOM     11  C   UNL     1      -1.378  15.336  22.863  0.00  0.00    +0.000 C 
ATOM     12  C   UNL     1      -1.219  14.996  24.352  0.00  0.00    +0.000 C 
ATOM     13  O   UNL     1      -2.267  15.579  25.144  0.00  0.00    +0.000 OA
ATOM     14  C   UNL     1      -3.547  15.086  24.715  0.00  0.00    +0.000 C 
ATOM     15  C   UNL     1      -3.828  15.452  23.250  0.00  0.00    +0.000 C 
ATOM     16  N   UNL     1      -4.188  13.863  21.045  0.00  0.00    +0.000 NA
ATOM     17  C   UNL     1      -4.422  12.968  20.108  0.00  0.00    +0.000 A 
ATOM     18  N   UNL     1      -5.721  12.798  19.700  0.00  0.00    +0.000 N 
ATOM     19  C   UNL     1      -6.088  11.825  18.683  0.00  0.00    +0.000 C 
ATOM     20  C   UNL     1      -6.817  12.524  17.525  0.00  0.00    +0.000 C 
ATOM     21  O   UNL     1      -7.916  13.325  17.992  0.00  0.00    +0.000 OA
ATOM     22  C   UNL     1      -7.446  14.338  18.898  0.00  0.00    +0.000 C 
ATOM     23  C   UNL     1      -6.769  13.720  20.131  0.00  0.00    +0.000 C 
ATOM     24  N   UNL     1      -3.470  12.234  19.558  0.00  0.00    +0.000 NA
ENDBRANCH   4   7
BRANCH   1  28
ATOM     25  N   UNL     1       3.232   7.218  17.827  0.00  0.00    +0.000 N 
ATOM     26  C   UNL     1       2.195   7.953  18.392  0.00  0.00    +0.000 C 
ATOM     27  O   UNL     1       1.484   7.558  19.318  0.00  0.00    +0.000 OA
ATOM     28  N   UNL     1       2.010   9.210  17.832  0.00  0.00    +0.000 N 
ATOM     29  H   UNL     1       3.872   7.687  17.196  0.00  0.00    +0.000 HD
ATOM     30  H   UNL     1       2.234   9.291  16.852  0.00  0.00    +0.000 HD
BRANCH  25  35
ATOM     31  C   UNL     1       4.557   1.828  19.448  0.00  0.00    +0.000 C 
ATOM     32  C   UNL     1       4.260   3.232  19.037  0.00  0.00    +0.000 A 
ATOM     33  C   UNL     1       5.075   4.306  19.362  0.00  0.00    +0.000 A 
ATOM     34  C   UNL     1       4.740   5.614  18.957  0.00  0.00    +0.000 A 
ATOM     35  C   UNL     1       3.581   5.881  18.224  0.00  0.00    +0.000 A 
ATOM     36  C   UNL     1       2.751   4.799  17.899  0.00  0.00    +0.000 A 
ATOM     37  C   UNL     1       3.092   3.492  18.292  0.00  0.00    +0.000 A 
ENDBRANCH  25  35
ENDBRANCH   1  28
TORSDOF 3
ENDMDL
MODEL 6
REMARK VINA RESULT:      -8.9      2.810      4.267
REMARK  Name = 
REMARK  4 active torsions:
REMARK  status: ('A' for Active; 'I' for Inactive)
REMARK    1  A    between atoms: C_1  and  C_2
REMARK    2  A    between atoms: C_5  and  N_6
REMARK    3  A    between atoms: N_9  and  C_10
REMARK    4  A    between atoms: C_13  and  C_14
REMARK                            x       y       z     vdW  Elec       q    Type
REMARK                         _______ _______ _______ _____ _____    ______ ____
ROOT
ATOM      1  C   UNL     1       0.362  10.181  21.938  0.00  0.00    +0.000 A 
ATOM      2  C   UNL     1       0.236  11.140  20.927  0.00  0.00    +0.000 A 
ATOM      3  C   UNL     1      -0.800  12.095  20.965  0.00  0.00    +0.000 A 
ATOM      4  C   UNL     1      -1.719  12.149  22.028  0.00  0.00    +0.000 A 
ATOM      5  C   UNL     1      -1.545  11.202  23.053  0.00  0.00    +0.000 A 
ATOM      6  C   UNL     1      -0.535  10.226  23.008  0.00  0.00    +0.000 A 
ENDROOT
BRANCH   4   7
ATOM      7  C   UNL     1      -2.824  13.136  22.057  0.00  0.00    +0.000 A 
ATOM      8  N   UNL     1      -2.607  14.312  22.634  0.00  0.00    +0.000 NA
ATOM      9  C   UNL     1      -3.638  15.149  22.653  0.00  0.00    +0.000 A 
ATOM     10  N   UNL     1      -3.523  16.378  23.238  0.00  0.00    +0.000 N 
ATOM     11  C   UNL     1      -2.270  16.834  23.827  0.00  0.00    +0.000 C 
ATOM     12  C   UNL     1      -2.431  17.059  25.338  0.00  0.00    +0.000 C 
ATOM     13  O   UNL     1      -3.552  17.910  25.631  0.00  0.00    +0.000 OA
ATOM     14  C   UNL     1      -4.766  17.317  25.143  0.00  0.00    +0.000 C 
ATOM     15  C   UNL     1      -4.726  17.126  23.619  0.00  0.00    +0.000 C 
ATOM     16  N   UNL     1      -4.806  14.848  22.097  0.00  0.00    +0.000 NA
ATOM     17  C   UNL     1      -4.940  13.676  21.511  0.00  0.00    +0.000 A 
ATOM     18  N   UNL     1      -6.147  13.391  20.925  0.00  0.00    +0.000 N 
ATOM     19  C   UNL     1      -6.402  12.120  20.265  0.00  0.00    +0.000 C 
ATOM     20  C   UNL     1      -6.828  12.359  18.808  0.00  0.00    +0.000 C 
ATOM     21  O   UNL     1      -7.916  13.295  18.717  0.00  0.00    +0.000 OA
ATOM     22  C   UNL     1      -7.534  14.561  19.282  0.00  0.00    +0.000 C 
ATOM     23  C   UNL     1      -7.166  14.426  20.768  0.00  0.00    +0.000 C 
ATOM     24  N   UNL     1      -3.973  12.775  21.472  0.00  0.00    +0.000 NA
ENDBRANCH   4   7
BRANCH   1  28
ATOM     25  N   UNL     1       2.157   7.102  21.091  0.00  0.00    +0.000 N 
ATOM     26  C   UNL     1       1.112   8.020  21.100  0.00  0.00    +0.000 C 
ATOM     27  O   UNL     1       0.045   7.869  20.503  0.00  0.00    +0.000 OA
ATOM     28  N   UNL     1       1.355   9.158  21.858  0.00  0.00    +0.000 N 
ATOM     29  H   UNL     1       2.918   7.227  21.748  0.00  0.00    +0.000 HD
ATOM     30  H   UNL     1       2.316   9.460  21.903  0.00  0.00    +0.000 HD
BRANCH  25  35
ATOM     31  C   UNL     1       2.078   2.197  18.030  0.00  0.00    +0.000 C 
ATOM     32  C   UNL     1       2.085   3.438  18.859  0.00  0.00    +0.000 A 
ATOM     33  C   UNL     1       1.433   3.540  20.079  0.00  0.00    +0.000 A 
ATOM     34  C   UNL     1       1.465   4.742  20.815  0.00  0.00    +0.000 A 
ATOM     35  C   UNL     1       2.141   5.872  20.348  0.00  0.00    +0.000 A 
ATOM     36  C   UNL     1       2.795   5.775  19.112  0.00  0.00    +0.000 A 
ATOM     37  C   UNL     1       2.775   4.572  18.383  0.00  0.00    +0.000 A 
ENDBRANCH  25  35
ENDBRANCH   1  28
TORSDOF 3
ENDMDL
MODEL 7
REMARK VINA RESULT:      -8.8      2.546      3.478
REMARK  Name = 
REMARK  4 active torsions:
REMARK  status: ('A' for Active; 'I' for Inactive)
REMARK    1  A    between atoms: C_1  and  C_2
REMARK    2  A    between atoms: C_5  and  N_6
REMARK    3  A    between atoms: N_9  and  C_10
REMARK    4  A    between atoms: C_13  and  C_14
REMARK                            x       y       z     vdW  Elec       q    Type
REMARK                         _______ _______ _______ _____ _____    ______ ____
ROOT
ATOM      1  C   UNL     1       1.005   8.894  20.653  0.00  0.00    +0.000 A 
ATOM      2  C   UNL     1       0.621   9.673  19.556  0.00  0.00    +0.000 A 
ATOM      3  C   UNL     1      -0.322  10.711  19.704  0.00  0.00    +0.000 A 
ATOM      4  C   UNL     1      -0.883  11.030  20.953  0.00  0.00    +0.000 A 
ATOM      5  C   UNL     1      -0.449  10.260  22.047  0.00  0.00    +0.000 A 
ATOM      6  C   UNL     1       0.466   9.203  21.905  0.00  0.00    +0.000 A 
ENDROOT
BRANCH   4   7
ATOM      7  C   UNL     1      -1.893  12.102  21.106  0.00  0.00    +0.000 A 
ATOM      8  N   UNL     1      -1.610  13.130  21.897  0.00  0.00    +0.000 NA
ATOM      9  C   UNL     1      -2.559  14.052  22.016  0.00  0.00    +0.000 A 
ATOM     10  N   UNL     1      -2.372  15.140  22.820  0.00  0.00    +0.000 N 
ATOM     11  C   UNL     1      -1.126  15.356  23.543  0.00  0.00    +0.000 C 
ATOM     12  C   UNL     1      -1.366  15.327  25.059  0.00  0.00    +0.000 C 
ATOM     13  O   UNL     1      -2.422  16.223  25.446  0.00  0.00    +0.000 OA
ATOM     14  C   UNL     1      -3.650  15.851  24.800  0.00  0.00    +0.000 C 
ATOM     15  C   UNL     1      -3.526  15.928  23.270  0.00  0.00    +0.000 C 
ATOM     16  N   UNL     1      -3.710  13.972  21.358  0.00  0.00    +0.000 NA
ATOM     17  C   UNL     1      -3.911  12.942  20.563  0.00  0.00    +0.000 A 
ATOM     18  N   UNL     1      -5.096  12.888  19.876  0.00  0.00    +0.000 N 
ATOM     19  C   UNL     1      -5.422  11.786  18.985  0.00  0.00    +0.000 C 
ATOM     20  C   UNL     1      -5.726  12.319  17.576  0.00  0.00    +0.000 C 
ATOM     21  O   UNL     1      -6.716  13.362  17.603  0.00  0.00    +0.000 OA
ATOM     22  C   UNL     1      -6.259  14.463  18.407  0.00  0.00    +0.000 C 
ATOM     23  C   UNL     1      -6.005  14.032  19.860  0.00  0.00    +0.000 C 
ATOM     24  N   UNL     1      -3.029  11.968  20.409  0.00  0.00    +0.000 NA
ENDBRANCH   4   7
BRANCH   1  28
ATOM     25  N   UNL     1       3.227   6.371  19.199  0.00  0.00    +0.000 N 
ATOM     26  C   UNL     1       2.363   7.461  19.227  0.00  0.00    +0.000 C 
ATOM     27  O   UNL     1       2.018   8.103  18.234  0.00  0.00    +0.000 OA
ATOM     28  N   UNL     1       1.891   7.787  20.492  0.00  0.00    +0.000 N 
ATOM     29  H   UNL     1       3.314   5.799  20.031  0.00  0.00    +0.000 HD
ATOM     30  H   UNL     1       2.520   7.599  21.257  0.00  0.00    +0.000 HD
BRANCH  25  35
ATOM     31  C   UNL     1       5.814   4.320  14.452  0.00  0.00    +0.000 C 
ATOM     32  C   UNL     1       5.150   4.893  15.659  0.00  0.00    +0.000 A 
ATOM     33  C   UNL     1       5.217   6.237  15.996  0.00  0.00    +0.000 A 
ATOM     34  C   UNL     1       4.578   6.722  17.155  0.00  0.00    +0.000 A 
ATOM     35  C   UNL     1       3.863   5.878  18.008  0.00  0.00    +0.000 A 
ATOM     36  C   UNL     1       3.797   4.518  17.674  0.00  0.00    +0.000 A 
ATOM     37  C   UNL     1       4.424   4.035  16.511  0.00  0.00    +0.000 A 
ENDBRANCH  25  35
ENDBRANCH   1  28
TORSDOF 3
ENDMDL
MODEL 8
REMARK VINA RESULT:      -8.8      2.827      3.718
REMARK  Name = 
REMARK  4 active torsions:
REMARK  status: ('A' for Active; 'I' for Inactive)
REMARK    1  A    between atoms: C_1  and  C_2
REMARK    2  A    between atoms: C_5  and  N_6
REMARK    3  A    between atoms: N_9  and  C_10
REMARK    4  A    between atoms: C_13  and  C_14
REMARK                            x       y       z     vdW  Elec       q    Type
REMARK                         _______ _______ _______ _____ _____    ______ ____
ROOT
ATOM      1  C   UNL     1       0.534  10.256  21.798  0.00  0.00    +0.000 A 
ATOM      2  C   UNL     1       0.428  11.337  20.915  0.00  0.00    +0.000 A 
ATOM      3  C   UNL     1      -0.598  12.292  21.064  0.00  0.00    +0.000 A 
ATOM      4  C   UNL     1      -1.527  12.223  22.118  0.00  0.00    +0.000 A 
ATOM      5  C   UNL     1      -1.373  11.152  23.017  0.00  0.00    +0.000 A 
ATOM      6  C   UNL     1      -0.374  10.177  22.857  0.00  0.00    +0.000 A 
ENDROOT
BRANCH   4   7
ATOM      7  C   UNL     1      -2.621  13.211  22.262  0.00  0.00    +0.000 A 
ATOM      8  N   UNL     1      -3.839  12.870  21.853  0.00  0.00    +0.000 NA
ATOM      9  C   UNL     1      -4.777  13.801  21.983  0.00  0.00    +0.000 A 
ATOM     10  N   UNL     1      -6.058  13.555  21.578  0.00  0.00    +0.000 N 
ATOM     11  C   UNL     1      -6.456  12.266  21.026  0.00  0.00    +0.000 C 
ATOM     12  C   UNL     1      -6.915  12.417  19.569  0.00  0.00    +0.000 C 
ATOM     13  O   UNL     1      -7.916  13.439  19.432  0.00  0.00    +0.000 OA
ATOM     14  C   UNL     1      -7.395  14.707  19.862  0.00  0.00    +0.000 C 
ATOM     15  C   UNL     1      -6.981  14.672  21.341  0.00  0.00    +0.000 C 
ATOM     16  N   UNL     1      -4.527  14.989  22.522  0.00  0.00    +0.000 NA
ATOM     17  C   UNL     1      -3.304  15.247  22.937  0.00  0.00    +0.000 A 
ATOM     18  N   UNL     1      -3.070  16.471  23.509  0.00  0.00    +0.000 N 
ATOM     19  C   UNL     1      -1.752  16.860  23.986  0.00  0.00    +0.000 C 
ATOM     20  C   UNL     1      -1.821  17.240  25.473  0.00  0.00    +0.000 C 
ATOM     21  O   UNL     1      -2.847  18.216  25.727  0.00  0.00    +0.000 OA
ATOM     22  C   UNL     1      -4.132  17.701  25.339  0.00  0.00    +0.000 C 
ATOM     23  C   UNL     1      -4.176  17.367  23.840  0.00  0.00    +0.000 C 
ATOM     24  N   UNL     1      -2.307  14.387  22.820  0.00  0.00    +0.000 NA
ENDBRANCH   4   7
BRANCH   1  28
ATOM     25  N   UNL     1       2.195   7.129  20.863  0.00  0.00    +0.000 N 
ATOM     26  C   UNL     1       1.151   8.034  21.014  0.00  0.00    +0.000 C 
ATOM     27  O   UNL     1      -0.015   7.818  20.677  0.00  0.00    +0.000 OA
ATOM     28  N   UNL     1       1.516   9.240  21.598  0.00  0.00    +0.000 N 
ATOM     29  H   UNL     1       3.076   7.322  21.326  0.00  0.00    +0.000 HD
ATOM     30  H   UNL     1       2.455   9.554  21.408  0.00  0.00    +0.000 HD
BRANCH  25  35
ATOM     31  C   UNL     1       1.688   1.888  18.473  0.00  0.00    +0.000 C 
ATOM     32  C   UNL     1       1.813   3.260  19.047  0.00  0.00    +0.000 A 
ATOM     33  C   UNL     1       2.106   4.379  18.281  0.00  0.00    +0.000 A 
ATOM     34  C   UNL     1       2.223   5.650  18.878  0.00  0.00    +0.000 A 
ATOM     35  C   UNL     1       2.058   5.835  20.253  0.00  0.00    +0.000 A 
ATOM     36  C   UNL     1       1.768   4.705  21.031  0.00  0.00    +0.000 A 
ATOM     37  C   UNL     1       1.638   3.438  20.434  0.00  0.00    +0.000 A 
ENDBRANCH  25  35
ENDBRANCH   1  28
TORSDOF 3
ENDMDL
MODEL 9
REMARK VINA RESULT:      -8.7      2.548      3.148
REMARK  Name = 
REMARK  4 active torsions:
REMARK  status: ('A' for Active; 'I' for Inactive)
REMARK    1  A    between atoms: C_1  and  C_2
REMARK    2  A    between atoms: C_5  and  N_6
REMARK    3  A    between atoms: N_9  and  C_10
REMARK    4  A    between atoms: C_13  and  C_14
REMARK                            x       y       z     vdW  Elec       q    Type
REMARK                         _______ _______ _______ _____ _____    ______ ____
ROOT
ATOM      1  C   UNL     1       0.817   8.994  21.272  0.00  0.00    +0.000 A 
ATOM      2  C   UNL     1       0.455   9.800  20.187  0.00  0.00    +0.000 A 
ATOM      3  C   UNL     1      -0.447  10.871  20.355  0.00  0.00    +0.000 A 
ATOM      4  C   UNL     1      -0.987  11.195  21.612  0.00  0.00    +0.000 A 
ATOM      5  C   UNL     1      -0.573  10.397  22.693  0.00  0.00    +0.000 A 
ATOM      6  C   UNL     1       0.299   9.308  22.531  0.00  0.00    +0.000 A 
ENDROOT
BRANCH   4   7
ATOM      7  C   UNL     1      -1.955  12.303  21.785  0.00  0.00    +0.000 A 
ATOM      8  N   UNL     1      -3.152  12.191  21.222  0.00  0.00    +0.000 NA
ATOM      9  C   UNL     1      -3.972  13.222  21.389  0.00  0.00    +0.000 A 
ATOM     10  N   UNL     1      -5.221  13.212  20.834  0.00  0.00    +0.000 N 
ATOM     11  C   UNL     1      -5.717  12.069  20.078  0.00  0.00    +0.000 C 
ATOM     12  C   UNL     1      -5.987  12.460  18.618  0.00  0.00    +0.000 C 
ATOM     13  O   UNL     1      -6.828  13.623  18.528  0.00  0.00    +0.000 OA
ATOM     14  C   UNL     1      -6.199  14.742  19.174  0.00  0.00    +0.000 C 
ATOM     15  C   UNL     1      -5.961  14.468  20.667  0.00  0.00    +0.000 C 
ATOM     16  N   UNL     1      -3.633  14.288  22.105  0.00  0.00    +0.000 NA
ATOM     17  C   UNL     1      -2.442  14.318  22.664  0.00  0.00    +0.000 A 
ATOM     18  N   UNL     1      -2.118  15.418  23.417  0.00  0.00    +0.000 N 
ATOM     19  C   UNL     1      -0.823  15.555  24.064  0.00  0.00    +0.000 C 
ATOM     20  C   UNL     1      -1.008  15.757  25.576  0.00  0.00    +0.000 C 
ATOM     21  O   UNL     1      -1.922  16.829  25.863  0.00  0.00    +0.000 OA
ATOM     22  C   UNL     1      -3.212  16.553  25.289  0.00  0.00    +0.000 C 
ATOM     23  C   UNL     1      -3.130  16.414  23.762  0.00  0.00    +0.000 C 
ATOM     24  N   UNL     1      -1.556  13.346  22.525  0.00  0.00    +0.000 NA
ENDBRANCH   4   7
BRANCH   1  28
ATOM     25  N   UNL     1       2.954   6.423  19.775  0.00  0.00    +0.000 N 
ATOM     26  C   UNL     1       2.135   7.546  19.823  0.00  0.00    +0.000 C 
ATOM     27  O   UNL     1       1.829   8.229  18.844  0.00  0.00    +0.000 OA
ATOM     28  N   UNL     1       1.660   7.857  21.090  0.00  0.00    +0.000 N 
ATOM     29  H   UNL     1       3.007   5.826  20.592  0.00  0.00    +0.000 HD
ATOM     30  H   UNL     1       2.271   7.623  21.858  0.00  0.00    +0.000 HD
BRANCH  25  35
ATOM     31  C   UNL     1       5.513   4.395  15.003  0.00  0.00    +0.000 C 
ATOM     32  C   UNL     1       4.860   4.963  16.219  0.00  0.00    +0.000 A 
ATOM     33  C   UNL     1       5.040   6.274  16.635  0.00  0.00    +0.000 A 
ATOM     34  C   UNL     1       4.407   6.754  17.798  0.00  0.00    +0.000 A 
ATOM     35  C   UNL     1       3.585   5.937  18.578  0.00  0.00    +0.000 A 
ATOM     36  C   UNL     1       3.406   4.609  18.165  0.00  0.00    +0.000 A 
ATOM     37  C   UNL     1       4.028   4.133  16.997  0.00  0.00    +0.000 A 
ENDBRANCH  25  35
ENDBRANCH   1  28
TORSDOF 3
ENDMDL
