MODEL 1
REMARK VINA RESULT:      -8.7      0.000      0.000
REMARK  Name = 
REMARK  13 active torsions:
REMARK  status: ('A' for Active; 'I' for Inactive)
REMARK    1  A    between atoms: C_1  and  N_2
REMARK    2  A    between atoms: N_2  and  C_3
REMARK    3  A    between atoms: N_2  and  C_4
REMARK    4  A    between atoms: C_7  and  C_8
REMARK    5  A    between atoms: C_8  and  C_9
REMARK    6  A    between atoms: N_11  and  C_12
REMARK    7  A    between atoms: C_12  and  C_13
REMARK    8  A    between atoms: C_12  and  C_18
REMARK    9  A    between atoms: C_13  and  C_14
REMARK   10  A    between atoms: C_14  and  C_15
REMARK   11  A    between atoms: N_20  and  C_21
REMARK   12  A    between atoms: C_21  and  C_22
REMARK   13  A    between atoms: C_26  and  N_27
REMARK                            x       y       z     vdW  Elec       q    Type
REMARK                         _______ _______ _______ _____ _____    ______ ____
ROOT
ATOM      1  C   UNL     1       6.862   5.220  18.158  0.00  0.00    +0.000 C 
ENDROOT
BRANCH   1   4
ATOM      2  C   UNL     1       7.809   7.538  18.104  0.00  0.00    +0.000 C 
ATOM      3  O   UNL     1       8.589   7.301  19.021  0.00  0.00    +0.000 OA
ATOM      4  N   UNL     1       6.922   6.593  17.638  0.00  0.00    +0.000 N 
ATOM      5  H   UNL     1       6.289   6.846  16.889  0.00  0.00    +0.000 HD
BRANCH   2   6
ATOM      6  C   UNL     1       7.708   8.901  17.429  0.00  0.00    +0.000 C 
BRANCH   6  10
ATOM      7  C   UNL     1       9.931  12.158  19.385  0.00  0.00    +0.000 A 
ATOM      8  C   UNL     1       9.999  10.824  19.808  0.00  0.00    +0.000 A 
ATOM      9  C   UNL     1       9.258   9.800  19.190  0.00  0.00    +0.000 A 
ATOM     10  C   UNL     1       8.419  10.059  18.099  0.00  0.00    +0.000 A 
ATOM     11  C   UNL     1       8.388  11.367  17.616  0.00  0.00    +0.000 A 
ATOM     12  C   UNL     1       9.125  12.388  18.253  0.00  0.00    +0.000 A 
BRANCH   7  14
ATOM     13  C   UNL     1       9.958  14.418  20.395  0.00  0.00    +0.000 C 
ATOM     14  N   UNL     1      10.642  13.186  20.010  0.00  0.00    +0.000 N 
ATOM     15  C   UNL     1      12.071  13.305  19.718  0.00  0.00    +0.000 C 
ENDBRANCH   7  14
ENDBRANCH   6  10
ENDBRANCH   2   6
ENDBRANCH   1   4
BRANCH   1  16
ATOM     16  C   UNL     1       5.493   4.977  18.848  0.00  0.00    +0.000 C 
ATOM     17  O   UNL     1       5.194   3.883  19.327  0.00  0.00    +0.000 OA
ATOM     18  N   UNL     1       4.611   6.034  18.795  0.00  0.00    +0.000 N 
ATOM     19  H   UNL     1       4.875   6.858  18.261  0.00  0.00    +0.000 HD
BRANCH  18  20
ATOM     20  C   UNL     1       3.259   5.963  19.322  0.00  0.00    +0.000 C 
BRANCH  20  21
ATOM     21  C   UNL     1       2.479   7.238  19.105  0.00  0.00    +0.000 A 
ATOM     22  C   UNL     1       2.284   7.769  17.827  0.00  0.00    +0.000 A 
ATOM     23  C   UNL     1       1.546   8.944  17.658  0.00  0.00    +0.000 A 
ATOM     24  C   UNL     1       1.009   9.605  18.769  0.00  0.00    +0.000 A 
ATOM     25  C   UNL     1       1.186   9.112  20.067  0.00  0.00    +0.000 A 
ATOM     26  C   UNL     1       1.922   7.919  20.204  0.00  0.00    +0.000 A 
BRANCH  25  27
ATOM     27  N   UNL     1       0.719   9.777  21.182  0.00  0.00    +0.000 N 
ATOM     28  C   UNL     1       0.885   9.257  22.544  0.00  0.00    +0.000 C 
ATOM     29  C   UNL     1      -0.408   9.537  23.332  0.00  0.00    +0.000 C 
ATOM     30  O   UNL     1      -0.740  10.938  23.333  0.00  0.00    +0.000 OA
ATOM     31  C   UNL     1      -0.918  11.411  21.984  0.00  0.00    +0.000 C 
ATOM     32  C   UNL     1       0.349  11.202  21.138  0.00  0.00    +0.000 C 
ENDBRANCH  25  27
ENDBRANCH  20  21
ENDBRANCH  18  20
ENDBRANCH   1  16
BRANCH   1  33
ATOM     33  C   UNL     1       7.090   4.221  16.998  0.00  0.00    +0.000 C 
BRANCH  33  34
ATOM     34  C   UNL     1       6.117   4.503  15.848  0.00  0.00    +0.000 C 
BRANCH  34  35
ATOM     35  C   UNL     1       6.681   4.651  14.450  0.00  0.00    +0.000 C 
ATOM     36  N   UNL     1       7.732   5.488  14.263  0.00  0.00    +0.000 N 
ATOM     37  O   UNL     1       6.283   3.957  13.517  0.00  0.00    +0.000 OA
ATOM     38  H   UNL     1       8.179   6.023  14.992  0.00  0.00    +0.000 HD
ATOM     39  H   UNL     1       8.153   5.485  13.341  0.00  0.00    +0.000 HD
ENDBRANCH  34  35
ENDBRANCH  33  34
ENDBRANCH   1  33
TORSDOF 11
ENDMDL
MODEL 2
REMARK VINA RESULT:      -8.4      0.983      1.122
REMARK  Name = 
REMARK  13 active torsions:
REMARK  status: ('A' for Active; 'I' for Inactive)
REMARK    1  A    between atoms: C_1  and  N_2
REMARK    2  A    between atoms: N_2  and  C_3
REMARK    3  A    between atoms: N_2  and  C_4
REMARK    4  A    between atoms: C_7  and  C_8
REMARK    5  A    between atoms: C_8  and  C_9
REMARK    6  A    between atoms: N_11  and  C_12
REMARK    7  A    between atoms: C_12  and  C_13
REMARK    8  A    between atoms: C_12  and  C_18
REMARK    9  A    between atoms: C_13  and  C_14
REMARK   10  A    between atoms: C_14  and  C_15
REMARK   11  A    between atoms: N_20  and  C_21
REMARK   12  A    between atoms: C_21  and  C_22
REMARK   13  A    between atoms: C_26  and  N_27
REMARK                            x       y       z     vdW  Elec       q    Type
REMARK                         _______ _______ _______ _____ _____    ______ ____
ROOT
ATOM      1  C   UNL     1       5.958   5.093  18.097  0.00  0.00    +0.000 C 
ENDROOT
BRANCH   1   4
ATOM      2  C   UNL     1       7.498   7.061  17.937  0.00  0.00    +0.000 C 
ATOM      3  O   UNL     1       8.168   6.686  18.895  0.00  0.00    +0.000 OA
ATOM      4  N   UNL     1       6.398   6.360  17.497  0.00  0.00    +0.000 N 
ATOM      5  H   UNL     1       5.872   6.722  16.711  0.00  0.00    +0.000 HD
BRANCH   2   6
ATOM      6  C   UNL     1       7.784   8.352  17.177  0.00  0.00    +0.000 C 
BRANCH   6  10
ATOM      7  C   UNL     1       9.471  11.666  19.532  0.00  0.00    +0.000 A 
ATOM      8  C   UNL     1       9.610  10.320  19.897  0.00  0.00    +0.000 A 
ATOM      9  C   UNL     1       9.038   9.275  19.149  0.00  0.00    +0.000 A 
ATOM     10  C   UNL     1       8.309   9.525  17.980  0.00  0.00    +0.000 A 
ATOM     11  C   UNL     1       8.216  10.851  17.558  0.00  0.00    +0.000 A 
ATOM     12  C   UNL     1       8.782  11.891  18.324  0.00  0.00    +0.000 A 
BRANCH   7  14
ATOM     13  C   UNL     1      11.389  13.143  20.051  0.00  0.00    +0.000 C 
ATOM     14  N   UNL     1      10.013  12.713  20.284  0.00  0.00    +0.000 N 
ATOM     15  C   UNL     1       9.488  12.929  21.632  0.00  0.00    +0.000 C 
ENDBRANCH   7  14
ENDBRANCH   6  10
ENDBRANCH   2   6
ENDBRANCH   1   4
BRANCH   1  16
ATOM     16  C   UNL     1       4.745   5.345  19.032  0.00  0.00    +0.000 C 
ATOM     17  O   UNL     1       4.656   4.808  20.136  0.00  0.00    +0.000 OA
ATOM     18  N   UNL     1       3.743   6.125  18.498  0.00  0.00    +0.000 N 
ATOM     19  H   UNL     1       3.823   6.419  17.528  0.00  0.00    +0.000 HD
BRANCH  18  20
ATOM     20  C   UNL     1       2.502   6.406  19.200  0.00  0.00    +0.000 C 
BRANCH  20  21
ATOM     21  C   UNL     1       2.072   7.849  19.073  0.00  0.00    +0.000 A 
ATOM     22  C   UNL     1       2.273   8.572  17.894  0.00  0.00    +0.000 A 
ATOM     23  C   UNL     1       1.852   9.902  17.804  0.00  0.00    +0.000 A 
ATOM     24  C   UNL     1       1.240  10.523  18.898  0.00  0.00    +0.000 A 
ATOM     25  C   UNL     1       1.027   9.838  20.100  0.00  0.00    +0.000 A 
ATOM     26  C   UNL     1       1.449   8.496  20.156  0.00  0.00    +0.000 A 
BRANCH  25  27
ATOM     27  N   UNL     1       0.482  10.447  21.213  0.00  0.00    +0.000 N 
ATOM     28  C   UNL     1       0.472   9.816  22.538  0.00  0.00    +0.000 C 
ATOM     29  C   UNL     1      -0.879  10.118  23.210  0.00  0.00    +0.000 C 
ATOM     30  O   UNL     1      -1.130  11.534  23.291  0.00  0.00    +0.000 OA
ATOM     31  C   UNL     1      -1.137  12.118  21.975  0.00  0.00    +0.000 C 
ATOM     32  C   UNL     1       0.199  11.891  21.248  0.00  0.00    +0.000 C 
ENDBRANCH  25  27
ENDBRANCH  20  21
ENDBRANCH  18  20
ENDBRANCH   1  16
BRANCH   1  33
ATOM     33  C   UNL     1       5.600   4.090  16.973  0.00  0.00    +0.000 C 
BRANCH  33  34
ATOM     34  C   UNL     1       5.482   4.811  15.627  0.00  0.00    +0.000 C 
BRANCH  34  35
ATOM     35  C   UNL     1       6.599   4.639  14.619  0.00  0.00    +0.000 C 
ATOM     36  N   UNL     1       6.429   3.744  13.612  0.00  0.00    +0.000 N 
ATOM     37  O   UNL     1       7.594   5.361  14.629  0.00  0.00    +0.000 OA
ATOM     38  H   UNL     1       5.603   3.180  13.477  0.00  0.00    +0.000 HD
ATOM     39  H   UNL     1       7.146   3.729  12.896  0.00  0.00    +0.000 HD
ENDBRANCH  34  35
ENDBRANCH  33  34
ENDBRANCH   1  33
TORSDOF 11
ENDMDL
MODEL 3
REMARK VINA RESULT:      -8.3      4.511     10.355
REMARK  Name = 
REMARK  13 active torsions:
REMARK  status: ('A' for Active; 'I' for Inactive)
REMARK    1  A    between atoms: C_1  and  N_2
REMARK    2  A    between atoms: N_2  and  C_3
REMARK    3  A    between atoms: N_2  and  C_4
REMARK    4  A    between atoms: C_7  and  C_8
REMARK    5  A    between atoms: C_8  and  C_9
REMARK    6  A    between atoms: N_11  and  C_12
REMARK    7  A    between atoms: C_12  and  C_13
REMARK    8  A    between atoms: C_12  and  C_18
REMARK    9  A    between atoms: C_13  and  C_14
REMARK   10  A    between atoms: C_14  and  C_15
REMARK   11  A    between atoms: N_20  and  C_21
REMARK   12  A    between atoms: C_21  and  C_22
REMARK   13  A    between atoms: C_26  and  N_27
REMARK                            x       y       z     vdW  Elec       q    Type
REMARK                         _______ _______ _______ _____ _____    ______ ____
ROOT
ATOM      1  C   UNL     1       0.911  10.105  19.961  0.00  0.00    +0.000 C 
ENDROOT
BRANCH   1   4
ATOM      2  C   UNL     1       0.768  12.405  20.943  0.00  0.00    +0.000 C 
ATOM      3  O   UNL     1       1.794  12.771  20.377  0.00  0.00    +0.000 OA
ATOM      4  N   UNL     1       0.281  11.123  20.813  0.00  0.00    +0.000 N 
ATOM      5  H   UNL     1      -0.561  10.869  21.315  0.00  0.00    +0.000 HD
BRANCH   2   6
ATOM      6  C   UNL     1      -0.034  13.305  21.876  0.00  0.00    +0.000 C 
BRANCH   6  10
ATOM      7  C   UNL     1      -4.411  12.876  22.064  0.00  0.00    +0.000 A 
ATOM      8  C   UNL     1      -3.565  12.568  23.138  0.00  0.00    +0.000 A 
ATOM      9  C   UNL     1      -2.166  12.682  23.051  0.00  0.00    +0.000 A 
ATOM     10  C   UNL     1      -1.539  13.131  21.881  0.00  0.00    +0.000 A 
ATOM     11  C   UNL     1      -2.363  13.510  20.823  0.00  0.00    +0.000 A 
ATOM     12  C   UNL     1      -3.765  13.378  20.918  0.00  0.00    +0.000 A 
BRANCH   7  14
ATOM     13  C   UNL     1      -6.597  12.754  20.908  0.00  0.00    +0.000 C 
ATOM     14  N   UNL     1      -5.800  12.740  22.133  0.00  0.00    +0.000 N 
ATOM     15  C   UNL     1      -6.473  13.202  23.347  0.00  0.00    +0.000 C 
ENDBRANCH   7  14
ENDBRANCH   6  10
ENDBRANCH   2   6
ENDBRANCH   1   4
BRANCH   1  16
ATOM     16  C   UNL     1       0.770   8.706  20.618  0.00  0.00    +0.000 C 
ATOM     17  O   UNL     1       0.001   8.507  21.558  0.00  0.00    +0.000 OA
ATOM     18  N   UNL     1       1.631   7.743  20.142  0.00  0.00    +0.000 N 
ATOM     19  H   UNL     1       2.335   8.016  19.460  0.00  0.00    +0.000 HD
BRANCH  18  20
ATOM     20  C   UNL     1       1.693   6.397  20.688  0.00  0.00    +0.000 C 
BRANCH  20  21
ATOM     21  C   UNL     1       2.237   5.390  19.702  0.00  0.00    +0.000 A 
ATOM     22  C   UNL     1       1.611   4.158  19.491  0.00  0.00    +0.000 A 
ATOM     23  C   UNL     1       2.132   3.254  18.562  0.00  0.00    +0.000 A 
ATOM     24  C   UNL     1       3.293   3.569  17.846  0.00  0.00    +0.000 A 
ATOM     25  C   UNL     1       3.955   4.788  18.031  0.00  0.00    +0.000 A 
ATOM     26  C   UNL     1       3.399   5.685  18.963  0.00  0.00    +0.000 A 
BRANCH  25  27
ATOM     27  N   UNL     1       5.134   5.096  17.382  0.00  0.00    +0.000 N 
ATOM     28  C   UNL     1       5.170   5.760  16.074  0.00  0.00    +0.000 C 
ATOM     29  C   UNL     1       6.291   5.120  15.236  0.00  0.00    +0.000 C 
ATOM     30  O   UNL     1       7.565   5.190  15.905  0.00  0.00    +0.000 OA
ATOM     31  C   UNL     1       7.502   4.510  17.173  0.00  0.00    +0.000 C 
ATOM     32  C   UNL     1       6.426   5.117  18.088  0.00  0.00    +0.000 C 
ENDBRANCH  25  27
ENDBRANCH  20  21
ENDBRANCH  18  20
ENDBRANCH   1  16
BRANCH   1  33
ATOM     33  C   UNL     1       0.255  10.133  18.559  0.00  0.00    +0.000 C 
BRANCH  33  34
ATOM     34  C   UNL     1      -1.255  10.360  18.676  0.00  0.00    +0.000 C 
BRANCH  34  35
ATOM     35  C   UNL     1      -2.051  10.578  17.406  0.00  0.00    +0.000 C 
ATOM     36  N   UNL     1      -2.601  11.801  17.190  0.00  0.00    +0.000 N 
ATOM     37  O   UNL     1      -2.115   9.720  16.528  0.00  0.00    +0.000 OA
ATOM     38  H   UNL     1      -2.516  12.588  17.815  0.00  0.00    +0.000 HD
ATOM     39  H   UNL     1      -3.035  11.947  16.286  0.00  0.00    +0.000 HD
ENDBRANCH  34  35
ENDBRANCH  33  34
ENDBRANCH   1  33
TORSDOF 11
ENDMDL
MODEL 4
REMARK VINA RESULT:      -8.2      0.947      1.250
REMARK  Name = 
REMARK  13 active torsions:
REMARK  status: ('A' for Active; 'I' for Inactive)
REMARK    1  A    between atoms: C_1  and  N_2
REMARK    2  A    between atoms: N_2  and  C_3
REMARK    3  A    between atoms: N_2  and  C_4
REMARK    4  A    between atoms: C_7  and  C_8
REMARK    5  A    between atoms: C_8  and  C_9
REMARK    6  A    between atoms: N_11  and  C_12
REMARK    7  A    between atoms: C_12  and  C_13
REMARK    8  A    between atoms: C_12  and  C_18
REMARK    9  A    between atoms: C_13  and  C_14
REMARK   10  A    between atoms: C_14  and  C_15
REMARK   11  A    between atoms: N_20  and  C_21
REMARK   12  A    between atoms: C_21  and  C_22
REMARK   13  A    between atoms: C_26  and  N_27
REMARK                            x       y       z     vdW  Elec       q    Type
REMARK                         _______ _______ _______ _____ _____    ______ ____
ROOT
ATOM      1  C   UNL     1       6.648   5.447  18.276  0.00  0.00    +0.000 C 
ENDROOT
BRANCH   1   4
ATOM      2  C   UNL     1       7.893   7.616  18.150  0.00  0.00    +0.000 C 
ATOM      3  O   UNL     1       8.711   7.260  18.994  0.00  0.00    +0.000 OA
ATOM      4  N   UNL     1       6.849   6.808  17.759  0.00  0.00    +0.000 N 
ATOM      5  H   UNL     1       6.194   7.157  17.071  0.00  0.00    +0.000 HD
BRANCH   2   6
ATOM      6  C   UNL     1       7.921   8.992  17.494  0.00  0.00    +0.000 C 
BRANCH   6  10
ATOM      7  C   UNL     1       9.921  12.142  19.828  0.00  0.00    +0.000 A 
ATOM      8  C   UNL     1       9.685  10.854  20.327  0.00  0.00    +0.000 A 
ATOM      9  C   UNL     1       9.017   9.868  19.578  0.00  0.00    +0.000 A 
ATOM     10  C   UNL     1       8.565  10.118  18.276  0.00  0.00    +0.000 A 
ATOM     11  C   UNL     1       8.850  11.370  17.733  0.00  0.00    +0.000 A 
ATOM     12  C   UNL     1       9.509  12.355  18.499  0.00  0.00    +0.000 A 
BRANCH   7  14
ATOM     13  C   UNL     1       9.808  13.902  21.566  0.00  0.00    +0.000 C 
ATOM     14  N   UNL     1      10.560  13.136  20.575  0.00  0.00    +0.000 N 
ATOM     15  C   UNL     1      11.708  13.813  19.972  0.00  0.00    +0.000 C 
ENDBRANCH   7  14
ENDBRANCH   6  10
ENDBRANCH   2   6
ENDBRANCH   1   4
BRANCH   1  16
ATOM     16  C   UNL     1       5.135   5.189  18.509  0.00  0.00    +0.000 C 
ATOM     17  O   UNL     1       4.500   4.392  17.820  0.00  0.00    +0.000 OA
ATOM     18  N   UNL     1       4.544   5.983  19.468  0.00  0.00    +0.000 N 
ATOM     19  H   UNL     1       5.101   6.716  19.900  0.00  0.00    +0.000 HD
BRANCH  18  20
ATOM     20  C   UNL     1       3.123   5.933  19.769  0.00  0.00    +0.000 C 
BRANCH  20  21
ATOM     21  C   UNL     1       2.403   7.209  19.403  0.00  0.00    +0.000 A 
ATOM     22  C   UNL     1       2.548   7.797  18.143  0.00  0.00    +0.000 A 
ATOM     23  C   UNL     1       1.858   8.970  17.829  0.00  0.00    +0.000 A 
ATOM     24  C   UNL     1       1.026   9.574  18.779  0.00  0.00    +0.000 A 
ATOM     25  C   UNL     1       0.857   9.024  20.055  0.00  0.00    +0.000 A 
ATOM     26  C   UNL     1       1.555   7.833  20.337  0.00  0.00    +0.000 A 
BRANCH  25  27
ATOM     27  N   UNL     1       0.092   9.632  21.029  0.00  0.00    +0.000 N 
ATOM     28  C   UNL     1      -0.566  10.929  20.827  0.00  0.00    +0.000 C 
ATOM     29  C   UNL     1      -0.443  11.743  22.127  0.00  0.00    +0.000 C 
ATOM     30  O   UNL     1      -0.992  11.036  23.255  0.00  0.00    +0.000 OA
ATOM     31  C   UNL     1      -0.310   9.781  23.440  0.00  0.00    +0.000 C 
ATOM     32  C   UNL     1      -0.420   8.889  22.192  0.00  0.00    +0.000 C 
ENDBRANCH  25  27
ENDBRANCH  20  21
ENDBRANCH  18  20
ENDBRANCH   1  16
BRANCH   1  33
ATOM     33  C   UNL     1       7.241   4.425  17.276  0.00  0.00    +0.000 C 
BRANCH  33  34
ATOM     34  C   UNL     1       7.318   5.031  15.870  0.00  0.00    +0.000 C 
BRANCH  34  35
ATOM     35  C   UNL     1       6.028   5.247  15.108  0.00  0.00    +0.000 C 
ATOM     36  N   UNL     1       5.357   4.158  14.653  0.00  0.00    +0.000 N 
ATOM     37  O   UNL     1       5.526   6.363  14.991  0.00  0.00    +0.000 OA
ATOM     38  H   UNL     1       5.651   3.203  14.789  0.00  0.00    +0.000 HD
ATOM     39  H   UNL     1       4.447   4.328  14.241  0.00  0.00    +0.000 HD
ENDBRANCH  34  35
ENDBRANCH  33  34
ENDBRANCH   1  33
TORSDOF 11
ENDMDL
MODEL 5
REMARK VINA RESULT:      -8.1      4.488      9.939
REMARK  Name = 
REMARK  13 active torsions:
REMARK  status: ('A' for Active; 'I' for Inactive)
REMARK    1  A    between atoms: C_1  and  N_2
REMARK    2  A    between atoms: N_2  and  C_3
REMARK    3  A    between atoms: N_2  and  C_4
REMARK    4  A    between atoms: C_7  and  C_8
REMARK    5  A    between atoms: C_8  and  C_9
REMARK    6  A    between atoms: N_11  and  C_12
REMARK    7  A    between atoms: C_12  and  C_13
REMARK    8  A    between atoms: C_12  and  C_18
REMARK    9  A    between atoms: C_13  and  C_14
REMARK   10  A    between atoms: C_14  and  C_15
REMARK   11  A    between atoms: N_20  and  C_21
REMARK   12  A    between atoms: C_21  and  C_22
REMARK   13  A    between atoms: C_26  and  N_27
REMARK                            x       y       z     vdW  Elec       q    Type
REMARK                         _______ _______ _______ _____ _____    ______ ____
ROOT
ATOM      1  C   UNL     1       0.745   9.654  20.846  0.00  0.00    +0.000 C 
ENDROOT
BRANCH   1   4
ATOM      2  C   UNL     1      -0.510  10.534  22.827  0.00  0.00    +0.000 C 
ATOM      3  O   UNL     1       0.284  10.036  23.621  0.00  0.00    +0.000 OA
ATOM      4  N   UNL     1      -0.373  10.380  21.465  0.00  0.00    +0.000 N 
ATOM      5  H   UNL     1      -1.064  10.798  20.856  0.00  0.00    +0.000 HD
BRANCH   2   6
ATOM      6  C   UNL     1      -1.739  11.322  23.264  0.00  0.00    +0.000 C 
BRANCH   6  10
ATOM      7  C   UNL     1      -2.524  15.267  21.477  0.00  0.00    +0.000 A 
ATOM      8  C   UNL     1      -3.313  14.139  21.216  0.00  0.00    +0.000 A 
ATOM      9  C   UNL     1      -3.030  12.878  21.772  0.00  0.00    +0.000 A 
ATOM     10  C   UNL     1      -1.946  12.686  22.638  0.00  0.00    +0.000 A 
ATOM     11  C   UNL     1      -1.188  13.809  22.968  0.00  0.00    +0.000 A 
ATOM     12  C   UNL     1      -1.474  15.065  22.393  0.00  0.00    +0.000 A 
BRANCH   7  14
ATOM     13  C   UNL     1      -2.068  17.699  21.387  0.00  0.00    +0.000 C 
ATOM     14  N   UNL     1      -2.782  16.518  20.908  0.00  0.00    +0.000 N 
ATOM     15  C   UNL     1      -4.111  16.751  20.343  0.00  0.00    +0.000 C 
ENDBRANCH   7  14
ENDBRANCH   6  10
ENDBRANCH   2   6
ENDBRANCH   1   4
BRANCH   1  16
ATOM     16  C   UNL     1       0.541   8.125  21.018  0.00  0.00    +0.000 C 
ATOM     17  O   UNL     1      -0.516   7.656  21.441  0.00  0.00    +0.000 OA
ATOM     18  N   UNL     1       1.650   7.350  20.760  0.00  0.00    +0.000 N 
ATOM     19  H   UNL     1       2.529   7.817  20.549  0.00  0.00    +0.000 HD
BRANCH  18  20
ATOM     20  C   UNL     1       1.666   5.908  20.938  0.00  0.00    +0.000 C 
BRANCH  20  21
ATOM     21  C   UNL     1       2.118   5.170  19.700  0.00  0.00    +0.000 A 
ATOM     22  C   UNL     1       1.382   4.107  19.170  0.00  0.00    +0.000 A 
ATOM     23  C   UNL     1       1.819   3.453  18.016  0.00  0.00    +0.000 A 
ATOM     24  C   UNL     1       3.006   3.850  17.388  0.00  0.00    +0.000 A 
ATOM     25  C   UNL     1       3.778   4.905  17.888  0.00  0.00    +0.000 A 
ATOM     26  C   UNL     1       3.304   5.553  19.045  0.00  0.00    +0.000 A 
BRANCH  25  27
ATOM     27  N   UNL     1       4.982   5.275  17.323  0.00  0.00    +0.000 N 
ATOM     28  C   UNL     1       5.071   6.058  16.085  0.00  0.00    +0.000 C 
ATOM     29  C   UNL     1       6.231   5.501  15.241  0.00  0.00    +0.000 C 
ATOM     30  O   UNL     1       7.473   5.511  15.969  0.00  0.00    +0.000 OA
ATOM     31  C   UNL     1       7.360   4.716  17.164  0.00  0.00    +0.000 C 
ATOM     32  C   UNL     1       6.242   5.233  18.084  0.00  0.00    +0.000 C 
ENDBRANCH  25  27
ENDBRANCH  20  21
ENDBRANCH  18  20
ENDBRANCH   1  16
BRANCH   1  33
ATOM     33  C   UNL     1       0.842  10.040  19.350  0.00  0.00    +0.000 C 
BRANCH  33  34
ATOM     34  C   UNL     1       0.454  11.509  19.148  0.00  0.00    +0.000 C 
BRANCH  34  35
ATOM     35  C   UNL     1      -0.895  11.818  18.535  0.00  0.00    +0.000 C 
ATOM     36  N   UNL     1      -0.974  12.814  17.616  0.00  0.00    +0.000 N 
ATOM     37  O   UNL     1      -1.884  11.125  18.766  0.00  0.00    +0.000 OA
ATOM     38  H   UNL     1      -0.193  13.369  17.300  0.00  0.00    +0.000 HD
ATOM     39  H   UNL     1      -1.866  12.926  17.148  0.00  0.00    +0.000 HD
ENDBRANCH  34  35
ENDBRANCH  33  34
ENDBRANCH   1  33
TORSDOF 11
ENDMDL
MODEL 6
REMARK VINA RESULT:      -8.0      4.314      7.067
REMARK  Name = 
REMARK  13 active torsions:
REMARK  status: ('A' for Active; 'I' for Inactive)
REMARK    1  A    between atoms: C_1  and  N_2
REMARK    2  A    between atoms: N_2  and  C_3
REMARK    3  A    between atoms: N_2  and  C_4
REMARK    4  A    between atoms: C_7  and  C_8
REMARK    5  A    between atoms: C_8  and  C_9
REMARK    6  A    between atoms: N_11  and  C_12
REMARK    7  A    between atoms: C_12  and  C_13
REMARK    8  A    between atoms: C_12  and  C_18
REMARK    9  A    between atoms: C_13  and  C_14
REMARK   10  A    between atoms: C_14  and  C_15
REMARK   11  A    between atoms: N_20  and  C_21
REMARK   12  A    between atoms: C_21  and  C_22
REMARK   13  A    between atoms: C_26  and  N_27
REMARK                            x       y       z     vdW  Elec       q    Type
REMARK                         _______ _______ _______ _____ _____    ______ ____
ROOT
ATOM      1  C   UNL     1       3.175   6.433  18.593  0.00  0.00    +0.000 C 
ENDROOT
BRANCH   1   4
ATOM      2  C   UNL     1       5.558   5.770  18.202  0.00  0.00    +0.000 C 
ATOM      3  O   UNL     1       5.687   5.350  19.348  0.00  0.00    +0.000 OA
ATOM      4  N   UNL     1       4.380   6.330  17.759  0.00  0.00    +0.000 N 
ATOM      5  H   UNL     1       4.333   6.676  16.808  0.00  0.00    +0.000 HD
BRANCH   2   6
ATOM      6  C   UNL     1       6.689   5.760  17.180  0.00  0.00    +0.000 C 
BRANCH   6  10
ATOM      7  C   UNL     1       6.031   3.873  13.258  0.00  0.00    +0.000 A 
ATOM      8  C   UNL     1       7.138   4.685  13.540  0.00  0.00    +0.000 A 
ATOM      9  C   UNL     1       7.317   5.305  14.790  0.00  0.00    +0.000 A 
ATOM     10  C   UNL     1       6.400   5.128  15.834  0.00  0.00    +0.000 A 
ATOM     11  C   UNL     1       5.327   4.269  15.600  0.00  0.00    +0.000 A 
ATOM     12  C   UNL     1       5.151   3.663  14.337  0.00  0.00    +0.000 A 
BRANCH   7  14
ATOM     13  C   UNL     1       4.479   3.143  11.473  0.00  0.00    +0.000 C 
ATOM     14  N   UNL     1       5.831   3.275  12.011  0.00  0.00    +0.000 N 
ATOM     15  C   UNL     1       6.803   2.276  11.567  0.00  0.00    +0.000 C 
ENDBRANCH   7  14
ENDBRANCH   6  10
ENDBRANCH   2   6
ENDBRANCH   1   4
BRANCH   1  16
ATOM     16  C   UNL     1       2.475   7.796  18.342  0.00  0.00    +0.000 C 
ATOM     17  O   UNL     1       2.622   8.416  17.289  0.00  0.00    +0.000 OA
ATOM     18  N   UNL     1       1.766   8.299  19.411  0.00  0.00    +0.000 N 
ATOM     19  H   UNL     1       1.803   7.798  20.295  0.00  0.00    +0.000 HD
BRANCH  18  20
ATOM     20  C   UNL     1       1.108   9.594  19.384  0.00  0.00    +0.000 C 
BRANCH  20  21
ATOM     21  C   UNL     1       0.413   9.925  20.684  0.00  0.00    +0.000 A 
ATOM     22  C   UNL     1       0.345   9.003  21.733  0.00  0.00    +0.000 A 
ATOM     23  C   UNL     1      -0.292   9.344  22.929  0.00  0.00    +0.000 A 
ATOM     24  C   UNL     1      -0.880  10.605  23.080  0.00  0.00    +0.000 A 
ATOM     25  C   UNL     1      -0.841  11.555  22.053  0.00  0.00    +0.000 A 
ATOM     26  C   UNL     1      -0.179  11.188  20.865  0.00  0.00    +0.000 A 
BRANCH  25  27
ATOM     27  N   UNL     1      -1.466  12.782  22.155  0.00  0.00    +0.000 N 
ATOM     28  C   UNL     1      -2.477  13.240  21.195  0.00  0.00    +0.000 C 
ATOM     29  C   UNL     1      -2.248  14.738  20.927  0.00  0.00    +0.000 C 
ATOM     30  O   UNL     1      -2.279  15.509  22.143  0.00  0.00    +0.000 OA
ATOM     31  C   UNL     1      -1.261  15.050  23.052  0.00  0.00    +0.000 C 
ATOM     32  C   UNL     1      -1.442  13.564  23.402  0.00  0.00    +0.000 C 
ENDBRANCH  25  27
ENDBRANCH  20  21
ENDBRANCH  18  20
ENDBRANCH   1  16
BRANCH   1  33
ATOM     33  C   UNL     1       2.227   5.251  18.273  0.00  0.00    +0.000 C 
BRANCH  33  34
ATOM     34  C   UNL     1       2.500   4.074  19.216  0.00  0.00    +0.000 C 
BRANCH  34  35
ATOM     35  C   UNL     1       1.327   3.235  19.677  0.00  0.00    +0.000 C 
ATOM     36  N   UNL     1       0.738   2.402  18.781  0.00  0.00    +0.000 N 
ATOM     37  O   UNL     1       0.973   3.210  20.854  0.00  0.00    +0.000 OA
ATOM     38  H   UNL     1       1.027   2.291  17.821  0.00  0.00    +0.000 HD
ATOM     39  H   UNL     1       0.027   1.778  19.145  0.00  0.00    +0.000 HD
ENDBRANCH  34  35
ENDBRANCH  33  34
ENDBRANCH   1  33
TORSDOF 11
ENDMDL
MODEL 7
REMARK VINA RESULT:      -7.9      3.983      9.658
REMARK  Name = 
REMARK  13 active torsions:
REMARK  status: ('A' for Active; 'I' for Inactive)
REMARK    1  A    between atoms: C_1  and  N_2
REMARK    2  A    between atoms: N_2  and  C_3
REMARK    3  A    between atoms: N_2  and  C_4
REMARK    4  A    between atoms: C_7  and  C_8
REMARK    5  A    between atoms: C_8  and  C_9
REMARK    6  A    between atoms: N_11  and  C_12
REMARK    7  A    between atoms: C_12  and  C_13
REMARK    8  A    between atoms: C_12  and  C_18
REMARK    9  A    between atoms: C_13  and  C_14
REMARK   10  A    between atoms: C_14  and  C_15
REMARK   11  A    between atoms: N_20  and  C_21
REMARK   12  A    between atoms: C_21  and  C_22
REMARK   13  A    between atoms: C_26  and  N_27
REMARK                            x       y       z     vdW  Elec       q    Type
REMARK                         _______ _______ _______ _____ _____    ______ ____
ROOT
ATOM      1  C   UNL     1       0.813   9.624  20.792  0.00  0.00    +0.000 C 
ENDROOT
BRANCH   1   4
ATOM      2  C   UNL     1      -0.461  10.510  22.758  0.00  0.00    +0.000 C 
ATOM      3  O   UNL     1       0.332  10.025  23.560  0.00  0.00    +0.000 OA
ATOM      4  N   UNL     1      -0.314  10.345  21.398  0.00  0.00    +0.000 N 
ATOM      5  H   UNL     1      -1.006  10.752  20.781  0.00  0.00    +0.000 HD
BRANCH   2   6
ATOM      6  C   UNL     1      -1.700  11.290  23.181  0.00  0.00    +0.000 C 
BRANCH   6  10
ATOM      7  C   UNL     1      -2.155  15.236  21.285  0.00  0.00    +0.000 A 
ATOM      8  C   UNL     1      -1.218  14.976  22.293  0.00  0.00    +0.000 A 
ATOM      9  C   UNL     1      -1.107  13.716  22.910  0.00  0.00    +0.000 A 
ATOM     10  C   UNL     1      -1.921  12.641  22.532  0.00  0.00    +0.000 A 
ATOM     11  C   UNL     1      -2.814  12.856  21.483  0.00  0.00    +0.000 A 
ATOM     12  C   UNL     1      -2.926  14.128  20.881  0.00  0.00    +0.000 A 
BRANCH   7  14
ATOM     13  C   UNL     1      -1.361  16.906  19.639  0.00  0.00    +0.000 C 
ATOM     14  N   UNL     1      -2.292  16.491  20.685  0.00  0.00    +0.000 N 
ATOM     15  C   UNL     1      -2.894  17.565  21.476  0.00  0.00    +0.000 C 
ENDBRANCH   7  14
ENDBRANCH   6  10
ENDBRANCH   2   6
ENDBRANCH   1   4
BRANCH   1  16
ATOM     16  C   UNL     1       0.627   8.095  20.986  0.00  0.00    +0.000 C 
ATOM     17  O   UNL     1      -0.394   7.625  21.487  0.00  0.00    +0.000 OA
ATOM     18  N   UNL     1       1.717   7.322  20.650  0.00  0.00    +0.000 N 
ATOM     19  H   UNL     1       2.576   7.790  20.373  0.00  0.00    +0.000 HD
BRANCH  18  20
ATOM     20  C   UNL     1       1.751   5.881  20.833  0.00  0.00    +0.000 C 
BRANCH  20  21
ATOM     21  C   UNL     1       2.161   5.142  19.581  0.00  0.00    +0.000 A 
ATOM     22  C   UNL     1       1.464   4.015  19.134  0.00  0.00    +0.000 A 
ATOM     23  C   UNL     1       1.860   3.361  17.965  0.00  0.00    +0.000 A 
ATOM     24  C   UNL     1       2.966   3.820  17.240  0.00  0.00    +0.000 A 
ATOM     25  C   UNL     1       3.697   4.940  17.656  0.00  0.00    +0.000 A 
ATOM     26  C   UNL     1       3.265   5.586  18.830  0.00  0.00    +0.000 A 
BRANCH  25  27
ATOM     27  N   UNL     1       4.827   5.375  16.993  0.00  0.00    +0.000 N 
ATOM     28  C   UNL     1       5.348   4.711  15.793  0.00  0.00    +0.000 C 
ATOM     29  C   UNL     1       6.885   4.687  15.880  0.00  0.00    +0.000 C 
ATOM     30  O   UNL     1       7.431   6.011  16.038  0.00  0.00    +0.000 OA
ATOM     31  C   UNL     1       6.917   6.625  17.235  0.00  0.00    +0.000 C 
ATOM     32  C   UNL     1       5.383   6.721  17.209  0.00  0.00    +0.000 C 
ENDBRANCH  25  27
ENDBRANCH  20  21
ENDBRANCH  18  20
ENDBRANCH   1  16
BRANCH   1  33
ATOM     33  C   UNL     1       0.909   9.990  19.291  0.00  0.00    +0.000 C 
BRANCH  33  34
ATOM     34  C   UNL     1       0.256  11.351  19.027  0.00  0.00    +0.000 C 
BRANCH  34  35
ATOM     35  C   UNL     1       1.142  12.579  18.993  0.00  0.00    +0.000 C 
ATOM     36  N   UNL     1       0.629  13.758  19.426  0.00  0.00    +0.000 N 
ATOM     37  O   UNL     1       2.331  12.509  18.689  0.00  0.00    +0.000 OA
ATOM     38  H   UNL     1      -0.308  13.882  19.780  0.00  0.00    +0.000 HD
ATOM     39  H   UNL     1       1.276  14.535  19.491  0.00  0.00    +0.000 HD
ENDBRANCH  34  35
ENDBRANCH  33  34
ENDBRANCH   1  33
TORSDOF 11
ENDMDL
MODEL 8
REMARK VINA RESULT:      -7.9      4.302      6.907
REMARK  Name = 
REMARK  13 active torsions:
REMARK  status: ('A' for Active; 'I' for Inactive)
REMARK    1  A    between atoms: C_1  and  N_2
REMARK    2  A    between atoms: N_2  and  C_3
REMARK    3  A    between atoms: N_2  and  C_4
REMARK    4  A    between atoms: C_7  and  C_8
REMARK    5  A    between atoms: C_8  and  C_9
REMARK    6  A    between atoms: N_11  and  C_12
REMARK    7  A    between atoms: C_12  and  C_13
REMARK    8  A    between atoms: C_12  and  C_18
REMARK    9  A    between atoms: C_13  and  C_14
REMARK   10  A    between atoms: C_14  and  C_15
REMARK   11  A    between atoms: N_20  and  C_21
REMARK   12  A    between atoms: C_21  and  C_22
REMARK   13  A    between atoms: C_26  and  N_27
REMARK                            x       y       z     vdW  Elec       q    Type
REMARK                         _______ _______ _______ _____ _____    ______ ____
ROOT
ATOM      1  C   UNL     1       3.470   6.461  18.404  0.00  0.00    +0.000 C 
ENDROOT
BRANCH   1   4
ATOM      2  C   UNL     1       5.816   5.756  17.881  0.00  0.00    +0.000 C 
ATOM      3  O   UNL     1       5.972   5.256  18.991  0.00  0.00    +0.000 OA
ATOM      4  N   UNL     1       4.641   6.379  17.521  0.00  0.00    +0.000 N 
ATOM      5  H   UNL     1       4.571   6.789  16.598  0.00  0.00    +0.000 HD
BRANCH   2   6
ATOM      6  C   UNL     1       6.909   5.783  16.819  0.00  0.00    +0.000 C 
BRANCH   6  10
ATOM      7  C   UNL     1       5.910   3.727  13.057  0.00  0.00    +0.000 A 
ATOM      8  C   UNL     1       5.118   3.639  14.210  0.00  0.00    +0.000 A 
ATOM      9  C   UNL     1       5.468   4.278  15.413  0.00  0.00    +0.000 A 
ATOM     10  C   UNL     1       6.627   5.058  15.518  0.00  0.00    +0.000 A 
ATOM     11  C   UNL     1       7.394   5.217  14.365  0.00  0.00    +0.000 A 
ATOM     12  C   UNL     1       7.040   4.561  13.168  0.00  0.00    +0.000 A 
BRANCH   7  14
ATOM     13  C   UNL     1       4.253   3.234  11.285  0.00  0.00    +0.000 C 
ATOM     14  N   UNL     1       5.584   3.074  11.865  0.00  0.00    +0.000 N 
ATOM     15  C   UNL     1       6.274   1.820  11.562  0.00  0.00    +0.000 C 
ENDBRANCH   7  14
ENDBRANCH   6  10
ENDBRANCH   2   6
ENDBRANCH   1   4
BRANCH   1  16
ATOM     16  C   UNL     1       2.719   7.798  18.163  0.00  0.00    +0.000 C 
ATOM     17  O   UNL     1       2.986   8.527  17.208  0.00  0.00    +0.000 OA
ATOM     18  N   UNL     1       1.813   8.149  19.140  0.00  0.00    +0.000 N 
ATOM     19  H   UNL     1       1.746   7.565  19.970  0.00  0.00    +0.000 HD
BRANCH  18  20
ATOM     20  C   UNL     1       1.073   9.399  19.119  0.00  0.00    +0.000 C 
BRANCH  20  21
ATOM     21  C   UNL     1       0.484   9.752  20.465  0.00  0.00    +0.000 A 
ATOM     22  C   UNL     1       0.671   8.935  21.584  0.00  0.00    +0.000 A 
ATOM     23  C   UNL     1       0.124   9.296  22.818  0.00  0.00    +0.000 A 
ATOM     24  C   UNL     1      -0.626  10.471  22.940  0.00  0.00    +0.000 A 
ATOM     25  C   UNL     1      -0.844  11.315  21.844  0.00  0.00    +0.000 A 
ATOM     26  C   UNL     1      -0.269  10.931  20.617  0.00  0.00    +0.000 A 
BRANCH  25  27
ATOM     27  N   UNL     1      -1.630  12.446  21.925  0.00  0.00    +0.000 N 
ATOM     28  C   UNL     1      -2.940  12.457  22.587  0.00  0.00    +0.000 C 
ATOM     29  C   UNL     1      -3.899  13.324  21.752  0.00  0.00    +0.000 C 
ATOM     30  O   UNL     1      -3.386  14.656  21.562  0.00  0.00    +0.000 OA
ATOM     31  C   UNL     1      -2.113  14.611  20.890  0.00  0.00    +0.000 C 
ATOM     32  C   UNL     1      -1.083  13.791  21.684  0.00  0.00    +0.000 C 
ENDBRANCH  25  27
ENDBRANCH  20  21
ENDBRANCH  18  20
ENDBRANCH   1  16
BRANCH   1  33
ATOM     33  C   UNL     1       2.546   5.246  18.144  0.00  0.00    +0.000 C 
BRANCH  33  34
ATOM     34  C   UNL     1       2.394   4.405  19.416  0.00  0.00    +0.000 C 
BRANCH  34  35
ATOM     35  C   UNL     1       3.227   3.147  19.550  0.00  0.00    +0.000 C 
ATOM     36  N   UNL     1       3.721   2.576  18.422  0.00  0.00    +0.000 N 
ATOM     37  O   UNL     1       3.551   2.702  20.649  0.00  0.00    +0.000 OA
ATOM     38  H   UNL     1       3.580   2.931  17.489  0.00  0.00    +0.000 HD
ATOM     39  H   UNL     1       4.360   1.800  18.552  0.00  0.00    +0.000 HD
ENDBRANCH  34  35
ENDBRANCH  33  34
ENDBRANCH   1  33
TORSDOF 11
ENDMDL
MODEL 9
REMARK VINA RESULT:      -7.8      4.012     10.455
REMARK  Name = 
REMARK  13 active torsions:
REMARK  status: ('A' for Active; 'I' for Inactive)
REMARK    1  A    between atoms: C_1  and  N_2
REMARK    2  A    between atoms: N_2  and  C_3
REMARK    3  A    between atoms: N_2  and  C_4
REMARK    4  A    between atoms: C_7  and  C_8
REMARK    5  A    between atoms: C_8  and  C_9
REMARK    6  A    between atoms: N_11  and  C_12
REMARK    7  A    between atoms: C_12  and  C_13
REMARK    8  A    between atoms: C_12  and  C_18
REMARK    9  A    between atoms: C_13  and  C_14
REMARK   10  A    between atoms: C_14  and  C_15
REMARK   11  A    between atoms: N_20  and  C_21
REMARK   12  A    between atoms: C_21  and  C_22
REMARK   13  A    between atoms: C_26  and  N_27
REMARK                            x       y       z     vdW  Elec       q    Type
REMARK                         _______ _______ _______ _____ _____    ______ ____
ROOT
ATOM      1  C   UNL     1       0.852  10.439  20.531  0.00  0.00    +0.000 C 
ENDROOT
BRANCH   1   4
ATOM      2  C   UNL     1       0.342  12.710  21.455  0.00  0.00    +0.000 C 
ATOM      3  O   UNL     1       1.317  13.214  20.906  0.00  0.00    +0.000 OA
ATOM      4  N   UNL     1       0.054  11.368  21.344  0.00  0.00    +0.000 N 
ATOM      5  H   UNL     1      -0.754  11.001  21.830  0.00  0.00    +0.000 HD
BRANCH   2   6
ATOM      6  C   UNL     1      -0.610  13.499  22.347  0.00  0.00    +0.000 C 
BRANCH   6  10
ATOM      7  C   UNL     1      -4.884  12.823  21.539  0.00  0.00    +0.000 A 
ATOM      8  C   UNL     1      -3.991  13.310  20.575  0.00  0.00    +0.000 A 
ATOM      9  C   UNL     1      -2.634  13.550  20.859  0.00  0.00    +0.000 A 
ATOM     10  C   UNL     1      -2.095  13.294  22.126  0.00  0.00    +0.000 A 
ATOM     11  C   UNL     1      -2.947  12.742  23.082  0.00  0.00    +0.000 A 
ATOM     12  C   UNL     1      -4.310  12.519  22.789  0.00  0.00    +0.000 A 
BRANCH   7  14
ATOM     13  C   UNL     1      -7.214  12.663  22.360  0.00  0.00    +0.000 C 
ATOM     14  N   UNL     1      -6.239  12.608  21.273  0.00  0.00    +0.000 N 
ATOM     15  C   UNL     1      -6.586  11.754  20.137  0.00  0.00    +0.000 C 
ENDBRANCH   7  14
ENDBRANCH   6  10
ENDBRANCH   2   6
ENDBRANCH   1   4
BRANCH   1  16
ATOM     16  C   UNL     1       1.194   9.173  21.361  0.00  0.00    +0.000 C 
ATOM     17  O   UNL     1       1.519   9.243  22.545  0.00  0.00    +0.000 OA
ATOM     18  N   UNL     1       1.203   7.991  20.653  0.00  0.00    +0.000 N 
ATOM     19  H   UNL     1       1.060   8.027  19.647  0.00  0.00    +0.000 HD
BRANCH  18  20
ATOM     20  C   UNL     1       1.571   6.717  21.247  0.00  0.00    +0.000 C 
BRANCH  20  21
ATOM     21  C   UNL     1       2.049   5.711  20.226  0.00  0.00    +0.000 A 
ATOM     22  C   UNL     1       1.350   4.526  19.981  0.00  0.00    +0.000 A 
ATOM     23  C   UNL     1       1.811   3.622  19.020  0.00  0.00    +0.000 A 
ATOM     24  C   UNL     1       2.983   3.891  18.305  0.00  0.00    +0.000 A 
ATOM     25  C   UNL     1       3.718   5.062  18.523  0.00  0.00    +0.000 A 
ATOM     26  C   UNL     1       3.221   5.960  19.488  0.00  0.00    +0.000 A 
BRANCH  25  27
ATOM     27  N   UNL     1       4.909   5.321  17.875  0.00  0.00    +0.000 N 
ATOM     28  C   UNL     1       5.992   4.335  17.780  0.00  0.00    +0.000 C 
ATOM     29  C   UNL     1       7.333   5.067  17.963  0.00  0.00    +0.000 C 
ATOM     30  O   UNL     1       7.495   6.131  17.007  0.00  0.00    +0.000 OA
ATOM     31  C   UNL     1       6.432   7.093  17.142  0.00  0.00    +0.000 C 
ATOM     32  C   UNL     1       5.053   6.444  16.934  0.00  0.00    +0.000 C 
ENDBRANCH  25  27
ENDBRANCH  20  21
ENDBRANCH  18  20
ENDBRANCH   1  16
BRANCH   1  33
ATOM     33  C   UNL     1       0.064  10.072  19.249  0.00  0.00    +0.000 C 
BRANCH  33  34
ATOM     34  C   UNL     1      -1.216  10.907  19.148  0.00  0.00    +0.000 C 
BRANCH  34  35
ATOM     35  C   UNL     1      -1.930  10.970  17.814  0.00  0.00    +0.000 C 
ATOM     36  N   UNL     1      -1.930  12.147  17.136  0.00  0.00    +0.000 N 
ATOM     37  O   UNL     1      -2.407   9.967  17.289  0.00  0.00    +0.000 OA
ATOM     38  H   UNL     1      -1.481  12.993  17.452  0.00  0.00    +0.000 HD
ATOM     39  H   UNL     1      -2.323  12.129  16.202  0.00  0.00    +0.000 HD
ENDBRANCH  34  35
ENDBRANCH  33  34
ENDBRANCH   1  33
TORSDOF 11
ENDMDL
