MODEL 1
REMARK VINA RESULT:      -8.5      0.000      0.000
REMARK  Name = 
REMARK  3 active torsions:
REMARK  status: ('A' for Active; 'I' for Inactive)
REMARK    1  A    between atoms: C_1  and  N_2
REMARK    2  A    between atoms: C_9  and  N_10
REMARK    3  A    between atoms: C_11  and  C_13
REMARK                            x       y       z     vdW  Elec       q    Type
REMARK                         _______ _______ _______ _____ _____    ______ ____
ROOT
ATOM      1  C   UNL     1       1.171   8.803  20.487  0.00  0.00    +0.000 A 
ATOM      2  C   UNL     1       1.587   8.631  21.822  0.00  0.00    +0.000 A 
ATOM      3  C   UNL     1       0.942   9.293  22.876  0.00  0.00    +0.000 A 
ATOM      4  C   UNL     1      -0.138  10.155  22.643  0.00  0.00    +0.000 A 
ATOM      5  C   UNL     1      -0.528  10.284  21.315  0.00  0.00    +0.000 A 
ATOM      6  O   UNL     1      -1.537  11.058  20.822  0.00  0.00    +0.000 OA
ATOM      7  C   UNL     1      -1.524  10.812  19.474  0.00  0.00    +0.000 A 
ATOM      8  N   UNL     1      -2.479  11.382  18.724  0.00  0.00    +0.000 N 
ATOM      9  C   UNL     1      -2.612  11.038  17.311  0.00  0.00    +0.000 C 
ATOM     10  C   UNL     1      -4.115  10.931  16.963  0.00  0.00    +0.000 C 
ATOM     11  N   UNL     1      -4.895  12.132  17.330  0.00  0.00    +0.000 NA
ATOM     12  C   UNL     1      -4.669  12.467  18.753  0.00  0.00    +0.000 C 
ATOM     13  C   UNL     1      -3.177  12.593  19.132  0.00  0.00    +0.000 C 
ATOM     14  N   UNL     1      -0.596   9.965  19.088  0.00  0.00    +0.000 NA
ATOM     15  C   UNL     1       0.065   9.636  20.248  0.00  0.00    +0.000 A 
ATOM     16  H   UNL     1      -5.886  11.933  17.195  0.00  0.00    +0.000 HD
ENDROOT
BRANCH   1  18
ATOM     17  N   UNL     1       2.188   6.820  19.534  0.00  0.00    +0.000 N 
ATOM     18  C   UNL     1       1.906   8.155  19.370  0.00  0.00    +0.000 C 
ATOM     19  O   UNL     1       2.229   8.812  18.385  0.00  0.00    +0.000 OA
ATOM     20  H   UNL     1       2.007   6.417  20.453  0.00  0.00    +0.000 HD
BRANCH  17  29
ATOM     21  C   UNL     1       1.281   3.102  20.983  0.00  0.00    +0.000 C 
ATOM     22  N   UNL     1       1.951   3.980  20.038  0.00  0.00    +0.000 NA
ATOM     23  C   UNL     1       3.420   3.966  20.131  0.00  0.00    +0.000 C 
ATOM     24  C   UNL     1       4.002   2.623  19.649  0.00  0.00    +0.000 C 
ATOM     25  C   UNL     1       3.537   2.263  18.236  0.00  0.00    +0.000 C 
ATOM     26  C   UNL     1       2.034   2.482  18.052  0.00  0.00    +0.000 C 
ATOM     27  C   UNL     1       1.534   3.817  18.641  0.00  0.00    +0.000 C 
ATOM     28  C   UNL     1       2.011   5.050  17.822  0.00  0.00    +0.000 C 
ATOM     29  C   UNL     1       2.954   5.986  18.614  0.00  0.00    +0.000 C 
ATOM     30  C   UNL     1       4.022   5.142  19.322  0.00  0.00    +0.000 C 
ENDBRANCH  17  29
ENDBRANCH   1  18
TORSDOF 2
ENDMDL
MODEL 2
REMARK VINA RESULT:      -8.2      2.770      3.207
REMARK  Name = 
REMARK  3 active torsions:
REMARK  status: ('A' for Active; 'I' for Inactive)
REMARK    1  A    between atoms: C_1  and  N_2
REMARK    2  A    between atoms: C_9  and  N_10
REMARK    3  A    between atoms: C_11  and  C_13
REMARK                            x       y       z     vdW  Elec       q    Type
REMARK                         _______ _______ _______ _____ _____    ______ ____
ROOT
ATOM      1  C   UNL     1       0.846   9.111  20.551  0.00  0.00    +0.000 A 
ATOM      2  C   UNL     1       0.137   8.276  21.438  0.00  0.00    +0.000 A 
ATOM      3  C   UNL     1      -0.558   8.804  22.535  0.00  0.00    +0.000 A 
ATOM      4  C   UNL     1      -0.570  10.181  22.796  0.00  0.00    +0.000 A 
ATOM      5  C   UNL     1       0.126  10.970  21.889  0.00  0.00    +0.000 A 
ATOM      6  O   UNL     1       0.275  12.326  21.917  0.00  0.00    +0.000 OA
ATOM      7  C   UNL     1       1.016  12.608  20.800  0.00  0.00    +0.000 A 
ATOM      8  N   UNL     1       1.253  13.898  20.515  0.00  0.00    +0.000 N 
ATOM      9  C   UNL     1       1.903  14.269  19.261  0.00  0.00    +0.000 C 
ATOM     10  C   UNL     1       1.221  15.540  18.703  0.00  0.00    +0.000 C 
ATOM     11  N   UNL     1       1.169  16.658  19.669  0.00  0.00    +0.000 NA
ATOM     12  C   UNL     1       0.561  16.204  20.938  0.00  0.00    +0.000 C 
ATOM     13  C   UNL     1       1.227  14.942  21.530  0.00  0.00    +0.000 C 
ATOM     14  N   UNL     1       1.347  11.554  20.090  0.00  0.00    +0.000 NA
ATOM     15  C   UNL     1       0.807  10.496  20.784  0.00  0.00    +0.000 A 
ATOM     16  H   UNL     1       0.592  17.402  19.278  0.00  0.00    +0.000 HD
ENDROOT
BRANCH   1  18
ATOM     17  N   UNL     1       2.199   7.304  19.669  0.00  0.00    +0.000 N 
ATOM     18  C   UNL     1       1.639   8.537  19.434  0.00  0.00    +0.000 C 
ATOM     19  O   UNL     1       1.767   9.163  18.386  0.00  0.00    +0.000 OA
ATOM     20  H   UNL     1       2.153   6.948  20.624  0.00  0.00    +0.000 HD
BRANCH  17  29
ATOM     21  C   UNL     1       1.109   3.457  20.545  0.00  0.00    +0.000 C 
ATOM     22  N   UNL     1       1.893   4.429  19.800  0.00  0.00    +0.000 NA
ATOM     23  C   UNL     1       3.339   4.378  20.072  0.00  0.00    +0.000 C 
ATOM     24  C   UNL     1       3.974   3.092  19.510  0.00  0.00    +0.000 C 
ATOM     25  C   UNL     1       3.686   2.907  18.018  0.00  0.00    +0.000 C 
ATOM     26  C   UNL     1       2.219   3.172  17.676  0.00  0.00    +0.000 C 
ATOM     27  C   UNL     1       1.653   4.438  18.353  0.00  0.00    +0.000 C 
ATOM     28  C   UNL     1       2.232   5.750  17.751  0.00  0.00    +0.000 C 
ATOM     29  C   UNL     1       3.072   6.570  18.759  0.00  0.00    +0.000 C 
ATOM     30  C   UNL     1       4.040   5.631  19.488  0.00  0.00    +0.000 C 
ENDBRANCH  17  29
ENDBRANCH   1  18
TORSDOF 2
ENDMDL
MODEL 3
REMARK VINA RESULT:      -7.8      3.920      8.389
REMARK  Name = 
REMARK  3 active torsions:
REMARK  status: ('A' for Active; 'I' for Inactive)
REMARK    1  A    between atoms: C_1  and  N_2
REMARK    2  A    between atoms: C_9  and  N_10
REMARK    3  A    between atoms: C_11  and  C_13
REMARK                            x       y       z     vdW  Elec       q    Type
REMARK                         _______ _______ _______ _____ _____    ______ ____
ROOT
ATOM      1  C   UNL     1      -0.151  11.042  20.921  0.00  0.00    +0.000 A 
ATOM      2  C   UNL     1      -0.722  11.250  22.192  0.00  0.00    +0.000 A 
ATOM      3  C   UNL     1      -0.656  10.267  23.190  0.00  0.00    +0.000 A 
ATOM      4  C   UNL     1      -0.025   9.038  22.960  0.00  0.00    +0.000 A 
ATOM      5  C   UNL     1       0.539   8.878  21.700  0.00  0.00    +0.000 A 
ATOM      6  O   UNL     1       1.200   7.784  21.224  0.00  0.00    +0.000 OA
ATOM      7  C   UNL     1       1.575   8.142  19.955  0.00  0.00    +0.000 A 
ATOM      8  N   UNL     1       2.329   7.278  19.258  0.00  0.00    +0.000 N 
ATOM      9  C   UNL     1       2.887   7.662  17.964  0.00  0.00    +0.000 C 
ATOM     10  C   UNL     1       4.328   7.111  17.859  0.00  0.00    +0.000 C 
ATOM     11  N   UNL     1       4.426   5.657  18.110  0.00  0.00    +0.000 NA
ATOM     12  C   UNL     1       3.788   5.322  19.402  0.00  0.00    +0.000 C 
ATOM     13  C   UNL     1       2.341   5.848  19.535  0.00  0.00    +0.000 C 
ATOM     14  N   UNL     1       1.200   9.350  19.601  0.00  0.00    +0.000 NA
ATOM     15  C   UNL     1       0.516   9.826  20.695  0.00  0.00    +0.000 A 
ATOM     16  H   UNL     1       5.411   5.399  18.156  0.00  0.00    +0.000 HD
ENDROOT
BRANCH   1  18
ATOM     17  N   UNL     1       0.884  12.606  19.386  0.00  0.00    +0.000 N 
ATOM     18  C   UNL     1      -0.289  12.059  19.847  0.00  0.00    +0.000 C 
ATOM     19  O   UNL     1      -1.402  12.366  19.431  0.00  0.00    +0.000 OA
ATOM     20  H   UNL     1       1.734  12.387  19.907  0.00  0.00    +0.000 HD
BRANCH  17  29
ATOM     21  C   UNL     1       4.124  14.631  20.855  0.00  0.00    +0.000 C 
ATOM     22  N   UNL     1       3.074  14.436  19.867  0.00  0.00    +0.000 NA
ATOM     23  C   UNL     1       2.067  15.509  19.832  0.00  0.00    +0.000 C 
ATOM     24  C   UNL     1       2.660  16.820  19.281  0.00  0.00    +0.000 C 
ATOM     25  C   UNL     1       3.312  16.630  17.909  0.00  0.00    +0.000 C 
ATOM     26  C   UNL     1       4.199  15.385  17.860  0.00  0.00    +0.000 C 
ATOM     27  C   UNL     1       3.549  14.146  18.510  0.00  0.00    +0.000 C 
ATOM     28  C   UNL     1       2.370  13.577  17.671  0.00  0.00    +0.000 C 
ATOM     29  C   UNL     1       1.004  13.666  18.392  0.00  0.00    +0.000 C 
ATOM     30  C   UNL     1       0.843  15.069  18.991  0.00  0.00    +0.000 C 
ENDBRANCH  17  29
ENDBRANCH   1  18
TORSDOF 2
ENDMDL
MODEL 4
REMARK VINA RESULT:      -7.7      3.220      9.140
REMARK  Name = 
REMARK  3 active torsions:
REMARK  status: ('A' for Active; 'I' for Inactive)
REMARK    1  A    between atoms: C_1  and  N_2
REMARK    2  A    between atoms: C_9  and  N_10
REMARK    3  A    between atoms: C_11  and  C_13
REMARK                            x       y       z     vdW  Elec       q    Type
REMARK                         _______ _______ _______ _____ _____    ______ ____
ROOT
ATOM      1  C   UNL     1      -4.153  11.507  17.852  0.00  0.00    +0.000 A 
ATOM      2  C   UNL     1      -4.619  11.500  16.522  0.00  0.00    +0.000 A 
ATOM      3  C   UNL     1      -3.850  10.956  15.484  0.00  0.00    +0.000 A 
ATOM      4  C   UNL     1      -2.586  10.402  15.728  0.00  0.00    +0.000 A 
ATOM      5  C   UNL     1      -2.170  10.412  17.054  0.00  0.00    +0.000 A 
ATOM      6  O   UNL     1      -0.991   9.945  17.554  0.00  0.00    +0.000 OA
ATOM      7  C   UNL     1      -1.085  10.164  18.903  0.00  0.00    +0.000 A 
ATOM      8  N   UNL     1      -0.085   9.721  19.681  0.00  0.00    +0.000 N 
ATOM      9  C   UNL     1      -0.197   9.787  21.135  0.00  0.00    +0.000 C 
ATOM     10  C   UNL     1       0.395   8.493  21.740  0.00  0.00    +0.000 C 
ATOM     11  N   UNL     1       1.773   8.203  21.289  0.00  0.00    +0.000 NA
ATOM     12  C   UNL     1       1.835   8.214  19.811  0.00  0.00    +0.000 C 
ATOM     13  C   UNL     1       1.262   9.500  19.174  0.00  0.00    +0.000 C 
ATOM     14  N   UNL     1      -2.207  10.732  19.282  0.00  0.00    +0.000 NA
ATOM     15  C   UNL     1      -2.904  10.919  18.110  0.00  0.00    +0.000 A 
ATOM     16  H   UNL     1       2.038   7.276  21.620  0.00  0.00    +0.000 HD
ENDROOT
BRANCH   1  18
ATOM     17  N   UNL     1      -4.283  13.108  19.667  0.00  0.00    +0.000 N 
ATOM     18  C   UNL     1      -4.943  12.151  18.933  0.00  0.00    +0.000 C 
ATOM     19  O   UNL     1      -6.106  11.814  19.130  0.00  0.00    +0.000 OA
ATOM     20  H   UNL     1      -3.278  13.199  19.514  0.00  0.00    +0.000 HD
BRANCH  17  29
ATOM     21  C   UNL     1      -1.049  13.001  22.173  0.00  0.00    +0.000 C 
ATOM     22  N   UNL     1      -2.414  13.392  21.858  0.00  0.00    +0.000 NA
ATOM     23  C   UNL     1      -3.439  12.750  22.697  0.00  0.00    +0.000 C 
ATOM     24  C   UNL     1      -3.383  13.264  24.148  0.00  0.00    +0.000 C 
ATOM     25  C   UNL     1      -3.482  14.790  24.227  0.00  0.00    +0.000 C 
ATOM     26  C   UNL     1      -2.578  15.479  23.204  0.00  0.00    +0.000 C 
ATOM     27  C   UNL     1      -2.644  14.840  21.801  0.00  0.00    +0.000 C 
ATOM     28  C   UNL     1      -3.995  15.111  21.080  0.00  0.00    +0.000 C 
ATOM     29  C   UNL     1      -4.819  13.828  20.816  0.00  0.00    +0.000 C 
ATOM     30  C   UNL     1      -4.848  12.978  22.093  0.00  0.00    +0.000 C 
ENDBRANCH  17  29
ENDBRANCH   1  18
TORSDOF 2
ENDMDL
MODEL 5
REMARK VINA RESULT:      -7.5      4.655      7.486
REMARK  Name = 
REMARK  3 active torsions:
REMARK  status: ('A' for Active; 'I' for Inactive)
REMARK    1  A    between atoms: C_1  and  N_2
REMARK    2  A    between atoms: C_9  and  N_10
REMARK    3  A    between atoms: C_11  and  C_13
REMARK                            x       y       z     vdW  Elec       q    Type
REMARK                         _______ _______ _______ _____ _____    ______ ____
ROOT
ATOM      1  C   UNL     1      -5.397  11.881  19.314  0.00  0.00    +0.000 A 
ATOM      2  C   UNL     1      -6.628  11.207  19.199  0.00  0.00    +0.000 A 
ATOM      3  C   UNL     1      -7.577  11.243  20.230  0.00  0.00    +0.000 A 
ATOM      4  C   UNL     1      -7.335  11.946  21.418  0.00  0.00    +0.000 A 
ATOM      5  C   UNL     1      -6.116  12.610  21.486  0.00  0.00    +0.000 A 
ATOM      6  O   UNL     1      -5.637  13.354  22.524  0.00  0.00    +0.000 OA
ATOM      7  C   UNL     1      -4.421  13.806  22.083  0.00  0.00    +0.000 A 
ATOM      8  N   UNL     1      -3.741  14.648  22.876  0.00  0.00    +0.000 N 
ATOM      9  C   UNL     1      -2.516  15.284  22.398  0.00  0.00    +0.000 C 
ATOM     10  C   UNL     1      -2.495  16.752  22.883  0.00  0.00    +0.000 C 
ATOM     11  N   UNL     1      -2.679  16.898  24.343  0.00  0.00    +0.000 NA
ATOM     12  C   UNL     1      -3.898  16.181  24.773  0.00  0.00    +0.000 C 
ATOM     13  C   UNL     1      -3.946  14.706  24.316  0.00  0.00    +0.000 C 
ATOM     14  N   UNL     1      -4.101  13.403  20.874  0.00  0.00    +0.000 NA
ATOM     15  C   UNL     1      -5.162  12.619  20.486  0.00  0.00    +0.000 A 
ATOM     16  H   UNL     1      -2.788  17.888  24.562  0.00  0.00    +0.000 HD
ENDROOT
BRANCH   1  18
ATOM     17  N   UNL     1      -3.061  11.802  18.671  0.00  0.00    +0.000 N 
ATOM     18  C   UNL     1      -4.368  11.777  18.247  0.00  0.00    +0.000 C 
ATOM     19  O   UNL     1      -4.709  11.685  17.072  0.00  0.00    +0.000 OA
ATOM     20  H   UNL     1      -2.895  12.033  19.651  0.00  0.00    +0.000 HD
BRANCH  17  29
ATOM     21  C   UNL     1      -0.163  10.944  21.431  0.00  0.00    +0.000 C 
ATOM     22  N   UNL     1      -0.595  11.219  20.070  0.00  0.00    +0.000 NA
ATOM     23  C   UNL     1      -0.088  12.485  19.516  0.00  0.00    +0.000 C 
ATOM     24  C   UNL     1       1.431  12.422  19.265  0.00  0.00    +0.000 C 
ATOM     25  C   UNL     1       1.824  11.236  18.381  0.00  0.00    +0.000 C 
ATOM     26  C   UNL     1       1.130   9.942  18.810  0.00  0.00    +0.000 C 
ATOM     27  C   UNL     1      -0.371  10.127  19.118  0.00  0.00    +0.000 C 
ATOM     28  C   UNL     1      -1.218  10.386  17.839  0.00  0.00    +0.000 C 
ATOM     29  C   UNL     1      -1.881  11.784  17.815  0.00  0.00    +0.000 C 
ATOM     30  C   UNL     1      -0.841  12.841  18.209  0.00  0.00    +0.000 C 
ENDBRANCH  17  29
ENDBRANCH   1  18
TORSDOF 2
ENDMDL
MODEL 6
REMARK VINA RESULT:      -7.4      8.627     10.750
REMARK  Name = 
REMARK  3 active torsions:
REMARK  status: ('A' for Active; 'I' for Inactive)
REMARK    1  A    between atoms: C_1  and  N_2
REMARK    2  A    between atoms: C_9  and  N_10
REMARK    3  A    between atoms: C_11  and  C_13
REMARK                            x       y       z     vdW  Elec       q    Type
REMARK                         _______ _______ _______ _____ _____    ______ ____
ROOT
ATOM      1  C   UNL     1       5.774  15.215  20.175  0.00  0.00    +0.000 A 
ATOM      2  C   UNL     1       4.536  15.602  19.626  0.00  0.00    +0.000 A 
ATOM      3  C   UNL     1       3.327  15.272  20.253  0.00  0.00    +0.000 A 
ATOM      4  C   UNL     1       3.302  14.540  21.448  0.00  0.00    +0.000 A 
ATOM      5  C   UNL     1       4.544  14.192  21.965  0.00  0.00    +0.000 A 
ATOM      6  O   UNL     1       4.796  13.480  23.101  0.00  0.00    +0.000 OA
ATOM      7  C   UNL     1       6.163  13.436  23.176  0.00  0.00    +0.000 A 
ATOM      8  N   UNL     1       6.713  12.860  24.256  0.00  0.00    +0.000 N 
ATOM      9  C   UNL     1       8.157  12.917  24.468  0.00  0.00    +0.000 C 
ATOM     10  C   UNL     1       8.431  13.158  25.971  0.00  0.00    +0.000 C 
ATOM     11  N   UNL     1       7.765  12.182  26.859  0.00  0.00    +0.000 NA
ATOM     12  C   UNL     1       6.319  12.123  26.553  0.00  0.00    +0.000 C 
ATOM     13  C   UNL     1       6.009  11.871  25.060  0.00  0.00    +0.000 C 
ATOM     14  N   UNL     1       6.779  14.045  22.188  0.00  0.00    +0.000 NA
ATOM     15  C   UNL     1       5.760  14.513  21.392  0.00  0.00    +0.000 A 
ATOM     16  H   UNL     1       7.881  12.485  27.825  0.00  0.00    +0.000 HD
ENDROOT
BRANCH   1  18
ATOM     17  N   UNL     1       8.036  14.561  19.600  0.00  0.00    +0.000 N 
ATOM     18  C   UNL     1       7.047  15.506  19.466  0.00  0.00    +0.000 C 
ATOM     19  O   UNL     1       7.167  16.541  18.818  0.00  0.00    +0.000 OA
ATOM     20  H   UNL     1       7.879  13.818  20.281  0.00  0.00    +0.000 HD
BRANCH  17  29
ATOM     21  C   UNL     1       9.235  10.665  19.962  0.00  0.00    +0.000 C 
ATOM     22  N   UNL     1       9.467  12.045  19.568  0.00  0.00    +0.000 NA
ATOM     23  C   UNL     1      10.510  12.733  20.347  0.00  0.00    +0.000 C 
ATOM     24  C   UNL     1      11.909  12.168  20.035  0.00  0.00    +0.000 C 
ATOM     25  C   UNL     1      12.227  12.200  18.538  0.00  0.00    +0.000 C 
ATOM     26  C   UNL     1      11.061  11.690  17.690  0.00  0.00    +0.000 C 
ATOM     27  C   UNL     1       9.693  12.249  18.133  0.00  0.00    +0.000 C 
ATOM     28  C   UNL     1       9.526  13.759  17.802  0.00  0.00    +0.000 C 
ATOM     29  C   UNL     1       9.388  14.651  19.059  0.00  0.00    +0.000 C 
ATOM     30  C   UNL     1      10.466  14.257  20.077  0.00  0.00    +0.000 C 
ENDBRANCH  17  29
ENDBRANCH   1  18
TORSDOF 2
ENDMDL
MODEL 7
REMARK VINA RESULT:      -7.4      4.827      7.641
REMARK  Name = 
REMARK  3 active torsions:
REMARK  status: ('A' for Active; 'I' for Inactive)
REMARK    1  A    between atoms: C_1  and  N_2
REMARK    2  A    between atoms: C_9  and  N_10
REMARK    3  A    between atoms: C_11  and  C_13
REMARK                            x       y       z     vdW  Elec       q    Type
REMARK                         _______ _______ _______ _____ _____    ______ ____
ROOT
ATOM      1  C   UNL     1       0.350  10.698  20.796  0.00  0.00    +0.000 A 
ATOM      2  C   UNL     1       1.167   9.654  21.273  0.00  0.00    +0.000 A 
ATOM      3  C   UNL     1       0.944   9.070  22.528  0.00  0.00    +0.000 A 
ATOM      4  C   UNL     1      -0.096   9.507  23.359  0.00  0.00    +0.000 A 
ATOM      5  C   UNL     1      -0.888  10.527  22.847  0.00  0.00    +0.000 A 
ATOM      6  O   UNL     1      -1.951  11.131  23.451  0.00  0.00    +0.000 OA
ATOM      7  C   UNL     1      -2.394  12.040  22.526  0.00  0.00    +0.000 A 
ATOM      8  N   UNL     1      -3.503  12.738  22.815  0.00  0.00    +0.000 N 
ATOM      9  C   UNL     1      -4.111  13.607  21.811  0.00  0.00    +0.000 C 
ATOM     10  C   UNL     1      -5.648  13.471  21.899  0.00  0.00    +0.000 C 
ATOM     11  N   UNL     1      -6.188  13.705  23.255  0.00  0.00    +0.000 NA
ATOM     12  C   UNL     1      -5.490  12.845  24.234  0.00  0.00    +0.000 C 
ATOM     13  C   UNL     1      -3.951  12.965  24.182  0.00  0.00    +0.000 C 
ATOM     14  N   UNL     1      -1.698  12.060  21.412  0.00  0.00    +0.000 NA
ATOM     15  C   UNL     1      -0.717  11.116  21.608  0.00  0.00    +0.000 A 
ATOM     16  H   UNL     1      -7.179  13.466  23.259  0.00  0.00    +0.000 HD
ENDROOT
BRANCH   1  18
ATOM     17  N   UNL     1       0.830  12.720  19.548  0.00  0.00    +0.000 N 
ATOM     18  C   UNL     1       0.639  11.359  19.497  0.00  0.00    +0.000 C 
ATOM     19  O   UNL     1       0.686  10.695  18.467  0.00  0.00    +0.000 OA
ATOM     20  H   UNL     1       0.620  13.186  20.431  0.00  0.00    +0.000 HD
BRANCH  17  29
ATOM     21  C   UNL     1       3.659  15.236  21.102  0.00  0.00    +0.000 C 
ATOM     22  N   UNL     1       2.804  14.784  20.017  0.00  0.00    +0.000 NA
ATOM     23  C   UNL     1       1.759  15.745  19.627  0.00  0.00    +0.000 C 
ATOM     24  C   UNL     1       2.362  16.986  18.942  0.00  0.00    +0.000 C 
ATOM     25  C   UNL     1       3.245  16.618  17.747  0.00  0.00    +0.000 C 
ATOM     26  C   UNL     1       4.196  15.463  18.068  0.00  0.00    +0.000 C 
ATOM     27  C   UNL     1       3.515  14.305  18.827  0.00  0.00    +0.000 C 
ATOM     28  C   UNL     1       2.528  13.500  17.935  0.00  0.00    +0.000 C 
ATOM     29  C   UNL     1       1.057  13.597  18.405  0.00  0.00    +0.000 C 
ATOM     30  C   UNL     1       0.720  15.063  18.702  0.00  0.00    +0.000 C 
ENDBRANCH  17  29
ENDBRANCH   1  18
TORSDOF 2
ENDMDL
MODEL 8
REMARK VINA RESULT:      -7.3      3.776      8.851
REMARK  Name = 
REMARK  3 active torsions:
REMARK  status: ('A' for Active; 'I' for Inactive)
REMARK    1  A    between atoms: C_1  and  N_2
REMARK    2  A    between atoms: C_9  and  N_10
REMARK    3  A    between atoms: C_11  and  C_13
REMARK                            x       y       z     vdW  Elec       q    Type
REMARK                         _______ _______ _______ _____ _____    ______ ____
ROOT
ATOM      1  C   UNL     1       0.114  10.762  20.562  0.00  0.00    +0.000 A 
ATOM      2  C   UNL     1      -0.463  11.047  21.815  0.00  0.00    +0.000 A 
ATOM      3  C   UNL     1      -0.407  10.124  22.869  0.00  0.00    +0.000 A 
ATOM      4  C   UNL     1       0.220   8.880  22.715  0.00  0.00    +0.000 A 
ATOM      5  C   UNL     1       0.791   8.644  21.470  0.00  0.00    +0.000 A 
ATOM      6  O   UNL     1       1.449   7.522  21.062  0.00  0.00    +0.000 OA
ATOM      7  C   UNL     1       1.832   7.803  19.777  0.00  0.00    +0.000 A 
ATOM      8  N   UNL     1       2.585   6.897  19.135  0.00  0.00    +0.000 N 
ATOM      9  C   UNL     1       3.152   7.203  17.825  0.00  0.00    +0.000 C 
ATOM     10  C   UNL     1       4.591   6.640  17.760  0.00  0.00    +0.000 C 
ATOM     11  N   UNL     1       4.681   5.203  18.096  0.00  0.00    +0.000 NA
ATOM     12  C   UNL     1       4.035   4.946  19.401  0.00  0.00    +0.000 C 
ATOM     13  C   UNL     1       2.590   5.486  19.496  0.00  0.00    +0.000 C 
ATOM     14  N   UNL     1       1.464   8.990  19.350  0.00  0.00    +0.000 NA
ATOM     15  C   UNL     1       0.777   9.533  20.411  0.00  0.00    +0.000 A 
ATOM     16  H   UNL     1       5.665   4.943  18.163  0.00  0.00    +0.000 HD
ENDROOT
BRANCH   1  18
ATOM     17  N   UNL     1       0.906  12.736  19.400  0.00  0.00    +0.000 N 
ATOM     18  C   UNL     1      -0.014  11.715  19.430  0.00  0.00    +0.000 C 
ATOM     19  O   UNL     1      -0.905  11.567  18.600  0.00  0.00    +0.000 OA
ATOM     20  H   UNL     1       1.503  12.846  20.219  0.00  0.00    +0.000 HD
BRANCH  17  29
ATOM     21  C   UNL     1       2.225  15.785  21.790  0.00  0.00    +0.000 C 
ATOM     22  N   UNL     1       1.801  15.257  20.503  0.00  0.00    +0.000 NA
ATOM     23  C   UNL     1       0.537  15.821  20.002  0.00  0.00    +0.000 C 
ATOM     24  C   UNL     1       0.699  17.300  19.601  0.00  0.00    +0.000 C 
ATOM     25  C   UNL     1       1.833  17.506  18.593  0.00  0.00    +0.000 C 
ATOM     26  C   UNL     1       3.099  16.743  18.985  0.00  0.00    +0.000 C 
ATOM     27  C   UNL     1       2.822  15.299  19.451  0.00  0.00    +0.000 C 
ATOM     28  C   UNL     1       2.388  14.365  18.285  0.00  0.00    +0.000 C 
ATOM     29  C   UNL     1       0.944  13.828  18.434  0.00  0.00    +0.000 C 
ATOM     30  C   UNL     1       0.012  14.987  18.806  0.00  0.00    +0.000 C 
ENDBRANCH  17  29
ENDBRANCH   1  18
TORSDOF 2
ENDMDL
MODEL 9
REMARK VINA RESULT:      -7.2      4.372      9.752
REMARK  Name = 
REMARK  3 active torsions:
REMARK  status: ('A' for Active; 'I' for Inactive)
REMARK    1  A    between atoms: C_1  and  N_2
REMARK    2  A    between atoms: C_9  and  N_10
REMARK    3  A    between atoms: C_11  and  C_13
REMARK                            x       y       z     vdW  Elec       q    Type
REMARK                         _______ _______ _______ _____ _____    ______ ____
ROOT
ATOM      1  C   UNL     1      -4.284  11.601  17.513  0.00  0.00    +0.000 A 
ATOM      2  C   UNL     1      -4.423  11.163  16.181  0.00  0.00    +0.000 A 
ATOM      3  C   UNL     1      -3.420  10.409  15.555  0.00  0.00    +0.000 A 
ATOM      4  C   UNL     1      -2.239  10.067  16.226  0.00  0.00    +0.000 A 
ATOM      5  C   UNL     1      -2.148  10.504  17.542  0.00  0.00    +0.000 A 
ATOM      6  O   UNL     1      -1.110  10.312  18.407  0.00  0.00    +0.000 OA
ATOM      7  C   UNL     1      -1.524  10.908  19.569  0.00  0.00    +0.000 A 
ATOM      8  N   UNL     1      -0.728  10.804  20.644  0.00  0.00    +0.000 N 
ATOM      9  C   UNL     1      -1.181  11.283  21.947  0.00  0.00    +0.000 C 
ATOM     10  C   UNL     1      -0.723  10.282  23.033  0.00  0.00    +0.000 C 
ATOM     11  N   UNL     1       0.727   9.999  23.005  0.00  0.00    +0.000 NA
ATOM     12  C   UNL     1       1.136   9.581  21.647  0.00  0.00    +0.000 C 
ATOM     13  C   UNL     1       0.705  10.566  20.537  0.00  0.00    +0.000 C 
ATOM     14  N   UNL     1      -2.715  11.458  19.501  0.00  0.00    +0.000 NA
ATOM     15  C   UNL     1      -3.119  11.230  18.206  0.00  0.00    +0.000 A 
ATOM     16  H   UNL     1       0.925   9.237  23.654  0.00  0.00    +0.000 HD
ENDROOT
BRANCH   1  18
ATOM     17  N   UNL     1      -5.336  12.463  19.519  0.00  0.00    +0.000 N 
ATOM     18  C   UNL     1      -5.318  12.460  18.145  0.00  0.00    +0.000 C 
ATOM     19  O   UNL     1      -6.093  13.105  17.445  0.00  0.00    +0.000 OA
ATOM     20  H   UNL     1      -4.748  11.776  19.993  0.00  0.00    +0.000 HD
BRANCH  17  29
ATOM     21  C   UNL     1      -2.786  14.597  21.905  0.00  0.00    +0.000 C 
ATOM     22  N   UNL     1      -4.122  14.209  21.482  0.00  0.00    +0.000 NA
ATOM     23  C   UNL     1      -4.885  13.455  22.491  0.00  0.00    +0.000 C 
ATOM     24  C   UNL     1      -5.272  14.348  23.686  0.00  0.00    +0.000 C 
ATOM     25  C   UNL     1      -6.029  15.605  23.250  0.00  0.00    +0.000 C 
ATOM     26  C   UNL     1      -5.368  16.288  22.051  0.00  0.00    +0.000 C 
ATOM     27  C   UNL     1      -4.941  15.301  20.944  0.00  0.00    +0.000 C 
ATOM     28  C   UNL     1      -6.153  14.697  20.179  0.00  0.00    +0.000 C 
ATOM     29  C   UNL     1      -6.295  13.167  20.363  0.00  0.00    +0.000 C 
ATOM     30  C   UNL     1      -6.146  12.824  21.851  0.00  0.00    +0.000 C 
ENDBRANCH  17  29
ENDBRANCH   1  18
TORSDOF 2
ENDMDL
