MODEL 1
REMARK VINA RESULT:      -8.3      0.000      0.000
REMARK  Name = 
REMARK  4 active torsions:
REMARK  status: ('A' for Active; 'I' for Inactive)
REMARK    1  A    between atoms: C_1  and  C_2
REMARK    2  A    between atoms: C_2  and  C_3
REMARK    3  A    between atoms: C_16  and  C_17
REMARK    4  A    between atoms: C_17  and  C_18
REMARK                            x       y       z     vdW  Elec       q    Type
REMARK                         _______ _______ _______ _____ _____    ______ ____
ROOT
ATOM      1  C   UNL     1       5.959   5.407  15.624  0.00  0.00    +0.000 C 
ATOM      2  O   UNL     1       6.005   6.633  15.701  0.00  0.00    +0.000 OA
ATOM      3  N   UNL     1       5.133   4.591  16.374  0.00  0.00    +0.000 N 
ATOM      4  C   UNL     1       4.238   5.083  17.291  0.00  0.00    +0.000 A 
ATOM      5  N   UNL     1       3.781   6.289  17.233  0.00  0.00    +0.000 NA
ATOM      6  C   UNL     1       2.973   6.770  18.274  0.00  0.00    +0.000 A 
ATOM      7  C   UNL     1       2.542   8.094  18.181  0.00  0.00    +0.000 A 
ATOM      8  C   UNL     1       1.807   8.671  19.212  0.00  0.00    +0.000 A 
ATOM      9  C   UNL     1       1.493   7.913  20.339  0.00  0.00    +0.000 A 
ATOM     10 CL   UNL     1       0.613   8.642  21.626  0.00  0.00    +0.000 Cl
ATOM     11  C   UNL     1       1.892   6.576  20.448  0.00  0.00    +0.000 A 
ATOM     12  C   UNL     1       2.631   6.003  19.414  0.00  0.00    +0.000 A 
ATOM     13  N   UNL     1       3.099   4.670  19.406  0.00  0.00    +0.000 N 
ATOM     14  C   UNL     1       3.026   3.595  20.273  0.00  0.00    +0.000 A 
ATOM     15  N   UNL     1       3.648   2.564  19.719  0.00  0.00    +0.000 NA
ATOM     16  N   UNL     1       4.176   2.952  18.514  0.00  0.00    +0.000 NA
ATOM     17  C   UNL     1       3.848   4.211  18.352  0.00  0.00    +0.000 A 
ATOM     18  H   UNL     1       5.369   3.608  16.452  0.00  0.00    +0.000 HD
ENDROOT
BRANCH   1  20
ATOM     19  C   UNL     1       6.060   3.889  13.644  0.00  0.00    +0.000 C 
ATOM     20  C   UNL     1       6.873   4.643  14.688  0.00  0.00    +0.000 C 
ENDBRANCH   1  20
BRANCH  14  21
ATOM     21  C   UNL     1       2.389   3.588  21.620  0.00  0.00    +0.000 C 
ATOM     22  C   UNL     1       1.244   2.589  21.725  0.00  0.00    +0.000 C 
ENDBRANCH  14  21
TORSDOF 2
ENDMDL
MODEL 2
REMARK VINA RESULT:      -7.6      3.125      5.611
REMARK  Name = 
REMARK  4 active torsions:
REMARK  status: ('A' for Active; 'I' for Inactive)
REMARK    1  A    between atoms: C_1  and  C_2
REMARK    2  A    between atoms: C_2  and  C_3
REMARK    3  A    between atoms: C_16  and  C_17
REMARK    4  A    between atoms: C_17  and  C_18
REMARK                            x       y       z     vdW  Elec       q    Type
REMARK                         _______ _______ _______ _____ _____    ______ ____
ROOT
ATOM      1  C   UNL     1       1.169   8.506  20.447  0.00  0.00    +0.000 C 
ATOM      2  O   UNL     1       1.483   9.180  19.469  0.00  0.00    +0.000 OA
ATOM      3  N   UNL     1       1.522   7.185  20.654  0.00  0.00    +0.000 N 
ATOM      4  C   UNL     1       2.301   6.479  19.772  0.00  0.00    +0.000 A 
ATOM      5  N   UNL     1       3.105   7.057  18.943  0.00  0.00    +0.000 NA
ATOM      6  C   UNL     1       3.773   6.285  17.980  0.00  0.00    +0.000 A 
ATOM      7  C   UNL     1       4.597   6.967  17.083  0.00  0.00    +0.000 A 
ATOM      8  C   UNL     1       5.229   6.286  16.048  0.00  0.00    +0.000 A 
ATOM      9  C   UNL     1       5.042   4.911  15.916  0.00  0.00    +0.000 A 
ATOM     10 CL   UNL     1       5.799   4.079  14.613  0.00  0.00    +0.000 Cl
ATOM     11  C   UNL     1       4.240   4.198  16.815  0.00  0.00    +0.000 A 
ATOM     12  C   UNL     1       3.607   4.886  17.850  0.00  0.00    +0.000 A 
ATOM     13  N   UNL     1       2.768   4.286  18.816  0.00  0.00    +0.000 N 
ATOM     14  C   UNL     1       2.318   3.003  19.070  0.00  0.00    +0.000 A 
ATOM     15  N   UNL     1       1.548   3.032  20.148  0.00  0.00    +0.000 NA
ATOM     16  N   UNL     1       1.441   4.326  20.589  0.00  0.00    +0.000 NA
ATOM     17  C   UNL     1       2.164   5.058  19.776  0.00  0.00    +0.000 A 
ATOM     18  H   UNL     1       0.987   6.642  21.321  0.00  0.00    +0.000 HD
ENDROOT
BRANCH   1  20
ATOM     19  C   UNL     1       1.115   9.343  22.799  0.00  0.00    +0.000 C 
ATOM     20  C   UNL     1       0.294   9.074  21.546  0.00  0.00    +0.000 C 
ENDBRANCH   1  20
BRANCH  14  21
ATOM     21  C   UNL     1       2.612   1.787  18.260  0.00  0.00    +0.000 C 
ATOM     22  C   UNL     1       3.901   1.096  18.682  0.00  0.00    +0.000 C 
ENDBRANCH  14  21
TORSDOF 2
ENDMDL
MODEL 3
REMARK VINA RESULT:      -7.5      3.043      5.487
REMARK  Name = 
REMARK  4 active torsions:
REMARK  status: ('A' for Active; 'I' for Inactive)
REMARK    1  A    between atoms: C_1  and  C_2
REMARK    2  A    between atoms: C_2  and  C_3
REMARK    3  A    between atoms: C_16  and  C_17
REMARK    4  A    between atoms: C_17  and  C_18
REMARK                            x       y       z     vdW  Elec       q    Type
REMARK                         _______ _______ _______ _____ _____    ______ ____
ROOT
ATOM      1  C   UNL     1       1.171   9.284  19.170  0.00  0.00    +0.000 C 
ATOM      2  O   UNL     1       1.375   9.591  17.998  0.00  0.00    +0.000 OA
ATOM      3  N   UNL     1       1.688   8.171  19.807  0.00  0.00    +0.000 N 
ATOM      4  C   UNL     1       2.524   7.280  19.180  0.00  0.00    +0.000 A 
ATOM      5  N   UNL     1       3.230   7.603  18.148  0.00  0.00    +0.000 NA
ATOM      6  C   UNL     1       3.962   6.611  17.477  0.00  0.00    +0.000 A 
ATOM      7  C   UNL     1       4.672   7.007  16.343  0.00  0.00    +0.000 A 
ATOM      8  C   UNL     1       5.355   6.068  15.576  0.00  0.00    +0.000 A 
ATOM      9  C   UNL     1       5.334   4.727  15.952  0.00  0.00    +0.000 A 
ATOM     10 CL   UNL     1       6.152   3.566  14.979  0.00  0.00    +0.000 Cl
ATOM     11  C   UNL     1       4.649   4.305  17.097  0.00  0.00    +0.000 A 
ATOM     12  C   UNL     1       3.964   5.249  17.862  0.00  0.00    +0.000 A 
ATOM     13  N   UNL     1       3.230   4.952  19.032  0.00  0.00    +0.000 N 
ATOM     14  C   UNL     1       2.946   3.806  19.754  0.00  0.00    +0.000 A 
ATOM     15  N   UNL     1       2.207   4.140  20.802  0.00  0.00    +0.000 NA
ATOM     16  N   UNL     1       1.954   5.488  20.763  0.00  0.00    +0.000 NA
ATOM     17  C   UNL     1       2.562   5.949  19.696  0.00  0.00    +0.000 A 
ATOM     18  H   UNL     1       1.241   7.851  20.658  0.00  0.00    +0.000 HD
ENDROOT
BRANCH   1  20
ATOM     19  C   UNL     1      -0.148   9.327  21.291  0.00  0.00    +0.000 C 
ATOM     20  C   UNL     1       0.263  10.115  20.053  0.00  0.00    +0.000 C 
ENDBRANCH   1  20
BRANCH  14  21
ATOM     21  C   UNL     1       3.365   2.419  19.409  0.00  0.00    +0.000 C 
ATOM     22  C   UNL     1       2.450   1.767  18.380  0.00  0.00    +0.000 C 
ENDBRANCH  14  21
TORSDOF 2
ENDMDL
MODEL 4
REMARK VINA RESULT:      -7.0      2.978      5.856
REMARK  Name = 
REMARK  4 active torsions:
REMARK  status: ('A' for Active; 'I' for Inactive)
REMARK    1  A    between atoms: C_1  and  C_2
REMARK    2  A    between atoms: C_2  and  C_3
REMARK    3  A    between atoms: C_16  and  C_17
REMARK    4  A    between atoms: C_17  and  C_18
REMARK                            x       y       z     vdW  Elec       q    Type
REMARK                         _______ _______ _______ _____ _____    ______ ____
ROOT
ATOM      1  C   UNL     1       1.509   8.910  19.263  0.00  0.00    +0.000 C 
ATOM      2  O   UNL     1       1.312   8.481  20.398  0.00  0.00    +0.000 OA
ATOM      3  N   UNL     1       2.180   8.236  18.260  0.00  0.00    +0.000 N 
ATOM      4  C   UNL     1       2.690   6.973  18.428  0.00  0.00    +0.000 A 
ATOM      5  N   UNL     1       2.239   6.158  19.323  0.00  0.00    +0.000 NA
ATOM      6  C   UNL     1       2.891   4.933  19.529  0.00  0.00    +0.000 A 
ATOM      7  C   UNL     1       2.387   4.110  20.538  0.00  0.00    +0.000 A 
ATOM      8  C   UNL     1       3.027   2.918  20.860  0.00  0.00    +0.000 A 
ATOM      9  C   UNL     1       4.173   2.542  20.162  0.00  0.00    +0.000 A 
ATOM     10 CL   UNL     1       4.980   1.083  20.589  0.00  0.00    +0.000 Cl
ATOM     11  C   UNL     1       4.687   3.337  19.131  0.00  0.00    +0.000 A 
ATOM     12  C   UNL     1       4.044   4.533  18.812  0.00  0.00    +0.000 A 
ATOM     13  N   UNL     1       4.465   5.425  17.801  0.00  0.00    +0.000 N 
ATOM     14  C   UNL     1       5.504   5.461  16.888  0.00  0.00    +0.000 A 
ATOM     15  N   UNL     1       5.386   6.560  16.158  0.00  0.00    +0.000 NA
ATOM     16  N   UNL     1       4.307   7.282  16.603  0.00  0.00    +0.000 NA
ATOM     17  C   UNL     1       3.781   6.595  17.588  0.00  0.00    +0.000 A 
ATOM     18  H   UNL     1       2.540   8.771  17.478  0.00  0.00    +0.000 HD
ENDROOT
BRANCH   1  20
ATOM     19  C   UNL     1      -0.473  10.376  18.861  0.00  0.00    +0.000 C 
ATOM     20  C   UNL     1       1.048  10.294  18.855  0.00  0.00    +0.000 C 
ENDBRANCH   1  20
BRANCH  14  21
ATOM     21  C   UNL     1       6.599   4.459  16.757  0.00  0.00    +0.000 C 
ATOM     22  C   UNL     1       7.733   4.694  17.746  0.00  0.00    +0.000 C 
ENDBRANCH  14  21
TORSDOF 2
ENDMDL
MODEL 5
REMARK VINA RESULT:      -6.8      3.030      6.028
REMARK  Name = 
REMARK  4 active torsions:
REMARK  status: ('A' for Active; 'I' for Inactive)
REMARK    1  A    between atoms: C_1  and  C_2
REMARK    2  A    between atoms: C_2  and  C_3
REMARK    3  A    between atoms: C_16  and  C_17
REMARK    4  A    between atoms: C_17  and  C_18
REMARK                            x       y       z     vdW  Elec       q    Type
REMARK                         _______ _______ _______ _____ _____    ______ ____
ROOT
ATOM      1  C   UNL     1       1.246   8.785  20.543  0.00  0.00    +0.000 C 
ATOM      2  O   UNL     1       1.202   8.221  21.633  0.00  0.00    +0.000 OA
ATOM      3  N   UNL     1       1.793   8.253  19.390  0.00  0.00    +0.000 N 
ATOM      4  C   UNL     1       2.339   6.994  19.340  0.00  0.00    +0.000 A 
ATOM      5  N   UNL     1       2.017   6.068  20.181  0.00  0.00    +0.000 NA
ATOM      6  C   UNL     1       2.709   4.846  20.156  0.00  0.00    +0.000 A 
ATOM      7  C   UNL     1       2.349   3.897  21.114  0.00  0.00    +0.000 A 
ATOM      8  C   UNL     1       3.042   2.694  21.209  0.00  0.00    +0.000 A 
ATOM      9  C   UNL     1       4.096   2.437  20.334  0.00  0.00    +0.000 A 
ATOM     10 CL   UNL     1       4.971   0.962  20.479  0.00  0.00    +0.000 Cl
ATOM     11  C   UNL     1       4.462   3.362  19.349  0.00  0.00    +0.000 A 
ATOM     12  C   UNL     1       3.766   4.567  19.259  0.00  0.00    +0.000 A 
ATOM     13  N   UNL     1       4.043   5.583  18.317  0.00  0.00    +0.000 N 
ATOM     14  C   UNL     1       4.957   5.757  17.293  0.00  0.00    +0.000 A 
ATOM     15  N   UNL     1       4.731   6.930  16.720  0.00  0.00    +0.000 NA
ATOM     16  N   UNL     1       3.707   7.562  17.379  0.00  0.00    +0.000 NA
ATOM     17  C   UNL     1       3.320   6.749  18.332  0.00  0.00    +0.000 A 
ATOM     18  H   UNL     1       2.044   8.885  18.639  0.00  0.00    +0.000 HD
ENDROOT
BRANCH   1  20
ATOM     19  C   UNL     1       1.029  10.709  18.965  0.00  0.00    +0.000 C 
ATOM     20  C   UNL     1       0.717  10.193  20.363  0.00  0.00    +0.000 C 
ENDBRANCH   1  20
BRANCH  14  21
ATOM     21  C   UNL     1       6.041   4.810  16.908  0.00  0.00    +0.000 C 
ATOM     22  C   UNL     1       5.687   3.975  15.685  0.00  0.00    +0.000 C 
ENDBRANCH  14  21
TORSDOF 2
ENDMDL
MODEL 6
REMARK VINA RESULT:      -6.7      1.932      3.935
REMARK  Name = 
REMARK  4 active torsions:
REMARK  status: ('A' for Active; 'I' for Inactive)
REMARK    1  A    between atoms: C_1  and  C_2
REMARK    2  A    between atoms: C_2  and  C_3
REMARK    3  A    between atoms: C_16  and  C_17
REMARK    4  A    between atoms: C_17  and  C_18
REMARK                            x       y       z     vdW  Elec       q    Type
REMARK                         _______ _______ _______ _____ _____    ______ ____
ROOT
ATOM      1  C   UNL     1       6.177   4.394  15.142  0.00  0.00    +0.000 C 
ATOM      2  O   UNL     1       5.955   3.197  15.312  0.00  0.00    +0.000 OA
ATOM      3  N   UNL     1       5.765   5.411  15.983  0.00  0.00    +0.000 N 
ATOM      4  C   UNL     1       5.064   5.177  17.140  0.00  0.00    +0.000 A 
ATOM      5  N   UNL     1       5.105   4.043  17.756  0.00  0.00    +0.000 NA
ATOM      6  C   UNL     1       4.263   3.829  18.859  0.00  0.00    +0.000 A 
ATOM      7  C   UNL     1       4.317   2.570  19.460  0.00  0.00    +0.000 A 
ATOM      8  C   UNL     1       3.456   2.251  20.505  0.00  0.00    +0.000 A 
ATOM      9  C   UNL     1       2.541   3.201  20.957  0.00  0.00    +0.000 A 
ATOM     10 CL   UNL     1       1.455   2.788  22.227  0.00  0.00    +0.000 Cl
ATOM     11  C   UNL     1       2.482   4.478  20.387  0.00  0.00    +0.000 A 
ATOM     12  C   UNL     1       3.345   4.793  19.339  0.00  0.00    +0.000 A 
ATOM     13  N   UNL     1       3.379   6.040  18.675  0.00  0.00    +0.000 N 
ATOM     14  C   UNL     1       2.687   7.233  18.782  0.00  0.00    +0.000 A 
ATOM     15  N   UNL     1       3.170   8.083  17.888  0.00  0.00    +0.000 NA
ATOM     16  N   UNL     1       4.145   7.457  17.154  0.00  0.00    +0.000 NA
ATOM     17  C   UNL     1       4.245   6.239  17.630  0.00  0.00    +0.000 A 
ATOM     18  H   UNL     1       5.738   6.356  15.619  0.00  0.00    +0.000 HD
ENDROOT
BRANCH   1  20
ATOM     19  C   UNL     1       6.697   3.953  12.739  0.00  0.00    +0.000 C 
ATOM     20  C   UNL     1       6.922   4.889  13.919  0.00  0.00    +0.000 C 
ENDBRANCH   1  20
BRANCH  14  21
ATOM     21  C   UNL     1       1.562   7.520  19.717  0.00  0.00    +0.000 C 
ATOM     22  C   UNL     1       1.247   9.006  19.819  0.00  0.00    +0.000 C 
ENDBRANCH  14  21
TORSDOF 2
ENDMDL
MODEL 7
REMARK VINA RESULT:      -6.7      4.072      5.948
REMARK  Name = 
REMARK  4 active torsions:
REMARK  status: ('A' for Active; 'I' for Inactive)
REMARK    1  A    between atoms: C_1  and  C_2
REMARK    2  A    between atoms: C_2  and  C_3
REMARK    3  A    between atoms: C_16  and  C_17
REMARK    4  A    between atoms: C_17  and  C_18
REMARK                            x       y       z     vdW  Elec       q    Type
REMARK                         _______ _______ _______ _____ _____    ______ ____
ROOT
ATOM      1  C   UNL     1       8.249   8.167  17.986  0.00  0.00    +0.000 C 
ATOM      2  O   UNL     1       8.399   8.584  16.839  0.00  0.00    +0.000 OA
ATOM      3  N   UNL     1       7.660   6.964  18.328  0.00  0.00    +0.000 N 
ATOM      4  C   UNL     1       7.188   6.077  17.392  0.00  0.00    +0.000 A 
ATOM      5  N   UNL     1       7.620   6.062  16.175  0.00  0.00    +0.000 NA
ATOM      6  C   UNL     1       7.003   5.219  15.237  0.00  0.00    +0.000 A 
ATOM      7  C   UNL     1       7.481   5.274  13.927  0.00  0.00    +0.000 A 
ATOM      8  C   UNL     1       6.869   4.532  12.921  0.00  0.00    +0.000 A 
ATOM      9  C   UNL     1       5.778   3.724  13.231  0.00  0.00    +0.000 A 
ATOM     10 CL   UNL     1       5.004   2.835  11.977  0.00  0.00    +0.000 Cl
ATOM     11  C   UNL     1       5.292   3.632  14.541  0.00  0.00    +0.000 A 
ATOM     12  C   UNL     1       5.907   4.379  15.545  0.00  0.00    +0.000 A 
ATOM     13  N   UNL     1       5.508   4.381  16.901  0.00  0.00    +0.000 N 
ATOM     14  C   UNL     1       4.520   3.755  17.639  0.00  0.00    +0.000 A 
ATOM     15  N   UNL     1       4.637   4.129  18.904  0.00  0.00    +0.000 NA
ATOM     16  N   UNL     1       5.662   5.035  19.012  0.00  0.00    +0.000 NA
ATOM     17  C   UNL     1       6.159   5.179  17.807  0.00  0.00    +0.000 A 
ATOM     18  H   UNL     1       7.323   6.845  19.276  0.00  0.00    +0.000 HD
ENDROOT
BRANCH   1  20
ATOM     19  C   UNL     1       9.185  10.355  18.742  0.00  0.00    +0.000 C 
ATOM     20  C   UNL     1       8.680   8.988  19.184  0.00  0.00    +0.000 C 
ENDBRANCH   1  20
BRANCH  14  21
ATOM     21  C   UNL     1       3.471   2.837  17.111  0.00  0.00    +0.000 C 
ATOM     22  C   UNL     1       2.714   2.111  18.214  0.00  0.00    +0.000 C 
ENDBRANCH  14  21
TORSDOF 2
ENDMDL
MODEL 8
REMARK VINA RESULT:      -6.7      2.359      4.279
REMARK  Name = 
REMARK  4 active torsions:
REMARK  status: ('A' for Active; 'I' for Inactive)
REMARK    1  A    between atoms: C_1  and  C_2
REMARK    2  A    between atoms: C_2  and  C_3
REMARK    3  A    between atoms: C_16  and  C_17
REMARK    4  A    between atoms: C_17  and  C_18
REMARK                            x       y       z     vdW  Elec       q    Type
REMARK                         _______ _______ _______ _____ _____    ______ ____
ROOT
ATOM      1  C   UNL     1       6.706   4.481  14.061  0.00  0.00    +0.000 C 
ATOM      2  O   UNL     1       6.169   3.389  13.886  0.00  0.00    +0.000 OA
ATOM      3  N   UNL     1       6.407   5.364  15.081  0.00  0.00    +0.000 N 
ATOM      4  C   UNL     1       5.468   5.093  16.045  0.00  0.00    +0.000 A 
ATOM      5  N   UNL     1       5.113   3.888  16.345  0.00  0.00    +0.000 NA
ATOM      6  C   UNL     1       4.055   3.686  17.245  0.00  0.00    +0.000 A 
ATOM      7  C   UNL     1       3.685   2.365  17.500  0.00  0.00    +0.000 A 
ATOM      8  C   UNL     1       2.593   2.083  18.315  0.00  0.00    +0.000 A 
ATOM      9  C   UNL     1       1.872   3.131  18.885  0.00  0.00    +0.000 A 
ATOM     10 CL   UNL     1       0.502   2.777  19.864  0.00  0.00    +0.000 Cl
ATOM     11  C   UNL     1       2.235   4.464  18.664  0.00  0.00    +0.000 A 
ATOM     12  C   UNL     1       3.329   4.742  17.845  0.00  0.00    +0.000 A 
ATOM     13  N   UNL     1       3.790   6.042  17.537  0.00  0.00    +0.000 N 
ATOM     14  C   UNL     1       3.404   7.329  17.867  0.00  0.00    +0.000 A 
ATOM     15  N   UNL     1       4.239   8.181  17.289  0.00  0.00    +0.000 NA
ATOM     16  N   UNL     1       5.149   7.479  16.540  0.00  0.00    +0.000 NA
ATOM     17  C   UNL     1       4.857   6.210  16.692  0.00  0.00    +0.000 A 
ATOM     18  H   UNL     1       6.680   6.334  14.975  0.00  0.00    +0.000 HD
ENDROOT
BRANCH   1  20
ATOM     19  C   UNL     1       7.394   4.668  11.667  0.00  0.00    +0.000 C 
ATOM     20  C   UNL     1       7.763   4.998  13.107  0.00  0.00    +0.000 C 
ENDBRANCH   1  20
BRANCH  14  21
ATOM     21  C   UNL     1       2.231   7.712  18.702  0.00  0.00    +0.000 C 
ATOM     22  C   UNL     1       1.579   9.009  18.241  0.00  0.00    +0.000 C 
ENDBRANCH  14  21
TORSDOF 2
ENDMDL
MODEL 9
REMARK VINA RESULT:      -6.6      3.809      6.335
REMARK  Name = 
REMARK  4 active torsions:
REMARK  status: ('A' for Active; 'I' for Inactive)
REMARK    1  A    between atoms: C_1  and  C_2
REMARK    2  A    between atoms: C_2  and  C_3
REMARK    3  A    between atoms: C_16  and  C_17
REMARK    4  A    between atoms: C_17  and  C_18
REMARK                            x       y       z     vdW  Elec       q    Type
REMARK                         _______ _______ _______ _____ _____    ______ ____
ROOT
ATOM      1  C   UNL     1       2.111   2.377  18.409  0.00  0.00    +0.000 C 
ATOM      2  O   UNL     1       2.229   1.707  17.386  0.00  0.00    +0.000 OA
ATOM      3  N   UNL     1       2.852   3.503  18.716  0.00  0.00    +0.000 N 
ATOM      4  C   UNL     1       3.806   4.016  17.873  0.00  0.00    +0.000 A 
ATOM      5  N   UNL     1       3.801   3.787  16.602  0.00  0.00    +0.000 NA
ATOM      6  C   UNL     1       4.878   4.230  15.818  0.00  0.00    +0.000 A 
ATOM      7  C   UNL     1       4.841   3.919  14.459  0.00  0.00    +0.000 A 
ATOM      8  C   UNL     1       5.909   4.250  13.630  0.00  0.00    +0.000 A 
ATOM      9  C   UNL     1       7.016   4.905  14.165  0.00  0.00    +0.000 A 
ATOM     10 CL   UNL     1       8.348   5.281  13.143  0.00  0.00    +0.000 Cl
ATOM     11  C   UNL     1       7.069   5.250  15.521  0.00  0.00    +0.000 A 
ATOM     12  C   UNL     1       5.998   4.914  16.348  0.00  0.00    +0.000 A 
ATOM     13  N   UNL     1       5.933   5.198  17.731  0.00  0.00    +0.000 N 
ATOM     14  C   UNL     1       6.764   5.811  18.651  0.00  0.00    +0.000 A 
ATOM     15  N   UNL     1       6.160   5.809  19.831  0.00  0.00    +0.000 NA
ATOM     16  N   UNL     1       4.957   5.160  19.719  0.00  0.00    +0.000 NA
ATOM     17  C   UNL     1       4.847   4.795  18.465  0.00  0.00    +0.000 A 
ATOM     18  H   UNL     1       2.890   3.806  19.682  0.00  0.00    +0.000 HD
ENDROOT
BRANCH   1  20
ATOM     19  C   UNL     1       1.387   2.789  20.763  0.00  0.00    +0.000 C 
ATOM     20  C   UNL     1       1.128   1.989  19.494  0.00  0.00    +0.000 C 
ENDBRANCH   1  20
BRANCH  14  21
ATOM     21  C   UNL     1       8.125   6.357  18.386  0.00  0.00    +0.000 C 
ATOM     22  C   UNL     1       8.111   7.847  18.074  0.00  0.00    +0.000 C 
ENDBRANCH  14  21
TORSDOF 2
ENDMDL
