MODEL 1
REMARK VINA RESULT:      -7.2      0.000      0.000
REMARK  Name = 
REMARK  4 active torsions:
REMARK  status: ('A' for Active; 'I' for Inactive)
REMARK    1  A    between atoms: C_1  and  C_2
REMARK    2  A    between atoms: C_2  and  O_3
REMARK    3  A    between atoms: O_3  and  C_4
REMARK    4  A    between atoms: C_4  and  C_6
REMARK                            x       y       z     vdW  Elec       q    Type
REMARK                         _______ _______ _______ _____ _____    ______ ____
ROOT
ATOM      1  C   UNL     1       5.645   5.459  15.742  0.00  0.00    +0.000 A 
ATOM      2  C   UNL     1       5.365   6.706  15.352  0.00  0.00    +0.000 A 
ATOM      3  N   UNL     1       4.506   7.547  15.995  0.00  0.00    +0.000 NA
ATOM      4  C   UNL     1       3.914   7.062  17.033  0.00  0.00    +0.000 A 
ATOM      5  S   UNL     1       2.756   8.027  17.907  0.00  0.00    +0.000 S 
ATOM      6  C   UNL     1       2.517   6.716  19.065  0.00  0.00    +0.000 A 
ATOM      7  C   UNL     1       1.654   6.816  20.144  0.00  0.00    +0.000 A 
ATOM      8  C   UNL     1       1.547   5.735  21.001  0.00  0.00    +0.000 A 
ATOM      9  C   UNL     1       2.288   4.565  20.783  0.00  0.00    +0.000 A 
ATOM     10  C   UNL     1       2.117   3.517  21.708  0.00  0.00    +0.000 A 
ATOM     11  C   UNL     1       2.805   2.315  21.581  0.00  0.00    +0.000 A 
ATOM     12  C   UNL     1       3.658   2.147  20.514  0.00  0.00    +0.000 A 
ATOM     13  C   UNL     1       3.818   3.176  19.580  0.00  0.00    +0.000 A 
ATOM     14  C   UNL     1       3.174   4.440  19.665  0.00  0.00    +0.000 A 
ATOM     15  C   UNL     1       3.294   5.572  18.783  0.00  0.00    +0.000 A 
ATOM     16  N   UNL     1       4.090   5.800  17.588  0.00  0.00    +0.000 N 
ATOM     17  C   UNL     1       5.048   4.982  17.020  0.00  0.00    +0.000 A 
ATOM     18  O   UNL     1       5.514   3.959  17.492  0.00  0.00    +0.000 OA
ENDROOT
BRANCH   1  19
ATOM     19  C   UNL     1       6.538   4.577  14.963  0.00  0.00    +0.000 C 
ATOM     20  O   UNL     1       7.748   4.683  14.927  0.00  0.00    +0.000 OA
BRANCH  19  21
ATOM     21  O   UNL     1       5.812   3.706  14.203  0.00  0.00    +0.000 OA
BRANCH  21  23
ATOM     22  C   UNL     1       5.031   3.323  11.984  0.00  0.00    +0.000 C 
ATOM     23  C   UNL     1       6.243   3.643  12.841  0.00  0.00    +0.000 C 
ENDBRANCH  21  23
ENDBRANCH  19  21
ENDBRANCH   1  19
TORSDOF 3
ENDMDL
MODEL 2
REMARK VINA RESULT:      -7.1      2.089      3.937
REMARK  Name = 
REMARK  4 active torsions:
REMARK  status: ('A' for Active; 'I' for Inactive)
REMARK    1  A    between atoms: C_1  and  C_2
REMARK    2  A    between atoms: C_2  and  O_3
REMARK    3  A    between atoms: O_3  and  C_4
REMARK    4  A    between atoms: C_4  and  C_6
REMARK                            x       y       z     vdW  Elec       q    Type
REMARK                         _______ _______ _______ _____ _____    ______ ____
ROOT
ATOM      1  C   UNL     1       5.270   4.950  16.674  0.00  0.00    +0.000 A 
ATOM      2  C   UNL     1       5.278   3.765  17.291  0.00  0.00    +0.000 A 
ATOM      3  N   UNL     1       4.536   3.457  18.393  0.00  0.00    +0.000 NA
ATOM      4  C   UNL     1       3.807   4.411  18.866  0.00  0.00    +0.000 A 
ATOM      5  S   UNL     1       2.855   4.150  20.301  0.00  0.00    +0.000 S 
ATOM      6  C   UNL     1       2.226   5.797  20.200  0.00  0.00    +0.000 A 
ATOM      7  C   UNL     1       1.314   6.308  21.108  0.00  0.00    +0.000 A 
ATOM      8  C   UNL     1       0.873   7.609  20.932  0.00  0.00    +0.000 A 
ATOM      9  C   UNL     1       1.340   8.392  19.867  0.00  0.00    +0.000 A 
ATOM     10  C   UNL     1       0.835   9.703  19.767  0.00  0.00    +0.000 A 
ATOM     11  C   UNL     1       1.235  10.560  18.747  0.00  0.00    +0.000 A 
ATOM     12  C   UNL     1       2.160  10.115  17.829  0.00  0.00    +0.000 A 
ATOM     13  C   UNL     1       2.680   8.822  17.934  0.00  0.00    +0.000 A 
ATOM     14  C   UNL     1       2.293   7.882  18.928  0.00  0.00    +0.000 A 
ATOM     15  C   UNL     1       2.739   6.524  19.105  0.00  0.00    +0.000 A 
ATOM     16  N   UNL     1       3.665   5.694  18.352  0.00  0.00    +0.000 N 
ATOM     17  C   UNL     1       4.315   5.982  17.167  0.00  0.00    +0.000 A 
ATOM     18  O   UNL     1       4.130   6.945  16.443  0.00  0.00    +0.000 OA
ENDROOT
BRANCH   1  19
ATOM     19  C   UNL     1       6.146   5.238  15.521  0.00  0.00    +0.000 C 
ATOM     20  O   UNL     1       7.176   5.882  15.583  0.00  0.00    +0.000 OA
BRANCH  19  21
ATOM     21  O   UNL     1       5.584   4.783  14.363  0.00  0.00    +0.000 OA
BRANCH  21  23
ATOM     22  C   UNL     1       5.657   3.385  12.434  0.00  0.00    +0.000 C 
ATOM     23  C   UNL     1       6.455   3.945  13.599  0.00  0.00    +0.000 C 
ENDBRANCH  21  23
ENDBRANCH  19  21
ENDBRANCH   1  19
TORSDOF 3
ENDMDL
MODEL 3
REMARK VINA RESULT:      -7.0      3.661      6.557
REMARK  Name = 
REMARK  4 active torsions:
REMARK  status: ('A' for Active; 'I' for Inactive)
REMARK    1  A    between atoms: C_1  and  C_2
REMARK    2  A    between atoms: C_2  and  O_3
REMARK    3  A    between atoms: O_3  and  C_4
REMARK    4  A    between atoms: C_4  and  C_6
REMARK                            x       y       z     vdW  Elec       q    Type
REMARK                         _______ _______ _______ _____ _____    ______ ____
ROOT
ATOM      1  C   UNL     1       1.360   8.869  19.488  0.00  0.00    +0.000 A 
ATOM      2  C   UNL     1       0.840   8.409  20.630  0.00  0.00    +0.000 A 
ATOM      3  N   UNL     1       1.092   7.177  21.157  0.00  0.00    +0.000 NA
ATOM      4  C   UNL     1       1.870   6.416  20.464  0.00  0.00    +0.000 A 
ATOM      5  S   UNL     1       2.224   4.801  21.014  0.00  0.00    +0.000 S 
ATOM      6  C   UNL     1       3.277   4.543  19.620  0.00  0.00    +0.000 A 
ATOM      7  C   UNL     1       3.967   3.361  19.411  0.00  0.00    +0.000 A 
ATOM      8  C   UNL     1       4.777   3.264  18.292  0.00  0.00    +0.000 A 
ATOM      9  C   UNL     1       4.893   4.331  17.390  0.00  0.00    +0.000 A 
ATOM     10  C   UNL     1       5.741   4.143  16.282  0.00  0.00    +0.000 A 
ATOM     11  C   UNL     1       5.925   5.140  15.329  0.00  0.00    +0.000 A 
ATOM     12  C   UNL     1       5.244   6.328  15.471  0.00  0.00    +0.000 A 
ATOM     13  C   UNL     1       4.385   6.514  16.558  0.00  0.00    +0.000 A 
ATOM     14  C   UNL     1       4.175   5.555  17.586  0.00  0.00    +0.000 A 
ATOM     15  C   UNL     1       3.345   5.658  18.758  0.00  0.00    +0.000 A 
ATOM     16  N   UNL     1       2.507   6.730  19.270  0.00  0.00    +0.000 N 
ATOM     17  C   UNL     1       2.359   8.016  18.787  0.00  0.00    +0.000 A 
ATOM     18  O   UNL     1       3.013   8.550  17.908  0.00  0.00    +0.000 OA
ENDROOT
BRANCH   1  19
ATOM     19  C   UNL     1       0.995  10.191  18.939  0.00  0.00    +0.000 C 
ATOM     20  O   UNL     1       1.384  11.253  19.386  0.00  0.00    +0.000 OA
BRANCH  19  21
ATOM     21  O   UNL     1       0.075  10.060  17.939  0.00  0.00    +0.000 OA
BRANCH  21  23
ATOM     22  C   UNL     1      -2.226   9.949  17.327  0.00  0.00    +0.000 C 
ATOM     23  C   UNL     1      -1.220  10.557  18.289  0.00  0.00    +0.000 C 
ENDBRANCH  21  23
ENDBRANCH  19  21
ENDBRANCH   1  19
TORSDOF 3
ENDMDL
MODEL 4
REMARK VINA RESULT:      -6.7      2.637      4.857
REMARK  Name = 
REMARK  4 active torsions:
REMARK  status: ('A' for Active; 'I' for Inactive)
REMARK    1  A    between atoms: C_1  and  C_2
REMARK    2  A    between atoms: C_2  and  O_3
REMARK    3  A    between atoms: O_3  and  C_4
REMARK    4  A    between atoms: C_4  and  C_6
REMARK                            x       y       z     vdW  Elec       q    Type
REMARK                         _______ _______ _______ _____ _____    ______ ____
ROOT
ATOM      1  C   UNL     1       4.659   5.442  17.154  0.00  0.00    +0.000 A 
ATOM      2  C   UNL     1       4.598   4.301  17.846  0.00  0.00    +0.000 A 
ATOM      3  N   UNL     1       3.839   4.110  18.963  0.00  0.00    +0.000 NA
ATOM      4  C   UNL     1       3.167   5.133  19.370  0.00  0.00    +0.000 A 
ATOM      5  S   UNL     1       2.200   5.023  20.814  0.00  0.00    +0.000 S 
ATOM      6  C   UNL     1       1.668   6.692  20.603  0.00  0.00    +0.000 A 
ATOM      7  C   UNL     1       0.787   7.315  21.471  0.00  0.00    +0.000 A 
ATOM      8  C   UNL     1       0.422   8.624  21.209  0.00  0.00    +0.000 A 
ATOM      9  C   UNL     1       0.935   9.308  20.098  0.00  0.00    +0.000 A 
ATOM     10  C   UNL     1       0.507  10.636  19.909  0.00  0.00    +0.000 A 
ATOM     11  C   UNL     1       0.957  11.400  18.838  0.00  0.00    +0.000 A 
ATOM     12  C   UNL     1       1.854  10.843  17.955  0.00  0.00    +0.000 A 
ATOM     13  C   UNL     1       2.299   9.531  18.147  0.00  0.00    +0.000 A 
ATOM     14  C   UNL     1       1.857   8.683  19.198  0.00  0.00    +0.000 A 
ATOM     15  C   UNL     1       2.223   7.316  19.465  0.00  0.00    +0.000 A 
ATOM     16  N   UNL     1       3.100   6.386  18.772  0.00  0.00    +0.000 N 
ATOM     17  C   UNL     1       3.766   6.557  17.573  0.00  0.00    +0.000 A 
ATOM     18  O   UNL     1       3.638   7.480  16.787  0.00  0.00    +0.000 OA
ENDROOT
BRANCH   1  19
ATOM     19  C   UNL     1       5.552   5.602  15.988  0.00  0.00    +0.000 C 
ATOM     20  O   UNL     1       5.609   4.827  15.053  0.00  0.00    +0.000 OA
BRANCH  19  21
ATOM     21  O   UNL     1       6.381   6.673  16.159  0.00  0.00    +0.000 OA
BRANCH  21  23
ATOM     22  C   UNL     1       7.753   7.870  17.698  0.00  0.00    +0.000 C 
ATOM     23  C   UNL     1       7.332   6.493  17.212  0.00  0.00    +0.000 C 
ENDBRANCH  21  23
ENDBRANCH  19  21
ENDBRANCH   1  19
TORSDOF 3
ENDMDL
MODEL 5
REMARK VINA RESULT:      -6.6      3.836      6.392
REMARK  Name = 
REMARK  4 active torsions:
REMARK  status: ('A' for Active; 'I' for Inactive)
REMARK    1  A    between atoms: C_1  and  C_2
REMARK    2  A    between atoms: C_2  and  O_3
REMARK    3  A    between atoms: O_3  and  C_4
REMARK    4  A    between atoms: C_4  and  C_6
REMARK                            x       y       z     vdW  Elec       q    Type
REMARK                         _______ _______ _______ _____ _____    ______ ____
ROOT
ATOM      1  C   UNL     1       1.297   9.324  19.766  0.00  0.00    +0.000 A 
ATOM      2  C   UNL     1       1.713   9.938  18.655  0.00  0.00    +0.000 A 
ATOM      3  N   UNL     1       2.479   9.358  17.687  0.00  0.00    +0.000 NA
ATOM      4  C   UNL     1       2.833   8.137  17.905  0.00  0.00    +0.000 A 
ATOM      5  S   UNL     1       3.853   7.308  16.761  0.00  0.00    +0.000 S 
ATOM      6  C   UNL     1       3.794   5.845  17.748  0.00  0.00    +0.000 A 
ATOM      7  C   UNL     1       4.440   4.673  17.390  0.00  0.00    +0.000 A 
ATOM      8  C   UNL     1       4.321   3.577  18.228  0.00  0.00    +0.000 A 
ATOM      9  C   UNL     1       3.573   3.651  19.411  0.00  0.00    +0.000 A 
ATOM     10  C   UNL     1       3.506   2.486  20.200  0.00  0.00    +0.000 A 
ATOM     11  C   UNL     1       2.791   2.455  21.393  0.00  0.00    +0.000 A 
ATOM     12  C   UNL     1       2.150   3.599  21.813  0.00  0.00    +0.000 A 
ATOM     13  C   UNL     1       2.228   4.765  21.045  0.00  0.00    +0.000 A 
ATOM     14  C   UNL     1       2.911   4.860  19.802  0.00  0.00    +0.000 A 
ATOM     15  C   UNL     1       3.024   5.993  18.921  0.00  0.00    +0.000 A 
ATOM     16  N   UNL     1       2.485   7.342  18.990  0.00  0.00    +0.000 N 
ATOM     17  C   UNL     1       1.611   7.875  19.918  0.00  0.00    +0.000 A 
ATOM     18  O   UNL     1       1.008   7.274  20.790  0.00  0.00    +0.000 OA
ENDROOT
BRANCH   1  19
ATOM     19  C   UNL     1       0.522  10.029  20.807  0.00  0.00    +0.000 C 
ATOM     20  O   UNL     1       0.958  10.335  21.900  0.00  0.00    +0.000 OA
BRANCH  19  21
ATOM     21  O   UNL     1      -0.777  10.187  20.418  0.00  0.00    +0.000 OA
BRANCH  21  23
ATOM     22  C   UNL     1      -1.892  11.754  19.010  0.00  0.00    +0.000 C 
ATOM     23  C   UNL     1      -1.186  11.555  20.340  0.00  0.00    +0.000 C 
ENDBRANCH  21  23
ENDBRANCH  19  21
ENDBRANCH   1  19
TORSDOF 3
ENDMDL
MODEL 6
REMARK VINA RESULT:      -6.6      3.644      6.406
REMARK  Name = 
REMARK  4 active torsions:
REMARK  status: ('A' for Active; 'I' for Inactive)
REMARK    1  A    between atoms: C_1  and  C_2
REMARK    2  A    between atoms: C_2  and  O_3
REMARK    3  A    between atoms: O_3  and  C_4
REMARK    4  A    between atoms: C_4  and  C_6
REMARK                            x       y       z     vdW  Elec       q    Type
REMARK                         _______ _______ _______ _____ _____    ______ ____
ROOT
ATOM      1  C   UNL     1       1.249   9.154  19.297  0.00  0.00    +0.000 A 
ATOM      2  C   UNL     1       1.800   9.734  18.227  0.00  0.00    +0.000 A 
ATOM      3  N   UNL     1       2.727   9.147  17.417  0.00  0.00    +0.000 NA
ATOM      4  C   UNL     1       3.097   7.958  17.753  0.00  0.00    +0.000 A 
ATOM      5  S   UNL     1       4.313   7.128  16.821  0.00  0.00    +0.000 S 
ATOM      6  C   UNL     1       4.171   5.715  17.870  0.00  0.00    +0.000 A 
ATOM      7  C   UNL     1       4.913   4.561  17.678  0.00  0.00    +0.000 A 
ATOM      8  C   UNL     1       4.718   3.503  18.549  0.00  0.00    +0.000 A 
ATOM      9  C   UNL     1       3.798   3.596  19.603  0.00  0.00    +0.000 A 
ATOM     10  C   UNL     1       3.665   2.470  20.438  0.00  0.00    +0.000 A 
ATOM     11  C   UNL     1       2.780   2.461  21.512  0.00  0.00    +0.000 A 
ATOM     12  C   UNL     1       2.034   3.589  21.767  0.00  0.00    +0.000 A 
ATOM     13  C   UNL     1       2.175   4.718  20.954  0.00  0.00    +0.000 A 
ATOM     14  C   UNL     1       3.033   4.787  19.823  0.00  0.00    +0.000 A 
ATOM     15  C   UNL     1       3.228   5.880  18.906  0.00  0.00    +0.000 A 
ATOM     16  N   UNL     1       2.626   7.201  18.818  0.00  0.00    +0.000 N 
ATOM     17  C   UNL     1       1.599   7.733  19.575  0.00  0.00    +0.000 A 
ATOM     18  O   UNL     1       0.899   7.145  20.381  0.00  0.00    +0.000 OA
ENDROOT
BRANCH   1  19
ATOM     19  C   UNL     1       0.296   9.869  20.171  0.00  0.00    +0.000 C 
ATOM     20  O   UNL     1      -0.844  10.154  19.859  0.00  0.00    +0.000 OA
BRANCH  19  21
ATOM     21  O   UNL     1       0.907  10.267  21.326  0.00  0.00    +0.000 OA
BRANCH  21  23
ATOM     22  C   UNL     1      -0.129   9.458  23.315  0.00  0.00    +0.000 C 
ATOM     23  C   UNL     1      -0.013  10.632  22.358  0.00  0.00    +0.000 C 
ENDBRANCH  21  23
ENDBRANCH  19  21
ENDBRANCH   1  19
TORSDOF 3
ENDMDL
MODEL 7
REMARK VINA RESULT:      -6.5      3.811      6.729
REMARK  Name = 
REMARK  4 active torsions:
REMARK  status: ('A' for Active; 'I' for Inactive)
REMARK    1  A    between atoms: C_1  and  C_2
REMARK    2  A    between atoms: C_2  and  O_3
REMARK    3  A    between atoms: O_3  and  C_4
REMARK    4  A    between atoms: C_4  and  C_6
REMARK                            x       y       z     vdW  Elec       q    Type
REMARK                         _______ _______ _______ _____ _____    ______ ____
ROOT
ATOM      1  C   UNL     1       1.235   8.985  19.551  0.00  0.00    +0.000 A 
ATOM      2  C   UNL     1       0.727   8.507  20.691  0.00  0.00    +0.000 A 
ATOM      3  N   UNL     1       1.004   7.276  21.209  0.00  0.00    +0.000 NA
ATOM      4  C   UNL     1       1.792   6.534  20.508  0.00  0.00    +0.000 A 
ATOM      5  S   UNL     1       2.178   4.922  21.045  0.00  0.00    +0.000 S 
ATOM      6  C   UNL     1       3.229   4.692  19.645  0.00  0.00    +0.000 A 
ATOM      7  C   UNL     1       3.940   3.524  19.425  0.00  0.00    +0.000 A 
ATOM      8  C   UNL     1       4.747   3.450  18.303  0.00  0.00    +0.000 A 
ATOM      9  C   UNL     1       4.840   4.524  17.408  0.00  0.00    +0.000 A 
ATOM     10  C   UNL     1       5.687   4.360  16.295  0.00  0.00    +0.000 A 
ATOM     11  C   UNL     1       5.849   5.366  15.348  0.00  0.00    +0.000 A 
ATOM     12  C   UNL     1       5.148   6.541  15.501  0.00  0.00    +0.000 A 
ATOM     13  C   UNL     1       4.289   6.704  16.593  0.00  0.00    +0.000 A 
ATOM     14  C   UNL     1       4.101   5.734  17.614  0.00  0.00    +0.000 A 
ATOM     15  C   UNL     1       3.274   5.814  18.790  0.00  0.00    +0.000 A 
ATOM     16  N   UNL     1       2.419   6.867  19.313  0.00  0.00    +0.000 N 
ATOM     17  C   UNL     1       2.246   8.154  18.840  0.00  0.00    +0.000 A 
ATOM     18  O   UNL     1       2.887   8.706  17.962  0.00  0.00    +0.000 OA
ENDROOT
BRANCH   1  19
ATOM     19  C   UNL     1       0.844  10.303  19.012  0.00  0.00    +0.000 C 
ATOM     20  O   UNL     1       0.001  10.474  18.154  0.00  0.00    +0.000 OA
BRANCH  19  21
ATOM     21  O   UNL     1       1.638  11.288  19.526  0.00  0.00    +0.000 OA
BRANCH  21  23
ATOM     22  C   UNL     1       2.478  13.039  18.144  0.00  0.00    +0.000 C 
ATOM     23  C   UNL     1       1.325  12.591  19.026  0.00  0.00    +0.000 C 
ENDBRANCH  21  23
ENDBRANCH  19  21
ENDBRANCH   1  19
TORSDOF 3
ENDMDL
MODEL 8
REMARK VINA RESULT:      -6.5      3.242      5.127
REMARK  Name = 
REMARK  4 active torsions:
REMARK  status: ('A' for Active; 'I' for Inactive)
REMARK    1  A    between atoms: C_1  and  C_2
REMARK    2  A    between atoms: C_2  and  O_3
REMARK    3  A    between atoms: O_3  and  C_4
REMARK    4  A    between atoms: C_4  and  C_6
REMARK                            x       y       z     vdW  Elec       q    Type
REMARK                         _______ _______ _______ _____ _____    ______ ____
ROOT
ATOM      1  C   UNL     1       4.012   3.818  19.327  0.00  0.00    +0.000 A 
ATOM      2  C   UNL     1       4.788   3.881  18.241  0.00  0.00    +0.000 A 
ATOM      3  N   UNL     1       4.878   4.961  17.413  0.00  0.00    +0.000 NA
ATOM      4  C   UNL     1       4.125   5.964  17.711  0.00  0.00    +0.000 A 
ATOM      5  S   UNL     1       4.118   7.381  16.696  0.00  0.00    +0.000 S 
ATOM      6  C   UNL     1       2.958   8.163  17.773  0.00  0.00    +0.000 A 
ATOM      7  C   UNL     1       2.478   9.444  17.555  0.00  0.00    +0.000 A 
ATOM      8  C   UNL     1       1.580   9.972  18.467  0.00  0.00    +0.000 A 
ATOM      9  C   UNL     1       1.161   9.230  19.580  0.00  0.00    +0.000 A 
ATOM     10  C   UNL     1       0.247   9.848  20.455  0.00  0.00    +0.000 A 
ATOM     11  C   UNL     1      -0.231   9.197  21.587  0.00  0.00    +0.000 A 
ATOM     12  C   UNL     1       0.192   7.912  21.842  0.00  0.00    +0.000 A 
ATOM     13  C   UNL     1       1.084   7.284  20.968  0.00  0.00    +0.000 A 
ATOM     14  C   UNL     1       1.638   7.899  19.812  0.00  0.00    +0.000 A 
ATOM     15  C   UNL     1       2.583   7.359  18.870  0.00  0.00    +0.000 A 
ATOM     16  N   UNL     1       3.271   6.080  18.801  0.00  0.00    +0.000 N 
ATOM     17  C   UNL     1       3.261   5.044  19.716  0.00  0.00    +0.000 A 
ATOM     18  O   UNL     1       2.778   5.057  20.835  0.00  0.00    +0.000 OA
ENDROOT
BRANCH   1  19
ATOM     19  C   UNL     1       3.913   2.594  20.148  0.00  0.00    +0.000 C 
ATOM     20  O   UNL     1       4.867   1.963  20.561  0.00  0.00    +0.000 OA
BRANCH  19  21
ATOM     21  O   UNL     1       2.611   2.205  20.278  0.00  0.00    +0.000 OA
BRANCH  21  23
ATOM     22  C   UNL     1       0.657   2.506  18.946  0.00  0.00    +0.000 C 
ATOM     23  C   UNL     1       2.006   1.815  19.042  0.00  0.00    +0.000 C 
ENDBRANCH  21  23
ENDBRANCH  19  21
ENDBRANCH   1  19
TORSDOF 3
ENDMDL
MODEL 9
REMARK VINA RESULT:      -6.5      4.076      6.948
REMARK  Name = 
REMARK  4 active torsions:
REMARK  status: ('A' for Active; 'I' for Inactive)
REMARK    1  A    between atoms: C_1  and  C_2
REMARK    2  A    between atoms: C_2  and  O_3
REMARK    3  A    between atoms: O_3  and  C_4
REMARK    4  A    between atoms: C_4  and  C_6
REMARK                            x       y       z     vdW  Elec       q    Type
REMARK                         _______ _______ _______ _____ _____    ______ ____
ROOT
ATOM      1  C   UNL     1       1.063   9.364  20.520  0.00  0.00    +0.000 A 
ATOM      2  C   UNL     1       1.353  10.104  19.447  0.00  0.00    +0.000 A 
ATOM      3  N   UNL     1       2.015   9.649  18.344  0.00  0.00    +0.000 NA
ATOM      4  C   UNL     1       2.399   8.419  18.387  0.00  0.00    +0.000 A 
ATOM      5  S   UNL     1       3.297   7.740  17.056  0.00  0.00    +0.000 S 
ATOM      6  C   UNL     1       3.356   6.177  17.875  0.00  0.00    +0.000 A 
ATOM      7  C   UNL     1       3.968   5.064  17.323  0.00  0.00    +0.000 A 
ATOM      8  C   UNL     1       3.947   3.881  18.041  0.00  0.00    +0.000 A 
ATOM      9  C   UNL     1       3.330   3.810  19.298  0.00  0.00    +0.000 A 
ATOM     10  C   UNL     1       3.357   2.565  19.955  0.00  0.00    +0.000 A 
ATOM     11  C   UNL     1       2.774   2.389  21.206  0.00  0.00    +0.000 A 
ATOM     12  C   UNL     1       2.173   3.467  21.815  0.00  0.00    +0.000 A 
ATOM     13  C   UNL     1       2.159   4.711  21.178  0.00  0.00    +0.000 A 
ATOM     14  C   UNL     1       2.705   4.955  19.888  0.00  0.00    +0.000 A 
ATOM     15  C   UNL     1       2.715   6.180  19.132  0.00  0.00    +0.000 A 
ATOM     16  N   UNL     1       2.176   7.503  19.407  0.00  0.00    +0.000 N 
ATOM     17  C   UNL     1       1.402   7.914  20.475  0.00  0.00    +0.000 A 
ATOM     18  O   UNL     1       0.900   7.209  21.334  0.00  0.00    +0.000 OA
ENDROOT
BRANCH   1  19
ATOM     19  C   UNL     1       0.399   9.936  21.709  0.00  0.00    +0.000 C 
ATOM     20  O   UNL     1       0.818   9.836  22.846  0.00  0.00    +0.000 OA
BRANCH  19  21
ATOM     21  O   UNL     1      -0.802  10.490  21.371  0.00  0.00    +0.000 OA
BRANCH  21  23
ATOM     22  C   UNL     1      -2.010  11.783  22.968  0.00  0.00    +0.000 C 
ATOM     23  C   UNL     1      -0.972  11.823  21.860  0.00  0.00    +0.000 C 
ENDBRANCH  21  23
ENDBRANCH  19  21
ENDBRANCH   1  19
TORSDOF 3
ENDMDL
