MODEL 1
REMARK VINA RESULT:      -7.5      0.000      0.000
REMARK  Name = 
REMARK  3 active torsions:
REMARK  status: ('A' for Active; 'I' for Inactive)
REMARK    1  A    between atoms: C_3  and  C_4
REMARK    2  A    between atoms: C_16  and  C_17
REMARK    3  A    between atoms: C_17  and  N_18
REMARK                            x       y       z     vdW  Elec       q    Type
REMARK                         _______ _______ _______ _____ _____    ______ ____
ROOT
ATOM      1  O   UNL     1       3.439   8.038  17.281  0.00  0.00    +0.000 OA
ATOM      2  C   UNL     1       3.381   7.208  18.172  0.00  0.00    +0.000 A 
ATOM      3  C   UNL     1       4.190   5.942  18.179  0.00  0.00    +0.000 A 
ATOM      4  C   UNL     1       3.830   5.330  19.319  0.00  0.00    +0.000 A 
ATOM      5  N   UNL     1       2.950   6.045  20.102  0.00  0.00    +0.000 N 
ATOM      6  N   UNL     1       2.638   7.194  19.351  0.00  0.00    +0.000 N 
ATOM      7  C   UNL     1       1.726   8.166  19.793  0.00  0.00    +0.000 A 
ATOM      8  C   UNL     1       1.291   8.164  21.118  0.00  0.00    +0.000 A 
ATOM      9  C   UNL     1       0.388   9.137  21.545  0.00  0.00    +0.000 A 
ATOM     10  C   UNL     1      -0.076  10.093  20.641  0.00  0.00    +0.000 A 
ATOM     11  C   UNL     1       0.389  10.008  19.337  0.00  0.00    +0.000 A 
ATOM     12  N   UNL     1       1.277   9.084  18.913  0.00  0.00    +0.000 NA
ATOM     13  H   UNL     1       2.122   5.497  20.345  0.00  0.00    +0.000 HD
ENDROOT
BRANCH   3  14
ATOM     14  C   UNL     1       5.109   5.491  17.141  0.00  0.00    +0.000 A 
ATOM     15  C   UNL     1       4.845   4.349  16.373  0.00  0.00    +0.000 A 
ATOM     16  C   UNL     1       5.771   3.908  15.427  0.00  0.00    +0.000 A 
ATOM     17  C   UNL     1       6.942   4.629  15.271  0.00  0.00    +0.000 A 
ATOM     18  N   UNL     1       7.235   5.740  15.976  0.00  0.00    +0.000 NA
ATOM     19  C   UNL     1       6.320   6.136  16.898  0.00  0.00    +0.000 A 
ENDBRANCH   3  14
BRANCH  10  20
ATOM     20  C   UNL     1      -1.029  11.176  21.049  0.00  0.00    +0.000 C 
BRANCH  20  21
ATOM     21  N   UNL     1      -0.562  12.496  20.650  0.00  0.00    +0.000 N 
ATOM     22  C   UNL     1      -1.083  13.246  19.627  0.00  0.00    +0.000 A 
ATOM     23  C   UNL     1      -0.295  14.366  19.475  0.00  0.00    +0.000 A 
ATOM     24  C   UNL     1       0.730  14.295  20.448  0.00  0.00    +0.000 A 
ATOM     25  C   UNL     1       0.539  13.134  21.165  0.00  0.00    +0.000 A 
ENDBRANCH  20  21
ENDBRANCH  10  20
TORSDOF 3
ENDMDL
MODEL 2
REMARK VINA RESULT:      -7.5      2.206      8.956
REMARK  Name = 
REMARK  3 active torsions:
REMARK  status: ('A' for Active; 'I' for Inactive)
REMARK    1  A    between atoms: C_3  and  C_4
REMARK    2  A    between atoms: C_16  and  C_17
REMARK    3  A    between atoms: C_17  and  N_18
REMARK                            x       y       z     vdW  Elec       q    Type
REMARK                         _______ _______ _______ _____ _____    ______ ____
ROOT
ATOM      1  O   UNL     1       0.815   9.818  21.896  0.00  0.00    +0.000 OA
ATOM      2  C   UNL     1       0.573  10.368  20.836  0.00  0.00    +0.000 A 
ATOM      3  C   UNL     1      -0.211  11.645  20.725  0.00  0.00    +0.000 A 
ATOM      4  C   UNL     1      -0.240  11.898  19.407  0.00  0.00    +0.000 A 
ATOM      5  N   UNL     1       0.473  11.007  18.635  0.00  0.00    +0.000 N 
ATOM      6  N   UNL     1       0.934  10.027  19.534  0.00  0.00    +0.000 N 
ATOM      7  C   UNL     1       1.674   8.907  19.123  0.00  0.00    +0.000 A 
ATOM      8  C   UNL     1       2.210   8.858  17.836  0.00  0.00    +0.000 A 
ATOM      9  C   UNL     1       2.947   7.742  17.443  0.00  0.00    +0.000 A 
ATOM     10  C   UNL     1       3.130   6.684  18.334  0.00  0.00    +0.000 A 
ATOM     11  C   UNL     1       2.542   6.804  19.585  0.00  0.00    +0.000 A 
ATOM     12  N   UNL     1       1.843   7.886  19.988  0.00  0.00    +0.000 NA
ATOM     13  H   UNL     1      -0.096  10.613  17.882  0.00  0.00    +0.000 HD
ENDROOT
BRANCH   3  14
ATOM     14  C   UNL     1      -0.827  12.386  21.821  0.00  0.00    +0.000 A 
ATOM     15  C   UNL     1      -2.051  11.991  22.375  0.00  0.00    +0.000 A 
ATOM     16  C   UNL     1      -2.645  12.753  23.383  0.00  0.00    +0.000 A 
ATOM     17  C   UNL     1      -1.991  13.894  23.812  0.00  0.00    +0.000 A 
ATOM     18  N   UNL     1      -0.806  14.308  23.319  0.00  0.00    +0.000 NA
ATOM     19  C   UNL     1      -0.261  13.553  22.331  0.00  0.00    +0.000 A 
ENDBRANCH   3  14
BRANCH  10  20
ATOM     20  C   UNL     1       3.930   5.470  17.973  0.00  0.00    +0.000 C 
BRANCH  20  21
ATOM     21  N   UNL     1       5.361   5.691  18.130  0.00  0.00    +0.000 N 
ATOM     22  C   UNL     1       6.121   5.245  19.182  0.00  0.00    +0.000 A 
ATOM     23  C   UNL     1       7.390   5.762  19.039  0.00  0.00    +0.000 A 
ATOM     24  C   UNL     1       7.400   6.537  17.855  0.00  0.00    +0.000 A 
ATOM     25  C   UNL     1       6.136   6.470  17.309  0.00  0.00    +0.000 A 
ENDBRANCH  20  21
ENDBRANCH  10  20
TORSDOF 3
ENDMDL
MODEL 3
REMARK VINA RESULT:      -7.5      2.646      9.143
REMARK  Name = 
REMARK  3 active torsions:
REMARK  status: ('A' for Active; 'I' for Inactive)
REMARK    1  A    between atoms: C_3  and  C_4
REMARK    2  A    between atoms: C_16  and  C_17
REMARK    3  A    between atoms: C_17  and  N_18
REMARK                            x       y       z     vdW  Elec       q    Type
REMARK                         _______ _______ _______ _____ _____    ______ ____
ROOT
ATOM      1  O   UNL     1       0.756  10.216  22.165  0.00  0.00    +0.000 OA
ATOM      2  C   UNL     1       0.426  10.695  21.094  0.00  0.00    +0.000 A 
ATOM      3  C   UNL     1      -0.356  11.972  20.964  0.00  0.00    +0.000 A 
ATOM      4  C   UNL     1      -0.498  12.135  19.639  0.00  0.00    +0.000 A 
ATOM      5  N   UNL     1       0.139  11.184  18.871  0.00  0.00    +0.000 N 
ATOM      6  N   UNL     1       0.670  10.262  19.792  0.00  0.00    +0.000 N 
ATOM      7  C   UNL     1       1.364   9.107  19.397  0.00  0.00    +0.000 A 
ATOM      8  C   UNL     1       1.785   8.964  18.075  0.00  0.00    +0.000 A 
ATOM      9  C   UNL     1       2.477   7.814  17.697  0.00  0.00    +0.000 A 
ATOM     10  C   UNL     1       2.730   6.817  18.640  0.00  0.00    +0.000 A 
ATOM     11  C   UNL     1       2.255   7.030  19.926  0.00  0.00    +0.000 A 
ATOM     12  N   UNL     1       1.600   8.145  20.312  0.00  0.00    +0.000 NA
ATOM     13  H   UNL     1      -0.496  10.747  18.199  0.00  0.00    +0.000 HD
ENDROOT
BRANCH   3  14
ATOM     14  C   UNL     1      -0.868  12.794  22.054  0.00  0.00    +0.000 A 
ATOM     15  C   UNL     1      -2.077  12.491  22.694  0.00  0.00    +0.000 A 
ATOM     16  C   UNL     1      -2.572  13.329  23.695  0.00  0.00    +0.000 A 
ATOM     17  C   UNL     1      -1.836  14.451  24.032  0.00  0.00    +0.000 A 
ATOM     18  N   UNL     1      -0.662  14.777  23.455  0.00  0.00    +0.000 NA
ATOM     19  C   UNL     1      -0.214  13.950  22.476  0.00  0.00    +0.000 A 
ENDBRANCH   3  14
BRANCH  10  20
ATOM     20  C   UNL     1       3.487   5.571  18.296  0.00  0.00    +0.000 C 
BRANCH  20  21
ATOM     21  N   UNL     1       2.720   4.367  18.581  0.00  0.00    +0.000 N 
ATOM     22  C   UNL     1       1.542   4.015  17.972  0.00  0.00    +0.000 A 
ATOM     23  C   UNL     1       1.058   2.887  18.600  0.00  0.00    +0.000 A 
ATOM     24  C   UNL     1       1.981   2.541  19.615  0.00  0.00    +0.000 A 
ATOM     25  C   UNL     1       3.002   3.466  19.578  0.00  0.00    +0.000 A 
ENDBRANCH  20  21
ENDBRANCH  10  20
TORSDOF 3
ENDMDL
MODEL 4
REMARK VINA RESULT:      -7.5      0.805      1.012
REMARK  Name = 
REMARK  3 active torsions:
REMARK  status: ('A' for Active; 'I' for Inactive)
REMARK    1  A    between atoms: C_3  and  C_4
REMARK    2  A    between atoms: C_16  and  C_17
REMARK    3  A    between atoms: C_17  and  N_18
REMARK                            x       y       z     vdW  Elec       q    Type
REMARK                         _______ _______ _______ _____ _____    ______ ____
ROOT
ATOM      1  O   UNL     1       3.331   8.141  16.917  0.00  0.00    +0.000 OA
ATOM      2  C   UNL     1       3.286   7.403  17.885  0.00  0.00    +0.000 A 
ATOM      3  C   UNL     1       4.134   6.171  18.029  0.00  0.00    +0.000 A 
ATOM      4  C   UNL     1       3.778   5.664  19.220  0.00  0.00    +0.000 A 
ATOM      5  N   UNL     1       2.863   6.424  19.917  0.00  0.00    +0.000 N 
ATOM      6  N   UNL     1       2.526   7.481  19.050  0.00  0.00    +0.000 N 
ATOM      7  C   UNL     1       1.576   8.461  19.382  0.00  0.00    +0.000 A 
ATOM      8  C   UNL     1       1.121   8.577  20.695  0.00  0.00    +0.000 A 
ATOM      9  C   UNL     1       0.182   9.557  21.011  0.00  0.00    +0.000 A 
ATOM     10  C   UNL     1      -0.299  10.402  20.011  0.00  0.00    +0.000 A 
ATOM     11  C   UNL     1       0.189  10.203  18.728  0.00  0.00    +0.000 A 
ATOM     12  N   UNL     1       1.111   9.271  18.409  0.00  0.00    +0.000 NA
ATOM     13  H   UNL     1       2.049   5.875  20.203  0.00  0.00    +0.000 HD
ENDROOT
BRANCH   3  14
ATOM     14  C   UNL     1       5.084   5.650  17.052  0.00  0.00    +0.000 A 
ATOM     15  C   UNL     1       4.818   4.484  16.321  0.00  0.00    +0.000 A 
ATOM     16  C   UNL     1       5.770   3.977  15.436  0.00  0.00    +0.000 A 
ATOM     17  C   UNL     1       6.968   4.656  15.303  0.00  0.00    +0.000 A 
ATOM     18  N   UNL     1       7.265   5.787  15.974  0.00  0.00    +0.000 NA
ATOM     19  C   UNL     1       6.324   6.248  16.837  0.00  0.00    +0.000 A 
ENDBRANCH   3  14
BRANCH  10  20
ATOM     20  C   UNL     1      -1.293  11.487  20.297  0.00  0.00    +0.000 C 
BRANCH  20  21
ATOM     21  N   UNL     1      -0.738  12.525  21.155  0.00  0.00    +0.000 N 
ATOM     22  C   UNL     1      -1.339  13.025  22.283  0.00  0.00    +0.000 A 
ATOM     23  C   UNL     1      -0.573  14.075  22.742  0.00  0.00    +0.000 A 
ATOM     24  C   UNL     1       0.532  14.205  21.869  0.00  0.00    +0.000 A 
ATOM     25  C   UNL     1       0.411  13.231  20.901  0.00  0.00    +0.000 A 
ENDBRANCH  20  21
ENDBRANCH  10  20
TORSDOF 3
ENDMDL
MODEL 5
REMARK VINA RESULT:      -7.5      1.828      8.990
REMARK  Name = 
REMARK  3 active torsions:
REMARK  status: ('A' for Active; 'I' for Inactive)
REMARK    1  A    between atoms: C_3  and  C_4
REMARK    2  A    between atoms: C_16  and  C_17
REMARK    3  A    between atoms: C_17  and  N_18
REMARK                            x       y       z     vdW  Elec       q    Type
REMARK                         _______ _______ _______ _____ _____    ______ ____
ROOT
ATOM      1  O   UNL     1       0.724   8.852  21.351  0.00  0.00    +0.000 OA
ATOM      2  C   UNL     1       0.726   9.384  20.255  0.00  0.00    +0.000 A 
ATOM      3  C   UNL     1      -0.052  10.629  19.937  0.00  0.00    +0.000 A 
ATOM      4  C   UNL     1       0.229  10.871  18.646  0.00  0.00    +0.000 A 
ATOM      5  N   UNL     1       1.138  10.000  18.083  0.00  0.00    +0.000 N 
ATOM      6  N   UNL     1       1.402   9.046  19.084  0.00  0.00    +0.000 N 
ATOM      7  C   UNL     1       2.258   7.951  18.882  0.00  0.00    +0.000 A 
ATOM      8  C   UNL     1       3.090   7.912  17.763  0.00  0.00    +0.000 A 
ATOM      9  C   UNL     1       3.938   6.821  17.577  0.00  0.00    +0.000 A 
ATOM     10  C   UNL     1       3.937   5.779  18.504  0.00  0.00    +0.000 A 
ATOM     11  C   UNL     1       3.062   5.887  19.574  0.00  0.00    +0.000 A 
ATOM     12  N   UNL     1       2.248   6.944  19.778  0.00  0.00    +0.000 NA
ATOM     13  H   UNL     1       0.781   9.579  17.222  0.00  0.00    +0.000 HD
ENDROOT
BRANCH   3  14
ATOM     14  C   UNL     1      -0.938  11.356  20.839  0.00  0.00    +0.000 A 
ATOM     15  C   UNL     1      -0.793  11.276  22.230  0.00  0.00    +0.000 A 
ATOM     16  C   UNL     1      -1.693  11.935  23.070  0.00  0.00    +0.000 A 
ATOM     17  C   UNL     1      -2.716  12.663  22.490  0.00  0.00    +0.000 A 
ATOM     18  N   UNL     1      -2.889  12.780  21.158  0.00  0.00    +0.000 NA
ATOM     19  C   UNL     1      -2.006  12.117  20.368  0.00  0.00    +0.000 A 
ENDBRANCH   3  14
BRANCH  10  20
ATOM     20  C   UNL     1       4.842   4.592  18.367  0.00  0.00    +0.000 C 
BRANCH  20  21
ATOM     21  N   UNL     1       5.516   4.564  17.076  0.00  0.00    +0.000 N 
ATOM     22  C   UNL     1       4.982   4.068  15.914  0.00  0.00    +0.000 A 
ATOM     23  C   UNL     1       5.965   4.096  14.948  0.00  0.00    +0.000 A 
ATOM     24  C   UNL     1       7.127   4.639  15.544  0.00  0.00    +0.000 A 
ATOM     25  C   UNL     1       6.821   4.927  16.856  0.00  0.00    +0.000 A 
ENDBRANCH  20  21
ENDBRANCH  10  20
TORSDOF 3
ENDMDL
MODEL 6
REMARK VINA RESULT:      -7.4      3.115      9.624
REMARK  Name = 
REMARK  3 active torsions:
REMARK  status: ('A' for Active; 'I' for Inactive)
REMARK    1  A    between atoms: C_3  and  C_4
REMARK    2  A    between atoms: C_16  and  C_17
REMARK    3  A    between atoms: C_17  and  N_18
REMARK                            x       y       z     vdW  Elec       q    Type
REMARK                         _______ _______ _______ _____ _____    ______ ____
ROOT
ATOM      1  O   UNL     1      -0.155  10.547  23.175  0.00  0.00    +0.000 OA
ATOM      2  C   UNL     1      -0.446  11.054  22.106  0.00  0.00    +0.000 A 
ATOM      3  C   UNL     1      -1.278  12.299  21.980  0.00  0.00    +0.000 A 
ATOM      4  C   UNL     1      -1.353  12.510  20.656  0.00  0.00    +0.000 A 
ATOM      5  N   UNL     1      -0.631  11.620  19.891  0.00  0.00    +0.000 N 
ATOM      6  N   UNL     1      -0.110  10.686  20.805  0.00  0.00    +0.000 N 
ATOM      7  C   UNL     1       0.658   9.580  20.407  0.00  0.00    +0.000 A 
ATOM      8  C   UNL     1       1.159   9.510  19.107  0.00  0.00    +0.000 A 
ATOM      9  C   UNL     1       1.924   8.408  18.726  0.00  0.00    +0.000 A 
ATOM     10  C   UNL     1       2.170   7.386  19.643  0.00  0.00    +0.000 A 
ATOM     11  C   UNL     1       1.614   7.525  20.907  0.00  0.00    +0.000 A 
ATOM     12  N   UNL     1       0.887   8.593  21.297  0.00  0.00    +0.000 NA
ATOM     13  H   UNL     1      -1.206  11.184  19.167  0.00  0.00    +0.000 HD
ENDROOT
BRANCH   3  14
ATOM     14  C   UNL     1      -1.889  13.052  23.070  0.00  0.00    +0.000 A 
ATOM     15  C   UNL     1      -3.162  12.731  23.559  0.00  0.00    +0.000 A 
ATOM     16  C   UNL     1      -3.745  13.506  24.563  0.00  0.00    +0.000 A 
ATOM     17  C   UNL     1      -3.033  14.585  25.055  0.00  0.00    +0.000 A 
ATOM     18  N   UNL     1      -1.801  14.925  24.626  0.00  0.00    +0.000 NA
ATOM     19  C   UNL     1      -1.266  14.161  23.640  0.00  0.00    +0.000 A 
ENDBRANCH   3  14
BRANCH  10  20
ATOM     20  C   UNL     1       3.003   6.190  19.296  0.00  0.00    +0.000 C 
BRANCH  20  21
ATOM     21  N   UNL     1       2.207   4.974  19.212  0.00  0.00    +0.000 N 
ATOM     22  C   UNL     1       1.841   4.191  20.278  0.00  0.00    +0.000 A 
ATOM     23  C   UNL     1       1.212   3.068  19.785  0.00  0.00    +0.000 A 
ATOM     24  C   UNL     1       1.186   3.183  18.375  0.00  0.00    +0.000 A 
ATOM     25  C   UNL     1       1.800   4.373  18.047  0.00  0.00    +0.000 A 
ENDBRANCH  20  21
ENDBRANCH  10  20
TORSDOF 3
ENDMDL
MODEL 7
REMARK VINA RESULT:      -7.4      2.350      9.052
REMARK  Name = 
REMARK  3 active torsions:
REMARK  status: ('A' for Active; 'I' for Inactive)
REMARK    1  A    between atoms: C_3  and  C_4
REMARK    2  A    between atoms: C_16  and  C_17
REMARK    3  A    between atoms: C_17  and  N_18
REMARK                            x       y       z     vdW  Elec       q    Type
REMARK                         _______ _______ _______ _____ _____    ______ ____
ROOT
ATOM      1  O   UNL     1       0.593   9.210  21.359  0.00  0.00    +0.000 OA
ATOM      2  C   UNL     1       0.553   9.731  20.258  0.00  0.00    +0.000 A 
ATOM      3  C   UNL     1      -0.252  10.963  19.953  0.00  0.00    +0.000 A 
ATOM      4  C   UNL     1      -0.015  11.196  18.652  0.00  0.00    +0.000 A 
ATOM      5  N   UNL     1       0.888  10.333  18.069  0.00  0.00    +0.000 N 
ATOM      6  N   UNL     1       1.197   9.392  19.070  0.00  0.00    +0.000 N 
ATOM      7  C   UNL     1       2.062   8.308  18.851  0.00  0.00    +0.000 A 
ATOM      8  C   UNL     1       2.859   8.270  17.707  0.00  0.00    +0.000 A 
ATOM      9  C   UNL     1       3.716   7.189  17.505  0.00  0.00    +0.000 A 
ATOM     10  C   UNL     1       3.759   6.155  18.441  0.00  0.00    +0.000 A 
ATOM     11  C   UNL     1       2.916   6.262  19.538  0.00  0.00    +0.000 A 
ATOM     12  N   UNL     1       2.095   7.309  19.757  0.00  0.00    +0.000 NA
ATOM     13  H   UNL     1       0.511   9.899  17.224  0.00  0.00    +0.000 HD
ENDROOT
BRANCH   3  14
ATOM     14  C   UNL     1      -1.121  11.685  20.876  0.00  0.00    +0.000 A 
ATOM     15  C   UNL     1      -0.787  11.838  22.228  0.00  0.00    +0.000 A 
ATOM     16  C   UNL     1      -1.666  12.483  23.100  0.00  0.00    +0.000 A 
ATOM     17  C   UNL     1      -2.859  12.965  22.590  0.00  0.00    +0.000 A 
ATOM     18  N   UNL     1      -3.217  12.854  21.295  0.00  0.00    +0.000 NA
ATOM     19  C   UNL     1      -2.348  12.210  20.476  0.00  0.00    +0.000 A 
ENDBRANCH   3  14
BRANCH  10  20
ATOM     20  C   UNL     1       4.677   4.981  18.287  0.00  0.00    +0.000 C 
BRANCH  20  21
ATOM     21  N   UNL     1       3.948   3.723  18.211  0.00  0.00    +0.000 N 
ATOM     22  C   UNL     1       2.979   3.422  17.287  0.00  0.00    +0.000 A 
ATOM     23  C   UNL     1       2.437   2.200  17.621  0.00  0.00    +0.000 A 
ATOM     24  C   UNL     1       3.110   1.742  18.779  0.00  0.00    +0.000 A 
ATOM     25  C   UNL     1       4.043   2.697  19.118  0.00  0.00    +0.000 A 
ENDBRANCH  20  21
ENDBRANCH  10  20
TORSDOF 3
ENDMDL
MODEL 8
REMARK VINA RESULT:      -7.4      1.835      8.963
REMARK  Name = 
REMARK  3 active torsions:
REMARK  status: ('A' for Active; 'I' for Inactive)
REMARK    1  A    between atoms: C_3  and  C_4
REMARK    2  A    between atoms: C_16  and  C_17
REMARK    3  A    between atoms: C_17  and  N_18
REMARK                            x       y       z     vdW  Elec       q    Type
REMARK                         _______ _______ _______ _____ _____    ______ ____
ROOT
ATOM      1  O   UNL     1       0.830   8.714  21.301  0.00  0.00    +0.000 OA
ATOM      2  C   UNL     1       0.834   9.239  20.202  0.00  0.00    +0.000 A 
ATOM      3  C   UNL     1       0.051  10.478  19.873  0.00  0.00    +0.000 A 
ATOM      4  C   UNL     1       0.337  10.713  18.582  0.00  0.00    +0.000 A 
ATOM      5  N   UNL     1       1.254   9.845  18.030  0.00  0.00    +0.000 N 
ATOM      6  N   UNL     1       1.519   8.899  19.037  0.00  0.00    +0.000 N 
ATOM      7  C   UNL     1       2.382   7.808  18.846  0.00  0.00    +0.000 A 
ATOM      8  C   UNL     1       3.221   7.768  17.732  0.00  0.00    +0.000 A 
ATOM      9  C   UNL     1       4.077   6.681  17.557  0.00  0.00    +0.000 A 
ATOM     10  C   UNL     1       4.077   5.644  18.490  0.00  0.00    +0.000 A 
ATOM     11  C   UNL     1       3.195   5.753  19.556  0.00  0.00    +0.000 A 
ATOM     12  N   UNL     1       2.374   6.806  19.749  0.00  0.00    +0.000 NA
ATOM     13  H   UNL     1       0.905   9.417  17.169  0.00  0.00    +0.000 HD
ENDROOT
BRANCH   3  14
ATOM     14  C   UNL     1      -0.845  11.204  20.766  0.00  0.00    +0.000 A 
ATOM     15  C   UNL     1      -1.903  11.978  20.271  0.00  0.00    +0.000 A 
ATOM     16  C   UNL     1      -2.709  12.708  21.147  0.00  0.00    +0.000 A 
ATOM     17  C   UNL     1      -2.433  12.641  22.501  0.00  0.00    +0.000 A 
ATOM     18  N   UNL     1      -1.436  11.900  23.025  0.00  0.00    +0.000 NA
ATOM     19  C   UNL     1      -0.662  11.212  22.147  0.00  0.00    +0.000 A 
ENDBRANCH   3  14
BRANCH  10  20
ATOM     20  C   UNL     1       4.990   4.462  18.365  0.00  0.00    +0.000 C 
BRANCH  20  21
ATOM     21  N   UNL     1       5.621   4.394  17.054  0.00  0.00    +0.000 N 
ATOM     22  C   UNL     1       6.883   4.842  16.757  0.00  0.00    +0.000 A 
ATOM     23  C   UNL     1       7.067   4.725  15.396  0.00  0.00    +0.000 A 
ATOM     24  C   UNL     1       5.880   4.177  14.856  0.00  0.00    +0.000 A 
ATOM     25  C   UNL     1       5.005   3.975  15.901  0.00  0.00    +0.000 A 
ENDBRANCH  20  21
ENDBRANCH  10  20
TORSDOF 3
ENDMDL
MODEL 9
REMARK VINA RESULT:      -7.4      2.006      8.937
REMARK  Name = 
REMARK  3 active torsions:
REMARK  status: ('A' for Active; 'I' for Inactive)
REMARK    1  A    between atoms: C_3  and  C_4
REMARK    2  A    between atoms: C_16  and  C_17
REMARK    3  A    between atoms: C_17  and  N_18
REMARK                            x       y       z     vdW  Elec       q    Type
REMARK                         _______ _______ _______ _____ _____    ______ ____
ROOT
ATOM      1  O   UNL     1       0.530   9.309  21.477  0.00  0.00    +0.000 OA
ATOM      2  C   UNL     1       0.577   9.784  20.356  0.00  0.00    +0.000 A 
ATOM      3  C   UNL     1      -0.074  11.085  19.980  0.00  0.00    +0.000 A 
ATOM      4  C   UNL     1       0.220  11.234  18.678  0.00  0.00    +0.000 A 
ATOM      5  N   UNL     1       1.033  10.251  18.156  0.00  0.00    +0.000 N 
ATOM      6  N   UNL     1       1.207   9.325  19.201  0.00  0.00    +0.000 N 
ATOM      7  C   UNL     1       1.948   8.141  19.051  0.00  0.00    +0.000 A 
ATOM      8  C   UNL     1       2.764   7.965  17.933  0.00  0.00    +0.000 A 
ATOM      9  C   UNL     1       3.498   6.787  17.798  0.00  0.00    +0.000 A 
ATOM     10  C   UNL     1       3.399   5.796  18.775  0.00  0.00    +0.000 A 
ATOM     11  C   UNL     1       2.547   6.042  19.841  0.00  0.00    +0.000 A 
ATOM     12  N   UNL     1       1.845   7.184  19.996  0.00  0.00    +0.000 NA
ATOM     13  H   UNL     1       0.630   9.827  17.317  0.00  0.00    +0.000 HD
ENDROOT
BRANCH   3  14
ATOM     14  C   UNL     1      -0.878  11.939  20.847  0.00  0.00    +0.000 A 
ATOM     15  C   UNL     1      -0.408  12.361  22.098  0.00  0.00    +0.000 A 
ATOM     16  C   UNL     1      -1.222  13.130  22.932  0.00  0.00    +0.000 A 
ATOM     17  C   UNL     1      -2.489  13.459  22.486  0.00  0.00    +0.000 A 
ATOM     18  N   UNL     1      -2.980  13.089  21.287  0.00  0.00    +0.000 NA
ATOM     19  C   UNL     1      -2.170  12.331  20.505  0.00  0.00    +0.000 A 
ENDBRANCH   3  14
BRANCH  10  20
ATOM     20  C   UNL     1       4.180   4.519  18.694  0.00  0.00    +0.000 C 
BRANCH  20  21
ATOM     21  N   UNL     1       5.598   4.759  18.467  0.00  0.00    +0.000 N 
ATOM     22  C   UNL     1       6.439   5.416  19.329  0.00  0.00    +0.000 A 
ATOM     23  C   UNL     1       7.661   5.557  18.707  0.00  0.00    +0.000 A 
ATOM     24  C   UNL     1       7.558   4.955  17.432  0.00  0.00    +0.000 A 
ATOM     25  C   UNL     1       6.276   4.463  17.311  0.00  0.00    +0.000 A 
ENDBRANCH  20  21
ENDBRANCH  10  20
TORSDOF 3
ENDMDL
