MODEL 1
REMARK VINA RESULT:      -6.6      0.000      0.000
REMARK  Name = 
REMARK  3 active torsions:
REMARK  status: ('A' for Active; 'I' for Inactive)
REMARK    1  A    between atoms: C_5  and  S_6
REMARK    2  A    between atoms: S_6  and  C_7
REMARK    3  A    between atoms: C_7  and  C_8
REMARK                            x       y       z     vdW  Elec       q    Type
REMARK                         _______ _______ _______ _____ _____    ______ ____
ROOT
ATOM      1  S   UNL     1       5.540   5.179  19.040  0.00  0.00    +0.000 S 
ENDROOT
BRANCH   1   6
ATOM      2  N   UNL     1       6.643   4.431  13.806  0.00  0.00    +0.000 N 
ATOM      3  C   UNL     1       6.681   4.573  15.143  0.00  0.00    +0.000 A 
ATOM      4  N   UNL     1       7.765   4.501  15.884  0.00  0.00    +0.000 NA
ATOM      5  N   UNL     1       7.507   4.690  17.233  0.00  0.00    +0.000 NA
ATOM      6  C   UNL     1       6.226   4.897  17.457  0.00  0.00    +0.000 A 
ATOM      7  S   UNL     1       5.251   4.863  16.048  0.00  0.00    +0.000 S 
ATOM      8  H   UNL     1       7.457   4.025  13.358  0.00  0.00    +0.000 HD
ATOM      9  H   UNL     1       5.760   4.206  13.362  0.00  0.00    +0.000 HD
ENDBRANCH   1   6
BRANCH   1  10
ATOM     10  C   UNL     1       3.894   5.831  18.639  0.00  0.00    +0.000 C 
BRANCH  10  11
ATOM     11  C   UNL     1       2.829   4.789  18.913  0.00  0.00    +0.000 A 
ATOM     12  C   UNL     1       1.992   4.329  17.883  0.00  0.00    +0.000 A 
ATOM     13  C   UNL     1       1.034   3.341  18.129  0.00  0.00    +0.000 A 
ATOM     14  C   UNL     1       0.902   2.797  19.407  0.00  0.00    +0.000 A 
ATOM     15  C   UNL     1       1.734   3.241  20.432  0.00  0.00    +0.000 A 
ATOM     16 CL   UNL     1       1.580   2.563  22.007  0.00  0.00    +0.000 Cl
ATOM     17  C   UNL     1       2.693   4.226  20.193  0.00  0.00    +0.000 A 
ENDBRANCH  10  11
ENDBRANCH   1  10
TORSDOF 3
ENDMDL
MODEL 2
REMARK VINA RESULT:      -6.4      1.536      2.004
REMARK  Name = 
REMARK  3 active torsions:
REMARK  status: ('A' for Active; 'I' for Inactive)
REMARK    1  A    between atoms: C_5  and  S_6
REMARK    2  A    between atoms: S_6  and  C_7
REMARK    3  A    between atoms: C_7  and  C_8
REMARK                            x       y       z     vdW  Elec       q    Type
REMARK                         _______ _______ _______ _____ _____    ______ ____
ROOT
ATOM      1  S   UNL     1       3.465   7.029  17.837  0.00  0.00    +0.000 S 
ENDROOT
BRANCH   1   6
ATOM      2  N   UNL     1       8.047   4.229  17.259  0.00  0.00    +0.000 N 
ATOM      3  C   UNL     1       6.930   4.832  17.705  0.00  0.00    +0.000 A 
ATOM      4  N   UNL     1       6.493   4.800  18.946  0.00  0.00    +0.000 NA
ATOM      5  N   UNL     1       5.316   5.512  19.119  0.00  0.00    +0.000 NA
ATOM      6  C   UNL     1       4.908   6.056  17.992  0.00  0.00    +0.000 A 
ATOM      7  S   UNL     1       5.918   5.728  16.646  0.00  0.00    +0.000 S 
ATOM      8  H   UNL     1       8.466   3.525  17.856  0.00  0.00    +0.000 HD
ATOM      9  H   UNL     1       8.146   4.056  16.266  0.00  0.00    +0.000 HD
ENDBRANCH   1   6
BRANCH   1  10
ATOM     10  C   UNL     1       2.588   6.674  19.387  0.00  0.00    +0.000 C 
BRANCH  10  11
ATOM     11  C   UNL     1       2.059   5.255  19.384  0.00  0.00    +0.000 A 
ATOM     12  C   UNL     1       1.721   4.615  18.180  0.00  0.00    +0.000 A 
ATOM     13  C   UNL     1       1.267   3.294  18.176  0.00  0.00    +0.000 A 
ATOM     14  C   UNL     1       1.148   2.591  19.375  0.00  0.00    +0.000 A 
ATOM     15  C   UNL     1       1.489   3.214  20.574  0.00  0.00    +0.000 A 
ATOM     16 CL   UNL     1       1.353   2.345  22.054  0.00  0.00    +0.000 Cl
ATOM     17  C   UNL     1       1.944   4.534  20.585  0.00  0.00    +0.000 A 
ENDBRANCH  10  11
ENDBRANCH   1  10
TORSDOF 3
ENDMDL
MODEL 3
REMARK VINA RESULT:      -6.4      1.870      2.140
REMARK  Name = 
REMARK  3 active torsions:
REMARK  status: ('A' for Active; 'I' for Inactive)
REMARK    1  A    between atoms: C_5  and  S_6
REMARK    2  A    between atoms: S_6  and  C_7
REMARK    3  A    between atoms: C_7  and  C_8
REMARK                            x       y       z     vdW  Elec       q    Type
REMARK                         _______ _______ _______ _____ _____    ______ ____
ROOT
ATOM      1  S   UNL     1       6.074   5.782  18.240  0.00  0.00    +0.000 S 
ENDROOT
BRANCH   1   6
ATOM      2  N   UNL     1       6.333   3.548  13.330  0.00  0.00    +0.000 N 
ATOM      3  C   UNL     1       6.513   4.276  14.447  0.00  0.00    +0.000 A 
ATOM      4  N   UNL     1       7.426   5.210  14.605  0.00  0.00    +0.000 NA
ATOM      5  N   UNL     1       7.378   5.799  15.859  0.00  0.00    +0.000 NA
ATOM      6  C   UNL     1       6.426   5.279  16.604  0.00  0.00    +0.000 A 
ATOM      7  S   UNL     1       5.533   4.034  15.835  0.00  0.00    +0.000 S 
ATOM      8  H   UNL     1       7.078   3.557  12.643  0.00  0.00    +0.000 HD
ATOM      9  H   UNL     1       5.827   2.672  13.393  0.00  0.00    +0.000 HD
ENDBRANCH   1   6
BRANCH   1  10
ATOM     10  C   UNL     1       5.444   4.254  18.990  0.00  0.00    +0.000 C 
BRANCH  10  11
ATOM     11  C   UNL     1       4.010   4.437  19.443  0.00  0.00    +0.000 A 
ATOM     12  C   UNL     1       3.172   3.328  19.646  0.00  0.00    +0.000 A 
ATOM     13  C   UNL     1       1.860   3.497  20.098  0.00  0.00    +0.000 A 
ATOM     14  C   UNL     1       1.369   4.776  20.357  0.00  0.00    +0.000 A 
ATOM     15  C   UNL     1       2.195   5.881  20.167  0.00  0.00    +0.000 A 
ATOM     16 CL   UNL     1       1.593   7.461  20.497  0.00  0.00    +0.000 Cl
ATOM     17  C   UNL     1       3.506   5.720  19.716  0.00  0.00    +0.000 A 
ENDBRANCH  10  11
ENDBRANCH   1  10
TORSDOF 3
ENDMDL
MODEL 4
REMARK VINA RESULT:      -6.4      1.592      2.063
REMARK  Name = 
REMARK  3 active torsions:
REMARK  status: ('A' for Active; 'I' for Inactive)
REMARK    1  A    between atoms: C_5  and  S_6
REMARK    2  A    between atoms: S_6  and  C_7
REMARK    3  A    between atoms: C_7  and  C_8
REMARK                            x       y       z     vdW  Elec       q    Type
REMARK                         _______ _______ _______ _____ _____    ______ ____
ROOT
ATOM      1  S   UNL     1       5.697   4.475  17.435  0.00  0.00    +0.000 S 
ENDROOT
BRANCH   1   6
ATOM      2  N   UNL     1       7.144   4.415  12.231  0.00  0.00    +0.000 N 
ATOM      3  C   UNL     1       7.013   4.649  13.550  0.00  0.00    +0.000 A 
ATOM      4  N   UNL     1       7.726   5.510  14.243  0.00  0.00    +0.000 NA
ATOM      5  N   UNL     1       7.372   5.543  15.583  0.00  0.00    +0.000 NA
ATOM      6  C   UNL     1       6.400   4.697  15.850  0.00  0.00    +0.000 A 
ATOM      7  S   UNL     1       5.860   3.796  14.494  0.00  0.00    +0.000 S 
ATOM      8  H   UNL     1       7.985   4.756  11.780  0.00  0.00    +0.000 HD
ATOM      9  H   UNL     1       6.779   3.551  11.849  0.00  0.00    +0.000 HD
ENDBRANCH   1   6
BRANCH   1  10
ATOM     10  C   UNL     1       4.337   5.677  17.429  0.00  0.00    +0.000 C 
BRANCH  10  11
ATOM     11  C   UNL     1       3.254   5.257  18.401  0.00  0.00    +0.000 A 
ATOM     12  C   UNL     1       2.936   6.056  19.513  0.00  0.00    +0.000 A 
ATOM     13  C   UNL     1       1.912   5.685  20.389  0.00  0.00    +0.000 A 
ATOM     14  C   UNL     1       1.189   4.513  20.164  0.00  0.00    +0.000 A 
ATOM     15  C   UNL     1       1.493   3.719  19.061  0.00  0.00    +0.000 A 
ATOM     16 CL   UNL     1       0.595   2.277  18.776  0.00  0.00    +0.000 Cl
ATOM     17  C   UNL     1       2.514   4.084  18.181  0.00  0.00    +0.000 A 
ENDBRANCH  10  11
ENDBRANCH   1  10
TORSDOF 3
ENDMDL
MODEL 5
REMARK VINA RESULT:      -6.3      1.023      1.023
REMARK  Name = 
REMARK  3 active torsions:
REMARK  status: ('A' for Active; 'I' for Inactive)
REMARK    1  A    between atoms: C_5  and  S_6
REMARK    2  A    between atoms: S_6  and  C_7
REMARK    3  A    between atoms: C_7  and  C_8
REMARK                            x       y       z     vdW  Elec       q    Type
REMARK                         _______ _______ _______ _____ _____    ______ ____
ROOT
ATOM      1  S   UNL     1       5.533   5.110  19.186  0.00  0.00    +0.000 S 
ENDROOT
BRANCH   1   6
ATOM      2  N   UNL     1       7.582   5.309  14.193  0.00  0.00    +0.000 N 
ATOM      3  C   UNL     1       6.915   5.008  15.322  0.00  0.00    +0.000 A 
ATOM      4  N   UNL     1       6.076   4.005  15.464  0.00  0.00    +0.000 NA
ATOM      5  N   UNL     1       5.536   3.934  16.740  0.00  0.00    +0.000 NA
ATOM      6  C   UNL     1       5.992   4.895  17.514  0.00  0.00    +0.000 A 
ATOM      7  S   UNL     1       7.096   5.956  16.743  0.00  0.00    +0.000 S 
ATOM      8  H   UNL     1       7.260   4.878  13.334  0.00  0.00    +0.000 HD
ATOM      9  H   UNL     1       7.962   6.241  14.083  0.00  0.00    +0.000 HD
ENDBRANCH   1   6
BRANCH   1  10
ATOM     10  C   UNL     1       3.891   5.870  19.045  0.00  0.00    +0.000 C 
BRANCH  10  11
ATOM     11  C   UNL     1       2.808   4.817  19.161  0.00  0.00    +0.000 A 
ATOM     12  C   UNL     1       2.079   4.407  18.032  0.00  0.00    +0.000 A 
ATOM     13  C   UNL     1       1.104   3.410  18.135  0.00  0.00    +0.000 A 
ATOM     14  C   UNL     1       0.847   2.807  19.366  0.00  0.00    +0.000 A 
ATOM     15  C   UNL     1       1.570   3.202  20.489  0.00  0.00    +0.000 A 
ATOM     16 CL   UNL     1       1.261   2.451  22.008  0.00  0.00    +0.000 Cl
ATOM     17  C   UNL     1       2.545   4.196  20.394  0.00  0.00    +0.000 A 
ENDBRANCH  10  11
ENDBRANCH   1  10
TORSDOF 3
ENDMDL
MODEL 6
REMARK VINA RESULT:      -6.3      1.654      2.920
REMARK  Name = 
REMARK  3 active torsions:
REMARK  status: ('A' for Active; 'I' for Inactive)
REMARK    1  A    between atoms: C_5  and  S_6
REMARK    2  A    between atoms: S_6  and  C_7
REMARK    3  A    between atoms: C_7  and  C_8
REMARK                            x       y       z     vdW  Elec       q    Type
REMARK                         _______ _______ _______ _____ _____    ______ ____
ROOT
ATOM      1  S   UNL     1       4.614   5.003  16.588  0.00  0.00    +0.000 S 
ENDROOT
BRANCH   1   6
ATOM      2  N   UNL     1       8.564   5.281  20.261  0.00  0.00    +0.000 N 
ATOM      3  C   UNL     1       7.806   5.078  19.167  0.00  0.00    +0.000 A 
ATOM      4  N   UNL     1       8.219   4.519  18.051  0.00  0.00    +0.000 NA
ATOM      5  N   UNL     1       7.221   4.436  17.092  0.00  0.00    +0.000 NA
ATOM      6  C   UNL     1       6.087   4.943  17.526  0.00  0.00    +0.000 A 
ATOM      7  S   UNL     1       6.160   5.565  19.123  0.00  0.00    +0.000 S 
ATOM      8  H   UNL     1       9.569   5.204  20.151  0.00  0.00    +0.000 HD
ATOM      9  H   UNL     1       8.265   5.968  20.943  0.00  0.00    +0.000 HD
ENDBRANCH   1   6
BRANCH   1  10
ATOM     10  C   UNL     1       3.606   6.189  17.520  0.00  0.00    +0.000 C 
BRANCH  10  11
ATOM     11  C   UNL     1       2.729   5.468  18.523  0.00  0.00    +0.000 A 
ATOM     12  C   UNL     1       2.462   6.032  19.782  0.00  0.00    +0.000 A 
ATOM     13  C   UNL     1       1.624   5.381  20.692  0.00  0.00    +0.000 A 
ATOM     14  C   UNL     1       1.038   4.161  20.355  0.00  0.00    +0.000 A 
ATOM     15  C   UNL     1       1.291   3.598  19.106  0.00  0.00    +0.000 A 
ATOM     16 CL   UNL     1       0.561   2.097  18.685  0.00  0.00    +0.000 Cl
ATOM     17  C   UNL     1       2.126   4.242  18.192  0.00  0.00    +0.000 A 
ENDBRANCH  10  11
ENDBRANCH   1  10
TORSDOF 3
ENDMDL
MODEL 7
REMARK VINA RESULT:      -6.3      1.639      1.955
REMARK  Name = 
REMARK  3 active torsions:
REMARK  status: ('A' for Active; 'I' for Inactive)
REMARK    1  A    between atoms: C_5  and  S_6
REMARK    2  A    between atoms: S_6  and  C_7
REMARK    3  A    between atoms: C_7  and  C_8
REMARK                            x       y       z     vdW  Elec       q    Type
REMARK                         _______ _______ _______ _____ _____    ______ ____
ROOT
ATOM      1  S   UNL     1       5.002   5.187  17.004  0.00  0.00    +0.000 S 
ENDROOT
BRANCH   1   6
ATOM      2  N   UNL     1       7.405   4.360  12.239  0.00  0.00    +0.000 N 
ATOM      3  C   UNL     1       7.068   4.736  13.486  0.00  0.00    +0.000 A 
ATOM      4  N   UNL     1       7.796   5.500  14.271  0.00  0.00    +0.000 NA
ATOM      5  N   UNL     1       7.198   5.726  15.502  0.00  0.00    +0.000 NA
ATOM      6  C   UNL     1       6.035   5.117  15.597  0.00  0.00    +0.000 A 
ATOM      7  S   UNL     1       5.596   4.220  14.204  0.00  0.00    +0.000 S 
ATOM      8  H   UNL     1       8.372   4.484  11.961  0.00  0.00    +0.000 HD
ATOM      9  H   UNL     1       6.948   3.553  11.831  0.00  0.00    +0.000 HD
ENDBRANCH   1   6
BRANCH   1  10
ATOM     10  C   UNL     1       4.306   3.512  17.060  0.00  0.00    +0.000 C 
BRANCH  10  11
ATOM     11  C   UNL     1       3.094   3.471  17.967  0.00  0.00    +0.000 A 
ATOM     12  C   UNL     1       2.216   2.374  17.946  0.00  0.00    +0.000 A 
ATOM     13  C   UNL     1       1.118   2.321  18.809  0.00  0.00    +0.000 A 
ATOM     14  C   UNL     1       0.883   3.362  19.708  0.00  0.00    +0.000 A 
ATOM     15  C   UNL     1       1.752   4.450  19.741  0.00  0.00    +0.000 A 
ATOM     16 CL   UNL     1       1.471   5.731  20.857  0.00  0.00    +0.000 Cl
ATOM     17  C   UNL     1       2.852   4.509  18.883  0.00  0.00    +0.000 A 
ENDBRANCH  10  11
ENDBRANCH   1  10
TORSDOF 3
ENDMDL
MODEL 8
REMARK VINA RESULT:      -6.3      3.921      5.478
REMARK  Name = 
REMARK  3 active torsions:
REMARK  status: ('A' for Active; 'I' for Inactive)
REMARK    1  A    between atoms: C_5  and  S_6
REMARK    2  A    between atoms: S_6  and  C_7
REMARK    3  A    between atoms: C_7  and  C_8
REMARK                            x       y       z     vdW  Elec       q    Type
REMARK                         _______ _______ _______ _____ _____    ______ ____
ROOT
ATOM      1  S   UNL     1       3.056   5.912  19.150  0.00  0.00    +0.000 S 
ENDROOT
BRANCH   1   6
ATOM      2  N   UNL     1       4.002   0.647  18.406  0.00  0.00    +0.000 N 
ATOM      3  C   UNL     1       3.544   1.911  18.370  0.00  0.00    +0.000 A 
ATOM      4  N   UNL     1       2.562   2.341  17.608  0.00  0.00    +0.000 NA
ATOM      5  N   UNL     1       2.300   3.692  17.782  0.00  0.00    +0.000 NA
ATOM      6  C   UNL     1       3.104   4.231  18.674  0.00  0.00    +0.000 A 
ATOM      7  S   UNL     1       4.237   3.138  19.352  0.00  0.00    +0.000 S 
ATOM      8  H   UNL     1       3.731   0.032  17.647  0.00  0.00    +0.000 HD
ATOM      9  H   UNL     1       4.926   0.472  18.783  0.00  0.00    +0.000 HD
ENDBRANCH   1   6
BRANCH   1  10
ATOM     10  C   UNL     1       3.763   6.747  17.702  0.00  0.00    +0.000 C 
BRANCH  10  11
ATOM     11  C   UNL     1       5.036   6.054  17.260  0.00  0.00    +0.000 A 
ATOM     12  C   UNL     1       6.185   6.076  18.068  0.00  0.00    +0.000 A 
ATOM     13  C   UNL     1       7.347   5.406  17.675  0.00  0.00    +0.000 A 
ATOM     14  C   UNL     1       7.376   4.703  16.471  0.00  0.00    +0.000 A 
ATOM     15  C   UNL     1       6.240   4.670  15.667  0.00  0.00    +0.000 A 
ATOM     16 CL   UNL     1       6.270   3.793  14.185  0.00  0.00    +0.000 Cl
ATOM     17  C   UNL     1       5.075   5.335  16.053  0.00  0.00    +0.000 A 
ENDBRANCH  10  11
ENDBRANCH   1  10
TORSDOF 3
ENDMDL
MODEL 9
REMARK VINA RESULT:      -6.3      1.670      1.796
REMARK  Name = 
REMARK  3 active torsions:
REMARK  status: ('A' for Active; 'I' for Inactive)
REMARK    1  A    between atoms: C_5  and  S_6
REMARK    2  A    between atoms: S_6  and  C_7
REMARK    3  A    between atoms: C_7  and  C_8
REMARK                            x       y       z     vdW  Elec       q    Type
REMARK                         _______ _______ _______ _____ _____    ______ ____
ROOT
ATOM      1  S   UNL     1       5.949   6.246  17.870  0.00  0.00    +0.000 S 
ENDROOT
BRANCH   1   6
ATOM      2  N   UNL     1       6.297   3.463  13.254  0.00  0.00    +0.000 N 
ATOM      3  C   UNL     1       6.482   4.285  14.303  0.00  0.00    +0.000 A 
ATOM      4  N   UNL     1       7.489   5.120  14.445  0.00  0.00    +0.000 NA
ATOM      5  N   UNL     1       7.421   5.846  15.624  0.00  0.00    +0.000 NA
ATOM      6  C   UNL     1       6.358   5.526  16.331  0.00  0.00    +0.000 A 
ATOM      7  S   UNL     1       5.377   4.314  15.617  0.00  0.00    +0.000 S 
ATOM      8  H   UNL     1       7.087   3.309  12.638  0.00  0.00    +0.000 HD
ATOM      9  H   UNL     1       5.683   2.664  13.361  0.00  0.00    +0.000 HD
ENDBRANCH   1   6
BRANCH   1  10
ATOM     10  C   UNL     1       4.137   6.330  17.791  0.00  0.00    +0.000 C 
BRANCH  10  11
ATOM     11  C   UNL     1       3.519   5.409  18.823  0.00  0.00    +0.000 A 
ATOM     12  C   UNL     1       2.261   5.696  19.381  0.00  0.00    +0.000 A 
ATOM     13  C   UNL     1       1.676   4.827  20.306  0.00  0.00    +0.000 A 
ATOM     14  C   UNL     1       2.337   3.659  20.685  0.00  0.00    +0.000 A 
ATOM     15  C   UNL     1       3.581   3.363  20.132  0.00  0.00    +0.000 A 
ATOM     16 CL   UNL     1       4.394   1.916  20.591  0.00  0.00    +0.000 Cl
ATOM     17  C   UNL     1       4.171   4.225  19.206  0.00  0.00    +0.000 A 
ENDBRANCH  10  11
ENDBRANCH   1  10
TORSDOF 3
ENDMDL
