MODEL 1
REMARK VINA RESULT:      -8.4      0.000      0.000
REMARK  Name = 
REMARK  8 active torsions:
REMARK  status: ('A' for Active; 'I' for Inactive)
REMARK    1  A    between atoms: C_1  and  C_2
REMARK    2  A    between atoms: C_2  and  C_3
REMARK    3  A    between atoms: C_6  and  C_7
REMARK    4  A    between atoms: N_9  and  C_10
REMARK    5  A    between atoms: C_10  and  C_11
REMARK    6  A    between atoms: C_15  and  S_16
REMARK    7  A    between atoms: S_16  and  N_19
REMARK    8  A    between atoms: N_19  and  C_20
REMARK                            x       y       z     vdW  Elec       q    Type
REMARK                         _______ _______ _______ _____ _____    ______ ____
ROOT
ATOM      1  C   UNL     1       5.904   6.729  17.077  0.00  0.00    +0.000 C 
ENDROOT
BRANCH   1   2
ATOM      2  C   UNL     1       4.670   6.199  17.768  0.00  0.00    +0.000 A 
ATOM      3  C   UNL     1       3.504   6.980  17.819  0.00  0.00    +0.000 A 
ATOM      4  C   UNL     1       2.353   6.513  18.460  0.00  0.00    +0.000 A 
ATOM      5  C   UNL     1       2.352   5.261  19.072  0.00  0.00    +0.000 A 
ATOM      6  C   UNL     1       3.511   4.482  19.039  0.00  0.00    +0.000 A 
ATOM      7  C   UNL     1       4.666   4.938  18.388  0.00  0.00    +0.000 A 
BRANCH   6   8
ATOM      8  S   UNL     1       3.478   2.870  19.784  0.00  0.00    +0.000 S 
ATOM      9  O   UNL     1       2.541   2.065  19.037  0.00  0.00    +0.000 OA
ATOM     10  O   UNL     1       4.840   2.436  20.013  0.00  0.00    +0.000 OA
BRANCH   8  11
ATOM     11  N   UNL     1       2.768   3.148  21.284  0.00  0.00    +0.000 NA
ATOM     12  C   UNL     1       1.389   2.707  21.478  0.00  0.00    +0.000 C 
ATOM     13  H   UNL     1       3.018   4.069  21.644  0.00  0.00    +0.000 HD
ENDBRANCH   8  11
ENDBRANCH   6   8
ENDBRANCH   1   2
BRANCH   1  16
ATOM     14  C   UNL     1       6.942   5.132  15.485  0.00  0.00    +0.000 C 
ATOM     15  O   UNL     1       7.675   4.643  16.340  0.00  0.00    +0.000 OA
ATOM     16  N   UNL     1       6.058   6.149  15.762  0.00  0.00    +0.000 N 
ATOM     17  H   UNL     1       5.509   6.511  14.991  0.00  0.00    +0.000 HD
BRANCH  14  21
ATOM     18  C   UNL     1       6.253   3.524  12.360  0.00  0.00    +0.000 A 
ATOM     19  C   UNL     1       7.285   4.319  11.913  0.00  0.00    +0.000 A 
ATOM     20  C   UNL     1       7.720   5.071  13.029  0.00  0.00    +0.000 A 
ATOM     21  C   UNL     1       6.934   4.694  14.102  0.00  0.00    +0.000 A 
ATOM     22  O   UNL     1       6.030   3.744  13.688  0.00  0.00    +0.000 OA
BRANCH  18  24
ATOM     23  C   UNL     1       4.085   3.157  11.196  0.00  0.00    +0.000 C 
ATOM     24  C   UNL     1       5.379   2.529  11.688  0.00  0.00    +0.000 C 
ENDBRANCH  18  24
ENDBRANCH  14  21
ENDBRANCH   1  16
TORSDOF 6
ENDMDL
MODEL 2
REMARK VINA RESULT:      -8.2      0.961      1.122
REMARK  Name = 
REMARK  8 active torsions:
REMARK  status: ('A' for Active; 'I' for Inactive)
REMARK    1  A    between atoms: C_1  and  C_2
REMARK    2  A    between atoms: C_2  and  C_3
REMARK    3  A    between atoms: C_6  and  C_7
REMARK    4  A    between atoms: N_9  and  C_10
REMARK    5  A    between atoms: C_10  and  C_11
REMARK    6  A    between atoms: C_15  and  S_16
REMARK    7  A    between atoms: S_16  and  N_19
REMARK    8  A    between atoms: N_19  and  C_20
REMARK                            x       y       z     vdW  Elec       q    Type
REMARK                         _______ _______ _______ _____ _____    ______ ____
ROOT
ATOM      1  C   UNL     1       6.115   6.709  17.040  0.00  0.00    +0.000 C 
ENDROOT
BRANCH   1   2
ATOM      2  C   UNL     1       4.832   6.298  17.723  0.00  0.00    +0.000 A 
ATOM      3  C   UNL     1       3.710   7.142  17.672  0.00  0.00    +0.000 A 
ATOM      4  C   UNL     1       2.514   6.786  18.303  0.00  0.00    +0.000 A 
ATOM      5  C   UNL     1       2.423   5.586  19.006  0.00  0.00    +0.000 A 
ATOM      6  C   UNL     1       3.538   4.747  19.074  0.00  0.00    +0.000 A 
ATOM      7  C   UNL     1       4.738   5.091  18.434  0.00  0.00    +0.000 A 
BRANCH   6   8
ATOM      8  S   UNL     1       3.392   3.200  19.934  0.00  0.00    +0.000 S 
ATOM      9  O   UNL     1       4.718   2.640  20.049  0.00  0.00    +0.000 OA
ATOM     10  O   UNL     1       2.544   3.391  21.091  0.00  0.00    +0.000 OA
BRANCH   8  11
ATOM     11  N   UNL     1       2.562   2.224  18.843  0.00  0.00    +0.000 NA
ATOM     12  C   UNL     1       1.112   2.123  18.984  0.00  0.00    +0.000 C 
ATOM     13  H   UNL     1       3.074   1.360  18.660  0.00  0.00    +0.000 HD
ENDBRANCH   8  11
ENDBRANCH   6   8
ENDBRANCH   1   2
BRANCH   1  16
ATOM     14  C   UNL     1       7.042   5.070  15.422  0.00  0.00    +0.000 C 
ATOM     15  O   UNL     1       7.767   4.541  16.261  0.00  0.00    +0.000 OA
ATOM     16  N   UNL     1       6.215   6.129  15.720  0.00  0.00    +0.000 N 
ATOM     17  H   UNL     1       5.671   6.522  14.962  0.00  0.00    +0.000 HD
BRANCH  14  21
ATOM     18  C   UNL     1       6.239   3.488  12.311  0.00  0.00    +0.000 A 
ATOM     19  C   UNL     1       7.265   4.275  11.837  0.00  0.00    +0.000 A 
ATOM     20  C   UNL     1       7.742   5.016  12.942  0.00  0.00    +0.000 A 
ATOM     21  C   UNL     1       6.987   4.640  14.037  0.00  0.00    +0.000 A 
ATOM     22  O   UNL     1       6.060   3.702  13.647  0.00  0.00    +0.000 OA
BRANCH  18  24
ATOM     23  C   UNL     1       4.050   3.157  11.177  0.00  0.00    +0.000 C 
ATOM     24  C   UNL     1       5.335   2.505  11.662  0.00  0.00    +0.000 C 
ENDBRANCH  18  24
ENDBRANCH  14  21
ENDBRANCH   1  16
TORSDOF 6
ENDMDL
MODEL 3
REMARK VINA RESULT:      -8.0      1.451      1.704
REMARK  Name = 
REMARK  8 active torsions:
REMARK  status: ('A' for Active; 'I' for Inactive)
REMARK    1  A    between atoms: C_1  and  C_2
REMARK    2  A    between atoms: C_2  and  C_3
REMARK    3  A    between atoms: C_6  and  C_7
REMARK    4  A    between atoms: N_9  and  C_10
REMARK    5  A    between atoms: C_10  and  C_11
REMARK    6  A    between atoms: C_15  and  S_16
REMARK    7  A    between atoms: S_16  and  N_19
REMARK    8  A    between atoms: N_19  and  C_20
REMARK                            x       y       z     vdW  Elec       q    Type
REMARK                         _______ _______ _______ _____ _____    ______ ____
ROOT
ATOM      1  C   UNL     1       6.578   4.365  17.874  0.00  0.00    +0.000 C 
ENDROOT
BRANCH   1   2
ATOM      2  C   UNL     1       5.201   4.726  18.379  0.00  0.00    +0.000 A 
ATOM      3  C   UNL     1       4.628   5.960  18.028  0.00  0.00    +0.000 A 
ATOM      4  C   UNL     1       3.358   6.320  18.489  0.00  0.00    +0.000 A 
ATOM      5  C   UNL     1       2.644   5.457  19.318  0.00  0.00    +0.000 A 
ATOM      6  C   UNL     1       3.210   4.233  19.683  0.00  0.00    +0.000 A 
ATOM      7  C   UNL     1       4.479   3.860  19.216  0.00  0.00    +0.000 A 
BRANCH   6   8
ATOM      8  S   UNL     1       2.269   3.125  20.702  0.00  0.00    +0.000 S 
ATOM      9  O   UNL     1       3.180   2.519  21.644  0.00  0.00    +0.000 OA
ATOM     10  O   UNL     1       1.066   3.803  21.137  0.00  0.00    +0.000 OA
BRANCH   8  11
ATOM     11  N   UNL     1       1.814   1.905  19.636  0.00  0.00    +0.000 NA
ATOM     12  C   UNL     1       0.817   2.224  18.618  0.00  0.00    +0.000 C 
ATOM     13  H   UNL     1       1.718   1.011  20.119  0.00  0.00    +0.000 HD
ENDBRANCH   8  11
ENDBRANCH   6   8
ENDBRANCH   1   2
BRANCH   1  16
ATOM     14  C   UNL     1       7.075   5.079  15.550  0.00  0.00    +0.000 C 
ATOM     15  O   UNL     1       7.558   6.151  15.905  0.00  0.00    +0.000 OA
ATOM     16  N   UNL     1       6.576   4.161  16.444  0.00  0.00    +0.000 N 
ATOM     17  H   UNL     1       6.172   3.313  16.063  0.00  0.00    +0.000 HD
BRANCH  14  21
ATOM     18  C   UNL     1       6.194   3.538  12.439  0.00  0.00    +0.000 A 
ATOM     19  C   UNL     1       7.184   4.357  11.944  0.00  0.00    +0.000 A 
ATOM     20  C   UNL     1       7.686   5.088  13.046  0.00  0.00    +0.000 A 
ATOM     21  C   UNL     1       6.979   4.674  14.160  0.00  0.00    +0.000 A 
ATOM     22  O   UNL     1       6.059   3.723  13.784  0.00  0.00    +0.000 OA
BRANCH  18  24
ATOM     23  C   UNL     1       4.055   3.211  11.213  0.00  0.00    +0.000 C 
ATOM     24  C   UNL     1       5.289   2.548  11.804  0.00  0.00    +0.000 C 
ENDBRANCH  18  24
ENDBRANCH  14  21
ENDBRANCH   1  16
TORSDOF 6
ENDMDL
MODEL 4
REMARK VINA RESULT:      -8.0      1.203      1.323
REMARK  Name = 
REMARK  8 active torsions:
REMARK  status: ('A' for Active; 'I' for Inactive)
REMARK    1  A    between atoms: C_1  and  C_2
REMARK    2  A    between atoms: C_2  and  C_3
REMARK    3  A    between atoms: C_6  and  C_7
REMARK    4  A    between atoms: N_9  and  C_10
REMARK    5  A    between atoms: C_10  and  C_11
REMARK    6  A    between atoms: C_15  and  S_16
REMARK    7  A    between atoms: S_16  and  N_19
REMARK    8  A    between atoms: N_19  and  C_20
REMARK                            x       y       z     vdW  Elec       q    Type
REMARK                         _______ _______ _______ _____ _____    ______ ____
ROOT
ATOM      1  C   UNL     1       5.941   6.578  17.045  0.00  0.00    +0.000 C 
ENDROOT
BRANCH   1   2
ATOM      2  C   UNL     1       4.606   6.209  17.646  0.00  0.00    +0.000 A 
ATOM      3  C   UNL     1       3.621   7.194  17.823  0.00  0.00    +0.000 A 
ATOM      4  C   UNL     1       2.380   6.878  18.384  0.00  0.00    +0.000 A 
ATOM      5  C   UNL     1       2.107   5.572  18.788  0.00  0.00    +0.000 A 
ATOM      6  C   UNL     1       3.086   4.588  18.629  0.00  0.00    +0.000 A 
ATOM      7  C   UNL     1       4.328   4.895  18.057  0.00  0.00    +0.000 A 
BRANCH   6   8
ATOM      8  S   UNL     1       2.706   2.920  19.107  0.00  0.00    +0.000 S 
ATOM      9  O   UNL     1       2.242   2.955  20.474  0.00  0.00    +0.000 OA
ATOM     10  O   UNL     1       1.929   2.301  18.055  0.00  0.00    +0.000 OA
BRANCH   8  11
ATOM     11  N   UNL     1       4.213   2.172  19.142  0.00  0.00    +0.000 NA
ATOM     12  C   UNL     1       4.779   1.837  20.445  0.00  0.00    +0.000 C 
ATOM     13  H   UNL     1       4.843   2.582  18.451  0.00  0.00    +0.000 HD
ENDBRANCH   8  11
ENDBRANCH   6   8
ENDBRANCH   1   2
BRANCH   1  16
ATOM     14  C   UNL     1       6.978   5.025  15.410  0.00  0.00    +0.000 C 
ATOM     15  O   UNL     1       7.722   4.522  16.248  0.00  0.00    +0.000 OA
ATOM     16  N   UNL     1       6.089   6.029  15.717  0.00  0.00    +0.000 N 
ATOM     17  H   UNL     1       5.531   6.404  14.959  0.00  0.00    +0.000 HD
BRANCH  14  21
ATOM     18  C   UNL     1       6.280   3.474  12.258  0.00  0.00    +0.000 A 
ATOM     19  C   UNL     1       7.293   4.297  11.817  0.00  0.00    +0.000 A 
ATOM     20  C   UNL     1       7.728   5.032  12.944  0.00  0.00    +0.000 A 
ATOM     21  C   UNL     1       6.962   4.617  14.017  0.00  0.00    +0.000 A 
ATOM     22  O   UNL     1       6.069   3.660  13.593  0.00  0.00    +0.000 OA
BRANCH  18  24
ATOM     23  C   UNL     1       4.085   3.080  11.157  0.00  0.00    +0.000 C 
ATOM     24  C   UNL     1       5.417   2.478  11.574  0.00  0.00    +0.000 C 
ENDBRANCH  18  24
ENDBRANCH  14  21
ENDBRANCH   1  16
TORSDOF 6
ENDMDL
MODEL 5
REMARK VINA RESULT:      -8.0      1.306      1.601
REMARK  Name = 
REMARK  8 active torsions:
REMARK  status: ('A' for Active; 'I' for Inactive)
REMARK    1  A    between atoms: C_1  and  C_2
REMARK    2  A    between atoms: C_2  and  C_3
REMARK    3  A    between atoms: C_6  and  C_7
REMARK    4  A    between atoms: N_9  and  C_10
REMARK    5  A    between atoms: C_10  and  C_11
REMARK    6  A    between atoms: C_15  and  S_16
REMARK    7  A    between atoms: S_16  and  N_19
REMARK    8  A    between atoms: N_19  and  C_20
REMARK                            x       y       z     vdW  Elec       q    Type
REMARK                         _______ _______ _______ _____ _____    ______ ____
ROOT
ATOM      1  C   UNL     1       6.084   4.367  17.626  0.00  0.00    +0.000 C 
ENDROOT
BRANCH   1   2
ATOM      2  C   UNL     1       4.645   4.651  17.988  0.00  0.00    +0.000 A 
ATOM      3  C   UNL     1       4.160   5.969  17.950  0.00  0.00    +0.000 A 
ATOM      4  C   UNL     1       2.834   6.257  18.288  0.00  0.00    +0.000 A 
ATOM      5  C   UNL     1       1.974   5.234  18.681  0.00  0.00    +0.000 A 
ATOM      6  C   UNL     1       2.451   3.921  18.735  0.00  0.00    +0.000 A 
ATOM      7  C   UNL     1       3.776   3.623  18.387  0.00  0.00    +0.000 A 
BRANCH   6   8
ATOM      8  S   UNL     1       1.330   2.623  19.194  0.00  0.00    +0.000 S 
ATOM      9  O   UNL     1       0.175   2.721  18.332  0.00  0.00    +0.000 OA
ATOM     10  O   UNL     1       2.076   1.391  19.329  0.00  0.00    +0.000 OA
BRANCH   8  11
ATOM     11  N   UNL     1       0.811   3.080  20.729  0.00  0.00    +0.000 NA
ATOM     12  C   UNL     1       1.629   2.685  21.872  0.00  0.00    +0.000 C 
ATOM     13  H   UNL     1      -0.200   2.977  20.820  0.00  0.00    +0.000 HD
ENDBRANCH   8  11
ENDBRANCH   6   8
ENDBRANCH   1   2
BRANCH   1  16
ATOM     14  C   UNL     1       6.883   5.008  15.365  0.00  0.00    +0.000 C 
ATOM     15  O   UNL     1       7.386   6.057  15.759  0.00  0.00    +0.000 OA
ATOM     16  N   UNL     1       6.232   4.137  16.207  0.00  0.00    +0.000 N 
ATOM     17  H   UNL     1       5.824   3.307  15.793  0.00  0.00    +0.000 HD
BRANCH  14  21
ATOM     18  C   UNL     1       6.360   3.367  12.225  0.00  0.00    +0.000 A 
ATOM     19  C   UNL     1       7.311   4.262  11.787  0.00  0.00    +0.000 A 
ATOM     20  C   UNL     1       7.669   5.043  12.910  0.00  0.00    +0.000 A 
ATOM     21  C   UNL     1       6.921   4.582  13.978  0.00  0.00    +0.000 A 
ATOM     22  O   UNL     1       6.114   3.553  13.554  0.00  0.00    +0.000 OA
BRANCH  18  24
ATOM     23  C   UNL     1       6.495   1.187  11.034  0.00  0.00    +0.000 C 
ATOM     24  C   UNL     1       5.589   2.297  11.542  0.00  0.00    +0.000 C 
ENDBRANCH  18  24
ENDBRANCH  14  21
ENDBRANCH   1  16
TORSDOF 6
ENDMDL
MODEL 6
REMARK VINA RESULT:      -7.9      1.271      1.640
REMARK  Name = 
REMARK  8 active torsions:
REMARK  status: ('A' for Active; 'I' for Inactive)
REMARK    1  A    between atoms: C_1  and  C_2
REMARK    2  A    between atoms: C_2  and  C_3
REMARK    3  A    between atoms: C_6  and  C_7
REMARK    4  A    between atoms: N_9  and  C_10
REMARK    5  A    between atoms: C_10  and  C_11
REMARK    6  A    between atoms: C_15  and  S_16
REMARK    7  A    between atoms: S_16  and  N_19
REMARK    8  A    between atoms: N_19  and  C_20
REMARK                            x       y       z     vdW  Elec       q    Type
REMARK                         _______ _______ _______ _____ _____    ______ ____
ROOT
ATOM      1  C   UNL     1       5.595   5.719  16.181  0.00  0.00    +0.000 C 
ENDROOT
BRANCH   1   2
ATOM      2  C   UNL     1       4.440   5.575  17.143  0.00  0.00    +0.000 A 
ATOM      3  C   UNL     1       3.799   6.719  17.646  0.00  0.00    +0.000 A 
ATOM      4  C   UNL     1       2.733   6.611  18.544  0.00  0.00    +0.000 A 
ATOM      5  C   UNL     1       2.297   5.356  18.964  0.00  0.00    +0.000 A 
ATOM      6  C   UNL     1       2.936   4.211  18.480  0.00  0.00    +0.000 A 
ATOM      7  C   UNL     1       3.999   4.312  17.571  0.00  0.00    +0.000 A 
BRANCH   6   8
ATOM      8  S   UNL     1       2.338   2.618  18.989  0.00  0.00    +0.000 S 
ATOM      9  O   UNL     1       0.906   2.614  18.810  0.00  0.00    +0.000 OA
ATOM     10  O   UNL     1       3.181   1.597  18.404  0.00  0.00    +0.000 OA
BRANCH   8  11
ATOM     11  N   UNL     1       2.604   2.615  20.651  0.00  0.00    +0.000 NA
ATOM     12  C   UNL     1       1.443   2.735  21.528  0.00  0.00    +0.000 C 
ATOM     13  H   UNL     1       3.430   3.165  20.892  0.00  0.00    +0.000 HD
ENDBRANCH   8  11
ENDBRANCH   6   8
ENDBRANCH   1   2
BRANCH   1  16
ATOM     14  C   UNL     1       6.395   4.657  14.085  0.00  0.00    +0.000 C 
ATOM     15  O   UNL     1       7.527   5.120  14.196  0.00  0.00    +0.000 OA
ATOM     16  N   UNL     1       5.401   4.904  15.004  0.00  0.00    +0.000 N 
ATOM     17  H   UNL     1       4.489   4.503  14.821  0.00  0.00    +0.000 HD
BRANCH  14  21
ATOM     18  C   UNL     1       4.613   3.000  11.457  0.00  0.00    +0.000 A 
ATOM     19  C   UNL     1       5.803   2.323  11.303  0.00  0.00    +0.000 A 
ATOM     20  C   UNL     1       6.686   2.844  12.277  0.00  0.00    +0.000 A 
ATOM     21  C   UNL     1       5.989   3.809  12.979  0.00  0.00    +0.000 A 
ATOM     22  O   UNL     1       4.715   3.906  12.472  0.00  0.00    +0.000 OA
BRANCH  18  24
ATOM     23  C   UNL     1       3.121   4.102   9.800  0.00  0.00    +0.000 C 
ATOM     24  C   UNL     1       3.310   2.929  10.748  0.00  0.00    +0.000 C 
ENDBRANCH  18  24
ENDBRANCH  14  21
ENDBRANCH   1  16
TORSDOF 6
ENDMDL
MODEL 7
REMARK VINA RESULT:      -7.5      1.365      1.799
REMARK  Name = 
REMARK  8 active torsions:
REMARK  status: ('A' for Active; 'I' for Inactive)
REMARK    1  A    between atoms: C_1  and  C_2
REMARK    2  A    between atoms: C_2  and  C_3
REMARK    3  A    between atoms: C_6  and  C_7
REMARK    4  A    between atoms: N_9  and  C_10
REMARK    5  A    between atoms: C_10  and  C_11
REMARK    6  A    between atoms: C_15  and  S_16
REMARK    7  A    between atoms: S_16  and  N_19
REMARK    8  A    between atoms: N_19  and  C_20
REMARK                            x       y       z     vdW  Elec       q    Type
REMARK                         _______ _______ _______ _____ _____    ______ ____
ROOT
ATOM      1  C   UNL     1       5.741   6.525  16.904  0.00  0.00    +0.000 C 
ENDROOT
BRANCH   1   2
ATOM      2  C   UNL     1       5.135   5.527  17.863  0.00  0.00    +0.000 A 
ATOM      3  C   UNL     1       5.874   5.081  18.970  0.00  0.00    +0.000 A 
ATOM      4  C   UNL     1       5.337   4.152  19.867  0.00  0.00    +0.000 A 
ATOM      5  C   UNL     1       4.055   3.645  19.665  0.00  0.00    +0.000 A 
ATOM      6  C   UNL     1       3.316   4.073  18.559  0.00  0.00    +0.000 A 
ATOM      7  C   UNL     1       3.843   5.013  17.661  0.00  0.00    +0.000 A 
BRANCH   6   8
ATOM      8  S   UNL     1       1.666   3.453  18.341  0.00  0.00    +0.000 S 
ATOM      9  O   UNL     1       1.032   4.253  17.320  0.00  0.00    +0.000 OA
ATOM     10  O   UNL     1       1.721   2.009  18.252  0.00  0.00    +0.000 OA
BRANCH   8  11
ATOM     11  N   UNL     1       0.906   3.850  19.790  0.00  0.00    +0.000 NA
ATOM     12  C   UNL     1       1.097   2.956  20.928  0.00  0.00    +0.000 C 
ATOM     13  H   UNL     1      -0.038   4.201  19.625  0.00  0.00    +0.000 HD
ENDBRANCH   8  11
ENDBRANCH   6   8
ENDBRANCH   1   2
BRANCH   1  16
ATOM     14  C   UNL     1       6.924   5.080  15.269  0.00  0.00    +0.000 C 
ATOM     15  O   UNL     1       7.771   4.725  16.084  0.00  0.00    +0.000 OA
ATOM     16  N   UNL     1       5.909   5.952  15.589  0.00  0.00    +0.000 N 
ATOM     17  H   UNL     1       5.268   6.211  14.848  0.00  0.00    +0.000 HD
BRANCH  14  21
ATOM     18  C   UNL     1       6.188   3.453  12.164  0.00  0.00    +0.000 A 
ATOM     19  C   UNL     1       7.255   4.198  11.713  0.00  0.00    +0.000 A 
ATOM     20  C   UNL     1       7.714   4.948  12.820  0.00  0.00    +0.000 A 
ATOM     21  C   UNL     1       6.906   4.621  13.893  0.00  0.00    +0.000 A 
ATOM     22  O   UNL     1       5.966   3.702  13.487  0.00  0.00    +0.000 OA
BRANCH  18  24
ATOM     23  C   UNL     1       3.965   3.133  11.095  0.00  0.00    +0.000 C 
ATOM     24  C   UNL     1       5.278   2.484  11.502  0.00  0.00    +0.000 C 
ENDBRANCH  18  24
ENDBRANCH  14  21
ENDBRANCH   1  16
TORSDOF 6
ENDMDL
MODEL 8
REMARK VINA RESULT:      -7.4      2.097      2.611
REMARK  Name = 
REMARK  8 active torsions:
REMARK  status: ('A' for Active; 'I' for Inactive)
REMARK    1  A    between atoms: C_1  and  C_2
REMARK    2  A    between atoms: C_2  and  C_3
REMARK    3  A    between atoms: C_6  and  C_7
REMARK    4  A    between atoms: N_9  and  C_10
REMARK    5  A    between atoms: C_10  and  C_11
REMARK    6  A    between atoms: C_15  and  S_16
REMARK    7  A    between atoms: S_16  and  N_19
REMARK    8  A    between atoms: N_19  and  C_20
REMARK                            x       y       z     vdW  Elec       q    Type
REMARK                         _______ _______ _______ _____ _____    ______ ____
ROOT
ATOM      1  C   UNL     1       6.432   5.356  16.030  0.00  0.00    +0.000 C 
ENDROOT
BRANCH   1   2
ATOM      2  C   UNL     1       5.568   5.123  17.247  0.00  0.00    +0.000 A 
ATOM      3  C   UNL     1       6.012   5.542  18.512  0.00  0.00    +0.000 A 
ATOM      4  C   UNL     1       5.234   5.330  19.654  0.00  0.00    +0.000 A 
ATOM      5  C   UNL     1       4.003   4.685  19.552  0.00  0.00    +0.000 A 
ATOM      6  C   UNL     1       3.558   4.252  18.300  0.00  0.00    +0.000 A 
ATOM      7  C   UNL     1       4.328   4.471  17.149  0.00  0.00    +0.000 A 
BRANCH   6   8
ATOM      8  S   UNL     1       1.967   3.473  18.181  0.00  0.00    +0.000 S 
ATOM      9  O   UNL     1       1.364   3.513  19.492  0.00  0.00    +0.000 OA
ATOM     10  O   UNL     1       1.284   3.988  17.014  0.00  0.00    +0.000 OA
BRANCH   8  11
ATOM     11  N   UNL     1       2.344   1.859  17.886  0.00  0.00    +0.000 NA
ATOM     12  C   UNL     1       3.570   1.327  18.474  0.00  0.00    +0.000 C 
ATOM     13  H   UNL     1       2.142   1.606  16.919  0.00  0.00    +0.000 HD
ENDBRANCH   8  11
ENDBRANCH   6   8
ENDBRANCH   1   2
BRANCH   1  16
ATOM     14  C   UNL     1       6.607   4.567  13.683  0.00  0.00    +0.000 C 
ATOM     15  O   UNL     1       7.590   5.264  13.445  0.00  0.00    +0.000 OA
ATOM     16  N   UNL     1       5.986   4.558  14.911  0.00  0.00    +0.000 N 
ATOM     17  H   UNL     1       5.166   3.973  15.013  0.00  0.00    +0.000 HD
BRANCH  14  21
ATOM     18  C   UNL     1       4.422   2.973  11.335  0.00  0.00    +0.000 A 
ATOM     19  C   UNL     1       5.468   2.085  11.218  0.00  0.00    +0.000 A 
ATOM     20  C   UNL     1       6.481   2.544  12.091  0.00  0.00    +0.000 A 
ATOM     21  C   UNL     1       6.001   3.688  12.700  0.00  0.00    +0.000 A 
ATOM     22  O   UNL     1       4.735   3.953  12.232  0.00  0.00    +0.000 OA
BRANCH  18  24
ATOM     23  C   UNL     1       3.051   4.131   9.611  0.00  0.00    +0.000 C 
ATOM     24  C   UNL     1       3.089   3.057  10.687  0.00  0.00    +0.000 C 
ENDBRANCH  18  24
ENDBRANCH  14  21
ENDBRANCH   1  16
TORSDOF 6
ENDMDL
MODEL 9
REMARK VINA RESULT:      -7.3      1.527      2.084
REMARK  Name = 
REMARK  8 active torsions:
REMARK  status: ('A' for Active; 'I' for Inactive)
REMARK    1  A    between atoms: C_1  and  C_2
REMARK    2  A    between atoms: C_2  and  C_3
REMARK    3  A    between atoms: C_6  and  C_7
REMARK    4  A    between atoms: N_9  and  C_10
REMARK    5  A    between atoms: C_10  and  C_11
REMARK    6  A    between atoms: C_15  and  S_16
REMARK    7  A    between atoms: S_16  and  N_19
REMARK    8  A    between atoms: N_19  and  C_20
REMARK                            x       y       z     vdW  Elec       q    Type
REMARK                         _______ _______ _______ _____ _____    ______ ____
ROOT
ATOM      1  C   UNL     1       6.423   4.450  16.527  0.00  0.00    +0.000 C 
ENDROOT
BRANCH   1   2
ATOM      2  C   UNL     1       5.209   4.930  17.286  0.00  0.00    +0.000 A 
ATOM      3  C   UNL     1       4.908   6.301  17.332  0.00  0.00    +0.000 A 
ATOM      4  C   UNL     1       3.793   6.769  18.034  0.00  0.00    +0.000 A 
ATOM      5  C   UNL     1       2.967   5.875  18.712  0.00  0.00    +0.000 A 
ATOM      6  C   UNL     1       3.265   4.510  18.684  0.00  0.00    +0.000 A 
ATOM      7  C   UNL     1       4.375   4.032  17.973  0.00  0.00    +0.000 A 
BRANCH   6   8
ATOM      8  S   UNL     1       2.176   3.380  19.514  0.00  0.00    +0.000 S 
ATOM      9  O   UNL     1       1.055   4.142  20.010  0.00  0.00    +0.000 OA
ATOM     10  O   UNL     1       1.993   2.213  18.679  0.00  0.00    +0.000 OA
BRANCH   8  11
ATOM     11  N   UNL     1       3.061   2.910  20.867  0.00  0.00    +0.000 NA
ATOM     12  C   UNL     1       4.247   2.085  20.654  0.00  0.00    +0.000 C 
ATOM     13  H   UNL     1       2.444   2.650  21.637  0.00  0.00    +0.000 HD
ENDBRANCH   8  11
ENDBRANCH   6   8
ENDBRANCH   1   2
BRANCH   1  16
ATOM     14  C   UNL     1       6.480   4.347  14.048  0.00  0.00    +0.000 C 
ATOM     15  O   UNL     1       7.211   5.330  13.950  0.00  0.00    +0.000 OA
ATOM     16  N   UNL     1       6.052   3.861  15.262  0.00  0.00    +0.000 N 
ATOM     17  H   UNL     1       5.430   3.061  15.249  0.00  0.00    +0.000 HD
BRANCH  14  21
ATOM     18  C   UNL     1       4.532   2.994  11.364  0.00  0.00    +0.000 A 
ATOM     19  C   UNL     1       5.667   2.248  11.138  0.00  0.00    +0.000 A 
ATOM     20  C   UNL     1       6.604   2.640  12.121  0.00  0.00    +0.000 A 
ATOM     21  C   UNL     1       5.993   3.604  12.900  0.00  0.00    +0.000 A 
ATOM     22  O   UNL     1       4.719   3.823  12.432  0.00  0.00    +0.000 OA
BRANCH  18  24
ATOM     23  C   UNL     1       3.153   4.206   9.685  0.00  0.00    +0.000 C 
ATOM     24  C   UNL     1       3.213   3.062  10.684  0.00  0.00    +0.000 C 
ENDBRANCH  18  24
ENDBRANCH  14  21
ENDBRANCH   1  16
TORSDOF 6
ENDMDL
