MODEL 1
REMARK VINA RESULT:      -4.8      0.000      0.000
REMARK  Name = 
REMARK  6 active torsions:
REMARK  status: ('A' for Active; 'I' for Inactive)
REMARK    1  A    between atoms: C_2  and  O_3
REMARK    2  A    between atoms: C_2  and  C_4
REMARK    3  A    between atoms: N_8  and  C_9
REMARK    4  A    between atoms: C_9  and  C_10
REMARK    5  A    between atoms: C_10  and  C_11
REMARK    6  A    between atoms: C_11  and  S_12
REMARK                            x       y       z     vdW  Elec       q    Type
REMARK                         _______ _______ _______ _____ _____    ______ ____
ROOT
ATOM      1  C   UNL     1       3.074   3.260  20.030  0.00  0.00    +0.000 C 
ATOM      2  C   UNL     1       1.568   3.110  20.011  0.00  0.00    +0.000 C 
ATOM      3  C   UNL     1       1.113   4.461  20.527  0.00  0.00    +0.000 C 
ATOM      4  C   UNL     1       2.223   5.433  20.131  0.00  0.00    +0.000 C 
ATOM      5  N   UNL     1       3.339   4.652  19.535  0.00  0.00    +0.000 NA
ENDROOT
BRANCH   1   7
ATOM      6  O   UNL     1       3.394   1.428  18.442  0.00  0.00    +0.000 OA
ATOM      7  C   UNL     1       3.852   2.171  19.296  0.00  0.00    +0.000 C 
BRANCH   7   8
ATOM      8  O   UNL     1       5.134   2.085  19.736  0.00  0.00    +0.000 OA
ATOM      9  H   UNL     1       5.554   1.276  19.374  0.00  0.00    +0.000 HD
ENDBRANCH   7   8
ENDBRANCH   1   7
BRANCH   5  10
ATOM     10  C   UNL     1       3.321   4.761  18.056  0.00  0.00    +0.000 C 
BRANCH  10  11
ATOM     11  C   UNL     1       4.655   5.216  17.430  0.00  0.00    +0.000 C 
BRANCH  11  12
ATOM     12  C   UNL     1       5.788   5.324  18.445  0.00  0.00    +0.000 C 
BRANCH  12  13
ATOM     13  S   UNL     1       7.367   4.816  17.696  0.00  0.00    +0.000 S 
ATOM     14  H   UNL     1       6.896   4.587  16.462  0.00  0.00    +0.000 HD
ENDBRANCH  12  13
ENDBRANCH  11  12
ENDBRANCH  10  11
ENDBRANCH   5  10
TORSDOF 6
ENDMDL
MODEL 2
REMARK VINA RESULT:      -4.8      1.264      1.785
REMARK  Name = 
REMARK  6 active torsions:
REMARK  status: ('A' for Active; 'I' for Inactive)
REMARK    1  A    between atoms: C_2  and  O_3
REMARK    2  A    between atoms: C_2  and  C_4
REMARK    3  A    between atoms: N_8  and  C_9
REMARK    4  A    between atoms: C_9  and  C_10
REMARK    5  A    between atoms: C_10  and  C_11
REMARK    6  A    between atoms: C_11  and  S_12
REMARK                            x       y       z     vdW  Elec       q    Type
REMARK                         _______ _______ _______ _____ _____    ______ ____
ROOT
ATOM      1  C   UNL     1       3.062   3.132  19.146  0.00  0.00    +0.000 C 
ATOM      2  C   UNL     1       2.306   2.995  17.842  0.00  0.00    +0.000 C 
ATOM      3  C   UNL     1       1.631   4.349  17.729  0.00  0.00    +0.000 C 
ATOM      4  C   UNL     1       2.541   5.313  18.488  0.00  0.00    +0.000 C 
ATOM      5  N   UNL     1       3.624   4.524  19.133  0.00  0.00    +0.000 NA
ENDROOT
BRANCH   1   7
ATOM      6  O   UNL     1       4.821   1.991  20.403  0.00  0.00    +0.000 OA
ATOM      7  C   UNL     1       4.090   2.040  19.426  0.00  0.00    +0.000 C 
BRANCH   7   8
ATOM      8  O   UNL     1       4.137   1.123  18.425  0.00  0.00    +0.000 OA
ATOM      9  H   UNL     1       4.276   1.578  17.567  0.00  0.00    +0.000 HD
ENDBRANCH   7   8
ENDBRANCH   1   7
BRANCH   5  10
ATOM     10  C   UNL     1       4.885   4.640  18.360  0.00  0.00    +0.000 C 
BRANCH  10  11
ATOM     11  C   UNL     1       6.066   5.244  19.146  0.00  0.00    +0.000 C 
BRANCH  11  12
ATOM     12  C   UNL     1       7.327   5.408  18.304  0.00  0.00    +0.000 C 
BRANCH  12  13
ATOM     13  S   UNL     1       7.085   4.694  16.647  0.00  0.00    +0.000 S 
ATOM     14  H   UNL     1       8.145   5.271  16.064  0.00  0.00    +0.000 HD
ENDBRANCH  12  13
ENDBRANCH  11  12
ENDBRANCH  10  11
ENDBRANCH   5  10
TORSDOF 6
ENDMDL
MODEL 3
REMARK VINA RESULT:      -4.7      1.770      2.154
REMARK  Name = 
REMARK  6 active torsions:
REMARK  status: ('A' for Active; 'I' for Inactive)
REMARK    1  A    between atoms: C_2  and  O_3
REMARK    2  A    between atoms: C_2  and  C_4
REMARK    3  A    between atoms: N_8  and  C_9
REMARK    4  A    between atoms: C_9  and  C_10
REMARK    5  A    between atoms: C_10  and  C_11
REMARK    6  A    between atoms: C_11  and  S_12
REMARK                            x       y       z     vdW  Elec       q    Type
REMARK                         _______ _______ _______ _____ _____    ______ ____
ROOT
ATOM      1  C   UNL     1       3.237   3.041  19.104  0.00  0.00    +0.000 C 
ATOM      2  C   UNL     1       2.274   2.739  17.978  0.00  0.00    +0.000 C 
ATOM      3  C   UNL     1       1.693   4.110  17.687  0.00  0.00    +0.000 C 
ATOM      4  C   UNL     1       2.783   5.099  18.095  0.00  0.00    +0.000 C 
ATOM      5  N   UNL     1       3.893   4.338  18.726  0.00  0.00    +0.000 NA
ENDROOT
BRANCH   1   7
ATOM      6  O   UNL     1       4.982   1.923  20.402  0.00  0.00    +0.000 OA
ATOM      7  C   UNL     1       4.212   1.921  19.453  0.00  0.00    +0.000 C 
BRANCH   7   8
ATOM      8  O   UNL     1       4.163   0.910  18.548  0.00  0.00    +0.000 OA
ATOM      9  H   UNL     1       3.234   0.764  18.266  0.00  0.00    +0.000 HD
ENDBRANCH   7   8
ENDBRANCH   1   7
BRANCH   5  10
ATOM     10  C   UNL     1       5.018   4.171  17.774  0.00  0.00    +0.000 C 
BRANCH  10  11
ATOM     11  C   UNL     1       4.980   5.123  16.561  0.00  0.00    +0.000 C 
BRANCH  11  12
ATOM     12  C   UNL     1       6.285   5.144  15.774  0.00  0.00    +0.000 C 
BRANCH  12  13
ATOM     13  S   UNL     1       6.143   4.120  14.276  0.00  0.00    +0.000 S 
ATOM     14  H   UNL     1       5.390   4.973  13.566  0.00  0.00    +0.000 HD
ENDBRANCH  12  13
ENDBRANCH  11  12
ENDBRANCH  10  11
ENDBRANCH   5  10
TORSDOF 6
ENDMDL
MODEL 4
REMARK VINA RESULT:      -4.7      0.921      1.021
REMARK  Name = 
REMARK  6 active torsions:
REMARK  status: ('A' for Active; 'I' for Inactive)
REMARK    1  A    between atoms: C_2  and  O_3
REMARK    2  A    between atoms: C_2  and  C_4
REMARK    3  A    between atoms: N_8  and  C_9
REMARK    4  A    between atoms: C_9  and  C_10
REMARK    5  A    between atoms: C_10  and  C_11
REMARK    6  A    between atoms: C_11  and  S_12
REMARK                            x       y       z     vdW  Elec       q    Type
REMARK                         _______ _______ _______ _____ _____    ______ ____
ROOT
ATOM      1  C   UNL     1       2.975   3.068  20.047  0.00  0.00    +0.000 C 
ATOM      2  C   UNL     1       1.494   2.845  19.826  0.00  0.00    +0.000 C 
ATOM      3  C   UNL     1       0.895   4.083  20.466  0.00  0.00    +0.000 C 
ATOM      4  C   UNL     1       1.973   5.157  20.345  0.00  0.00    +0.000 C 
ATOM      5  N   UNL     1       3.199   4.529  19.785  0.00  0.00    +0.000 NA
ENDROOT
BRANCH   1   7
ATOM      6  O   UNL     1       3.564   1.416  18.343  0.00  0.00    +0.000 OA
ATOM      7  C   UNL     1       3.902   2.138  19.267  0.00  0.00    +0.000 C 
BRANCH   7   8
ATOM      8  O   UNL     1       5.170   2.170  19.753  0.00  0.00    +0.000 OA
ATOM      9  H   UNL     1       5.688   1.429  19.372  0.00  0.00    +0.000 HD
ENDBRANCH   7   8
ENDBRANCH   1   7
BRANCH   5  10
ATOM     10  C   UNL     1       3.338   4.852  18.344  0.00  0.00    +0.000 C 
BRANCH  10  11
ATOM     11  C   UNL     1       4.483   5.831  18.013  0.00  0.00    +0.000 C 
BRANCH  11  12
ATOM     12  C   UNL     1       4.931   5.761  16.557  0.00  0.00    +0.000 C 
BRANCH  12  13
ATOM     13  S   UNL     1       5.486   4.078  16.140  0.00  0.00    +0.000 S 
ATOM     14  H   UNL     1       5.943   4.357  14.911  0.00  0.00    +0.000 HD
ENDBRANCH  12  13
ENDBRANCH  11  12
ENDBRANCH  10  11
ENDBRANCH   5  10
TORSDOF 6
ENDMDL
MODEL 5
REMARK VINA RESULT:      -4.7      1.548      1.915
REMARK  Name = 
REMARK  6 active torsions:
REMARK  status: ('A' for Active; 'I' for Inactive)
REMARK    1  A    between atoms: C_2  and  O_3
REMARK    2  A    between atoms: C_2  and  C_4
REMARK    3  A    between atoms: N_8  and  C_9
REMARK    4  A    between atoms: C_9  and  C_10
REMARK    5  A    between atoms: C_10  and  C_11
REMARK    6  A    between atoms: C_11  and  S_12
REMARK                            x       y       z     vdW  Elec       q    Type
REMARK                         _______ _______ _______ _____ _____    ______ ____
ROOT
ATOM      1  C   UNL     1       3.206   3.255  19.052  0.00  0.00    +0.000 C 
ATOM      2  C   UNL     1       2.113   2.945  18.053  0.00  0.00    +0.000 C 
ATOM      3  C   UNL     1       1.600   4.330  17.710  0.00  0.00    +0.000 C 
ATOM      4  C   UNL     1       2.792   5.261  17.928  0.00  0.00    +0.000 C 
ATOM      5  N   UNL     1       3.906   4.467  18.507  0.00  0.00    +0.000 NA
ENDROOT
BRANCH   1   7
ATOM      6  O   UNL     1       4.938   2.076  20.312  0.00  0.00    +0.000 OA
ATOM      7  C   UNL     1       4.134   2.092  19.394  0.00  0.00    +0.000 C 
BRANCH   7   8
ATOM      8  O   UNL     1       3.996   1.064  18.517  0.00  0.00    +0.000 OA
ATOM      9  H   UNL     1       4.877   0.686  18.309  0.00  0.00    +0.000 HD
ENDBRANCH   7   8
ENDBRANCH   1   7
BRANCH   5  10
ATOM     10  C   UNL     1       4.913   4.144  17.467  0.00  0.00    +0.000 C 
BRANCH  10  11
ATOM     11  C   UNL     1       5.144   5.262  16.429  0.00  0.00    +0.000 C 
BRANCH  11  12
ATOM     12  C   UNL     1       6.618   5.598  16.227  0.00  0.00    +0.000 C 
BRANCH  12  13
ATOM     13  S   UNL     1       7.202   6.719  17.537  0.00  0.00    +0.000 S 
ATOM     14  H   UNL     1       6.130   6.611  18.334  0.00  0.00    +0.000 HD
ENDBRANCH  12  13
ENDBRANCH  11  12
ENDBRANCH  10  11
ENDBRANCH   5  10
TORSDOF 6
ENDMDL
MODEL 6
REMARK VINA RESULT:      -4.6      1.886      2.141
REMARK  Name = 
REMARK  6 active torsions:
REMARK  status: ('A' for Active; 'I' for Inactive)
REMARK    1  A    between atoms: C_2  and  O_3
REMARK    2  A    between atoms: C_2  and  C_4
REMARK    3  A    between atoms: N_8  and  C_9
REMARK    4  A    between atoms: C_9  and  C_10
REMARK    5  A    between atoms: C_10  and  C_11
REMARK    6  A    between atoms: C_11  and  S_12
REMARK                            x       y       z     vdW  Elec       q    Type
REMARK                         _______ _______ _______ _____ _____    ______ ____
ROOT
ATOM      1  C   UNL     1       3.407   3.564  18.969  0.00  0.00    +0.000 C 
ATOM      2  C   UNL     1       2.162   3.671  18.117  0.00  0.00    +0.000 C 
ATOM      3  C   UNL     1       2.012   5.173  17.970  0.00  0.00    +0.000 C 
ATOM      4  C   UNL     1       3.430   5.728  18.091  0.00  0.00    +0.000 C 
ATOM      5  N   UNL     1       4.344   4.608  18.434  0.00  0.00    +0.000 NA
ENDROOT
BRANCH   1   7
ATOM      6  O   UNL     1       3.650   1.189  18.440  0.00  0.00    +0.000 OA
ATOM      7  C   UNL     1       4.014   2.167  19.074  0.00  0.00    +0.000 C 
BRANCH   7   8
ATOM      8  O   UNL     1       5.001   2.115  20.006  0.00  0.00    +0.000 OA
ATOM      9  H   UNL     1       5.663   1.439  19.749  0.00  0.00    +0.000 HD
ENDBRANCH   7   8
ENDBRANCH   1   7
BRANCH   5  10
ATOM     10  C   UNL     1       5.095   4.162  17.235  0.00  0.00    +0.000 C 
BRANCH  10  11
ATOM     11  C   UNL     1       5.266   5.241  16.146  0.00  0.00    +0.000 C 
BRANCH  11  12
ATOM     12  C   UNL     1       6.524   5.052  15.306  0.00  0.00    +0.000 C 
BRANCH  12  13
ATOM     13  S   UNL     1       6.183   3.979  13.876  0.00  0.00    +0.000 S 
ATOM     14  H   UNL     1       6.521   2.820  14.458  0.00  0.00    +0.000 HD
ENDBRANCH  12  13
ENDBRANCH  11  12
ENDBRANCH  10  11
ENDBRANCH   5  10
TORSDOF 6
ENDMDL
MODEL 7
REMARK VINA RESULT:      -4.6      0.838      1.282
REMARK  Name = 
REMARK  6 active torsions:
REMARK  status: ('A' for Active; 'I' for Inactive)
REMARK    1  A    between atoms: C_2  and  O_3
REMARK    2  A    between atoms: C_2  and  C_4
REMARK    3  A    between atoms: N_8  and  C_9
REMARK    4  A    between atoms: C_9  and  C_10
REMARK    5  A    between atoms: C_10  and  C_11
REMARK    6  A    between atoms: C_11  and  S_12
REMARK                            x       y       z     vdW  Elec       q    Type
REMARK                         _______ _______ _______ _____ _____    ______ ____
ROOT
ATOM      1  C   UNL     1       2.528   2.870  19.573  0.00  0.00    +0.000 C 
ATOM      2  C   UNL     1       1.066   3.247  19.674  0.00  0.00    +0.000 C 
ATOM      3  C   UNL     1       1.122   4.472  20.567  0.00  0.00    +0.000 C 
ATOM      4  C   UNL     1       2.500   5.083  20.322  0.00  0.00    +0.000 C 
ATOM      5  N   UNL     1       3.264   4.171  19.430  0.00  0.00    +0.000 NA
ENDROOT
BRANCH   1   7
ATOM      6  O   UNL     1       3.882   1.157  18.472  0.00  0.00    +0.000 OA
ATOM      7  C   UNL     1       2.867   1.834  18.504  0.00  0.00    +0.000 C 
BRANCH   7   8
ATOM      8  O   UNL     1       1.911   1.774  17.541  0.00  0.00    +0.000 OA
ATOM      9  H   UNL     1       1.503   2.659  17.425  0.00  0.00    +0.000 HD
ENDBRANCH   7   8
ENDBRANCH   1   7
BRANCH   5  10
ATOM     10  C   UNL     1       3.274   4.689  18.040  0.00  0.00    +0.000 C 
BRANCH  10  11
ATOM     11  C   UNL     1       4.677   4.812  17.412  0.00  0.00    +0.000 C 
BRANCH  11  12
ATOM     12  C   UNL     1       5.803   4.510  18.395  0.00  0.00    +0.000 C 
BRANCH  12  13
ATOM     13  S   UNL     1       7.424   4.731  17.597  0.00  0.00    +0.000 S 
ATOM     14  H   UNL     1       7.938   3.541  17.938  0.00  0.00    +0.000 HD
ENDBRANCH  12  13
ENDBRANCH  11  12
ENDBRANCH  10  11
ENDBRANCH   5  10
TORSDOF 6
ENDMDL
MODEL 8
REMARK VINA RESULT:      -4.6      1.522      1.727
REMARK  Name = 
REMARK  6 active torsions:
REMARK  status: ('A' for Active; 'I' for Inactive)
REMARK    1  A    between atoms: C_2  and  O_3
REMARK    2  A    between atoms: C_2  and  C_4
REMARK    3  A    between atoms: N_8  and  C_9
REMARK    4  A    between atoms: C_9  and  C_10
REMARK    5  A    between atoms: C_10  and  C_11
REMARK    6  A    between atoms: C_11  and  S_12
REMARK                            x       y       z     vdW  Elec       q    Type
REMARK                         _______ _______ _______ _____ _____    ______ ____
ROOT
ATOM      1  C   UNL     1       3.337   3.592  18.870  0.00  0.00    +0.000 C 
ATOM      2  C   UNL     1       1.988   3.602  18.184  0.00  0.00    +0.000 C 
ATOM      3  C   UNL     1       1.770   5.083  17.945  0.00  0.00    +0.000 C 
ATOM      4  C   UNL     1       3.172   5.679  17.834  0.00  0.00    +0.000 C 
ATOM      5  N   UNL     1       4.160   4.611  18.137  0.00  0.00    +0.000 NA
ENDROOT
BRANCH   1   7
ATOM      6  O   UNL     1       3.613   1.197  18.459  0.00  0.00    +0.000 OA
ATOM      7  C   UNL     1       3.998   2.223  19.000  0.00  0.00    +0.000 C 
BRANCH   7   8
ATOM      8  O   UNL     1       5.065   2.257  19.839  0.00  0.00    +0.000 OA
ATOM      9  H   UNL     1       5.830   1.808  19.419  0.00  0.00    +0.000 HD
ENDBRANCH   7   8
ENDBRANCH   1   7
BRANCH   5  10
ATOM     10  C   UNL     1       4.764   4.088  16.887  0.00  0.00    +0.000 C 
BRANCH  10  11
ATOM     11  C   UNL     1       5.332   5.171  15.947  0.00  0.00    +0.000 C 
BRANCH  11  12
ATOM     12  C   UNL     1       6.855   5.244  15.968  0.00  0.00    +0.000 C 
BRANCH  12  13
ATOM     13  S   UNL     1       7.499   4.693  17.578  0.00  0.00    +0.000 S 
ATOM     14  H   UNL     1       8.686   4.252  17.137  0.00  0.00    +0.000 HD
ENDBRANCH  12  13
ENDBRANCH  11  12
ENDBRANCH  10  11
ENDBRANCH   5  10
TORSDOF 6
ENDMDL
MODEL 9
REMARK VINA RESULT:      -4.6      1.413      1.645
REMARK  Name = 
REMARK  6 active torsions:
REMARK  status: ('A' for Active; 'I' for Inactive)
REMARK    1  A    between atoms: C_2  and  O_3
REMARK    2  A    between atoms: C_2  and  C_4
REMARK    3  A    between atoms: N_8  and  C_9
REMARK    4  A    between atoms: C_9  and  C_10
REMARK    5  A    between atoms: C_10  and  C_11
REMARK    6  A    between atoms: C_11  and  S_12
REMARK                            x       y       z     vdW  Elec       q    Type
REMARK                         _______ _______ _______ _____ _____    ______ ____
ROOT
ATOM      1  C   UNL     1       2.578   2.476  19.413  0.00  0.00    +0.000 C 
ATOM      2  C   UNL     1       1.102   2.570  19.733  0.00  0.00    +0.000 C 
ATOM      3  C   UNL     1       1.124   2.926  21.207  0.00  0.00    +0.000 C 
ATOM      4  C   UNL     1       2.442   3.668  21.418  0.00  0.00    +0.000 C 
ATOM      5  N   UNL     1       3.215   3.619  20.150  0.00  0.00    +0.000 NA
ENDROOT
BRANCH   1   7
ATOM      6  O   UNL     1       2.228   2.832  17.019  0.00  0.00    +0.000 OA
ATOM      7  C   UNL     1       2.926   2.410  17.929  0.00  0.00    +0.000 C 
BRANCH   7   8
ATOM      8  O   UNL     1       4.109   1.777  17.717  0.00  0.00    +0.000 OA
ATOM      9  H   UNL     1       3.942   0.862  17.402  0.00  0.00    +0.000 HD
ENDBRANCH   7   8
ENDBRANCH   1   7
BRANCH   5  10
ATOM     10  C   UNL     1       3.115   4.911  19.427  0.00  0.00    +0.000 C 
BRANCH  10  11
ATOM     11  C   UNL     1       4.457   5.645  19.236  0.00  0.00    +0.000 C 
BRANCH  11  12
ATOM     12  C   UNL     1       5.642   4.698  19.079  0.00  0.00    +0.000 C 
BRANCH  12  13
ATOM     13  S   UNL     1       7.178   5.636  18.804  0.00  0.00    +0.000 S 
ATOM     14  H   UNL     1       7.111   6.387  19.912  0.00  0.00    +0.000 HD
ENDBRANCH  12  13
ENDBRANCH  11  12
ENDBRANCH  10  11
ENDBRANCH   5  10
TORSDOF 6
ENDMDL
