MODEL 1
REMARK VINA RESULT:      -8.2      0.000      0.000
REMARK  Name = 
REMARK  5 active torsions:
REMARK  status: ('A' for Active; 'I' for Inactive)
REMARK    1  A    between atoms: C_1  and  O_2
REMARK    2  A    between atoms: O_2  and  C_3
REMARK    3  A    between atoms: C_7  and  C_8
REMARK    4  A    between atoms: C_13  and  C_14
REMARK    5  A    between atoms: C_17  and  C_18
REMARK                            x       y       z     vdW  Elec       q    Type
REMARK                         _______ _______ _______ _____ _____    ______ ____
ROOT
ATOM      1  C   UNL     1       4.353   6.244  17.080  0.00  0.00    +0.000 A 
ATOM      2  N   UNL     1       3.837   7.502  16.859  0.00  0.00    +0.000 N 
ATOM      3  C   UNL     1       2.967   7.886  17.831  0.00  0.00    +0.000 A 
ATOM      4  C   UNL     1       2.269   9.090  17.933  0.00  0.00    +0.000 A 
ATOM      5  C   UNL     1       1.476   9.282  19.056  0.00  0.00    +0.000 A 
ATOM      6  C   UNL     1       1.389   8.309  20.049  0.00  0.00    +0.000 A 
ATOM      7  C   UNL     1       0.603   8.619  21.291  0.00  0.00    +0.000 C 
ATOM      8  C   UNL     1       2.093   7.085  19.901  0.00  0.00    +0.000 A 
ATOM      9  C   UNL     1       2.893   6.850  18.754  0.00  0.00    +0.000 A 
ATOM     10  C   UNL     1       3.725   5.771  18.238  0.00  0.00    +0.000 A 
ATOM     11  H   UNL     1       4.090   8.091  16.082  0.00  0.00    +0.000 HD
ENDROOT
BRANCH  10  12
ATOM     12  C   UNL     1       3.905   4.477  18.824  0.00  0.00    +0.000 C 
ATOM     13  C   UNL     1       3.027   3.479  19.008  0.00  0.00    +0.000 C 
ATOM     14 BR   UNL     1       1.250   3.345  18.542  0.00  0.00    +0.000 Br
ATOM     15  C   UNL     1       3.726   2.349  19.660  0.00  0.00    +0.000 C 
ATOM     16  O   UNL     1       3.224   1.324  20.076  0.00  0.00    +0.000 OA
ATOM     17  N   UNL     1       5.025   2.689  19.738  0.00  0.00    +0.000 N 
ATOM     18  C   UNL     1       5.198   3.973  19.358  0.00  0.00    +0.000 C 
ATOM     19  O   UNL     1       6.235   4.597  19.473  0.00  0.00    +0.000 OA
ATOM     20  H   UNL     1       5.732   2.130  20.186  0.00  0.00    +0.000 HD
ENDBRANCH  10  12
BRANCH   1  25
ATOM     21  C   UNL     1       5.740   4.405  14.076  0.00  0.00    +0.000 A 
ATOM     22  C   UNL     1       7.111   4.535  14.277  0.00  0.00    +0.000 A 
ATOM     23  C   UNL     1       7.598   5.250  15.375  0.00  0.00    +0.000 A 
ATOM     24  C   UNL     1       6.716   5.829  16.296  0.00  0.00    +0.000 A 
ATOM     25  C   UNL     1       5.337   5.739  16.099  0.00  0.00    +0.000 A 
ATOM     26  C   UNL     1       4.869   5.039  14.960  0.00  0.00    +0.000 A 
BRANCH  21  28
ATOM     27  C   UNL     1       6.401   3.269  12.084  0.00  0.00    +0.000 C 
ATOM     28  O   UNL     1       5.379   3.628  13.008  0.00  0.00    +0.000 OA
ENDBRANCH  21  28
ENDBRANCH   1  25
TORSDOF 3
ENDMDL
MODEL 2
REMARK VINA RESULT:      -8.0      2.951      6.180
REMARK  Name = 
REMARK  5 active torsions:
REMARK  status: ('A' for Active; 'I' for Inactive)
REMARK    1  A    between atoms: C_1  and  O_2
REMARK    2  A    between atoms: O_2  and  C_3
REMARK    3  A    between atoms: C_7  and  C_8
REMARK    4  A    between atoms: C_13  and  C_14
REMARK    5  A    between atoms: C_17  and  C_18
REMARK                            x       y       z     vdW  Elec       q    Type
REMARK                         _______ _______ _______ _____ _____    ______ ____
ROOT
ATOM      1  C   UNL     1       6.718   5.514  16.160  0.00  0.00    +0.000 A 
ATOM      2  N   UNL     1       7.495   5.396  15.029  0.00  0.00    +0.000 N 
ATOM      3  C   UNL     1       6.866   4.718  14.032  0.00  0.00    +0.000 A 
ATOM      4  C   UNL     1       7.348   4.423  12.755  0.00  0.00    +0.000 A 
ATOM      5  C   UNL     1       6.494   3.765  11.881  0.00  0.00    +0.000 A 
ATOM      6  C   UNL     1       5.200   3.421  12.263  0.00  0.00    +0.000 A 
ATOM      7  C   UNL     1       4.288   2.809  11.238  0.00  0.00    +0.000 C 
ATOM      8  C   UNL     1       4.751   3.714  13.577  0.00  0.00    +0.000 A 
ATOM      9  C   UNL     1       5.607   4.365  14.502  0.00  0.00    +0.000 A 
ATOM     10  C   UNL     1       5.538   4.811  15.886  0.00  0.00    +0.000 A 
ATOM     11  H   UNL     1       8.417   5.790  14.930  0.00  0.00    +0.000 HD
ENDROOT
BRANCH  10  12
ATOM     12  C   UNL     1       4.450   4.610  16.795  0.00  0.00    +0.000 C 
ATOM     13  C   UNL     1       3.682   5.503  17.440  0.00  0.00    +0.000 C 
ATOM     14 BR   UNL     1       3.682   7.343  17.386  0.00  0.00    +0.000 Br
ATOM     15  C   UNL     1       2.694   4.769  18.261  0.00  0.00    +0.000 C 
ATOM     16  O   UNL     1       1.911   5.246  19.059  0.00  0.00    +0.000 OA
ATOM     17  N   UNL     1       2.849   3.462  17.981  0.00  0.00    +0.000 N 
ATOM     18  C   UNL     1       3.934   3.275  17.200  0.00  0.00    +0.000 C 
ATOM     19  O   UNL     1       4.407   2.192  16.919  0.00  0.00    +0.000 OA
ATOM     20  H   UNL     1       2.342   2.720  18.436  0.00  0.00    +0.000 HD
ENDBRANCH  10  12
BRANCH   1  25
ATOM     21  C   UNL     1       8.200   8.393  18.120  0.00  0.00    +0.000 A 
ATOM     22  C   UNL     1       8.586   7.759  19.297  0.00  0.00    +0.000 A 
ATOM     23  C   UNL     1       8.340   6.395  19.479  0.00  0.00    +0.000 A 
ATOM     24  C   UNL     1       7.718   5.645  18.473  0.00  0.00    +0.000 A 
ATOM     25  C   UNL     1       7.293   6.263  17.296  0.00  0.00    +0.000 A 
ATOM     26  C   UNL     1       7.523   7.654  17.151  0.00  0.00    +0.000 A 
BRANCH  21  28
ATOM     27  C   UNL     1       9.251  10.284  19.127  0.00  0.00    +0.000 C 
ATOM     28  O   UNL     1       8.553   9.712  18.026  0.00  0.00    +0.000 OA
ENDBRANCH  21  28
ENDBRANCH   1  25
TORSDOF 3
ENDMDL
MODEL 3
REMARK VINA RESULT:      -7.7      1.201      1.490
REMARK  Name = 
REMARK  5 active torsions:
REMARK  status: ('A' for Active; 'I' for Inactive)
REMARK    1  A    between atoms: C_1  and  O_2
REMARK    2  A    between atoms: O_2  and  C_3
REMARK    3  A    between atoms: C_7  and  C_8
REMARK    4  A    between atoms: C_13  and  C_14
REMARK    5  A    between atoms: C_17  and  C_18
REMARK                            x       y       z     vdW  Elec       q    Type
REMARK                         _______ _______ _______ _____ _____    ______ ____
ROOT
ATOM      1  C   UNL     1       4.054   5.906  17.387  0.00  0.00    +0.000 A 
ATOM      2  N   UNL     1       3.590   7.133  16.968  0.00  0.00    +0.000 N 
ATOM      3  C   UNL     1       2.814   7.744  17.902  0.00  0.00    +0.000 A 
ATOM      4  C   UNL     1       2.190   8.990  17.820  0.00  0.00    +0.000 A 
ATOM      5  C   UNL     1       1.491   9.434  18.934  0.00  0.00    +0.000 A 
ATOM      6  C   UNL     1       1.425   8.667  20.095  0.00  0.00    +0.000 A 
ATOM      7  C   UNL     1       0.748   9.249  21.303  0.00  0.00    +0.000 C 
ATOM      8  C   UNL     1       2.051   7.393  20.135  0.00  0.00    +0.000 A 
ATOM      9  C   UNL     1       2.753   6.901  19.005  0.00  0.00    +0.000 A 
ATOM     10  C   UNL     1       3.487   5.694  18.649  0.00  0.00    +0.000 A 
ATOM     11  H   UNL     1       3.817   7.553  16.080  0.00  0.00    +0.000 HD
ENDROOT
BRANCH  10  12
ATOM     12  C   UNL     1       3.641   4.520  19.454  0.00  0.00    +0.000 C 
ATOM     13  C   UNL     1       2.726   3.802  20.124  0.00  0.00    +0.000 C 
ATOM     14 BR   UNL     1       0.899   4.002  20.244  0.00  0.00    +0.000 Br
ATOM     15  C   UNL     1       3.410   2.677  20.799  0.00  0.00    +0.000 C 
ATOM     16  O   UNL     1       2.917   1.887  21.580  0.00  0.00    +0.000 OA
ATOM     17  N   UNL     1       4.697   2.714  20.409  0.00  0.00    +0.000 N 
ATOM     18  C   UNL     1       4.938   3.833  19.693  0.00  0.00    +0.000 C 
ATOM     19  O   UNL     1       6.040   4.210  19.346  0.00  0.00    +0.000 OA
ATOM     20  H   UNL     1       5.413   2.096  20.754  0.00  0.00    +0.000 HD
ENDBRANCH  10  12
BRANCH   1  25
ATOM     21  C   UNL     1       6.868   5.245  14.942  0.00  0.00    +0.000 A 
ATOM     22  C   UNL     1       6.569   3.955  14.515  0.00  0.00    +0.000 A 
ATOM     23  C   UNL     1       5.468   3.273  15.043  0.00  0.00    +0.000 A 
ATOM     24  C   UNL     1       4.641   3.886  15.992  0.00  0.00    +0.000 A 
ATOM     25  C   UNL     1       4.937   5.168  16.459  0.00  0.00    +0.000 A 
ATOM     26  C   UNL     1       6.079   5.823  15.935  0.00  0.00    +0.000 A 
BRANCH  21  28
ATOM     27  C   UNL     1       8.172   5.469  12.956  0.00  0.00    +0.000 C 
ATOM     28  O   UNL     1       7.927   5.838  14.309  0.00  0.00    +0.000 OA
ENDBRANCH  21  28
ENDBRANCH   1  25
TORSDOF 3
ENDMDL
MODEL 4
REMARK VINA RESULT:      -7.6      1.398      1.691
REMARK  Name = 
REMARK  5 active torsions:
REMARK  status: ('A' for Active; 'I' for Inactive)
REMARK    1  A    between atoms: C_1  and  O_2
REMARK    2  A    between atoms: O_2  and  C_3
REMARK    3  A    between atoms: C_7  and  C_8
REMARK    4  A    between atoms: C_13  and  C_14
REMARK    5  A    between atoms: C_17  and  C_18
REMARK                            x       y       z     vdW  Elec       q    Type
REMARK                         _______ _______ _______ _____ _____    ______ ____
ROOT
ATOM      1  C   UNL     1       4.213   6.337  17.154  0.00  0.00    +0.000 A 
ATOM      2  N   UNL     1       3.721   7.601  16.914  0.00  0.00    +0.000 N 
ATOM      3  C   UNL     1       2.836   8.006  17.863  0.00  0.00    +0.000 A 
ATOM      4  C   UNL     1       2.155   9.222  17.942  0.00  0.00    +0.000 A 
ATOM      5  C   UNL     1       1.341   9.434  19.046  0.00  0.00    +0.000 A 
ATOM      6  C   UNL     1       1.217   8.469  20.043  0.00  0.00    +0.000 A 
ATOM      7  C   UNL     1       0.409   8.800  21.265  0.00  0.00    +0.000 C 
ATOM      8  C   UNL     1       1.904   7.234  19.919  0.00  0.00    +0.000 A 
ATOM      9  C   UNL     1       2.726   6.978  18.791  0.00  0.00    +0.000 A 
ATOM     10  C   UNL     1       3.552   5.883  18.301  0.00  0.00    +0.000 A 
ATOM     11  H   UNL     1       4.001   8.181  16.139  0.00  0.00    +0.000 HD
ENDROOT
BRANCH  10  12
ATOM     12  C   UNL     1       3.698   4.589  18.900  0.00  0.00    +0.000 C 
ATOM     13  C   UNL     1       4.790   3.980  19.389  0.00  0.00    +0.000 C 
ATOM     14 BR   UNL     1       6.528   4.570  19.536  0.00  0.00    +0.000 Br
ATOM     15  C   UNL     1       4.397   2.647  19.898  0.00  0.00    +0.000 C 
ATOM     16  O   UNL     1       5.138   1.777  20.310  0.00  0.00    +0.000 OA
ATOM     17  N   UNL     1       3.059   2.566  19.785  0.00  0.00    +0.000 N 
ATOM     18  C   UNL     1       2.579   3.633  19.110  0.00  0.00    +0.000 C 
ATOM     19  O   UNL     1       1.433   3.751  18.724  0.00  0.00    +0.000 OA
ATOM     20  H   UNL     1       2.519   1.746  20.006  0.00  0.00    +0.000 HD
ENDBRANCH  10  12
BRANCH   1  25
ATOM     21  C   UNL     1       5.637   4.448  14.199  0.00  0.00    +0.000 A 
ATOM     22  C   UNL     1       7.005   4.565  14.426  0.00  0.00    +0.000 A 
ATOM     23  C   UNL     1       7.479   5.288  15.525  0.00  0.00    +0.000 A 
ATOM     24  C   UNL     1       6.586   5.887  16.422  0.00  0.00    +0.000 A 
ATOM     25  C   UNL     1       5.210   5.810  16.199  0.00  0.00    +0.000 A 
ATOM     26  C   UNL     1       4.756   5.102  15.059  0.00  0.00    +0.000 A 
BRANCH  21  28
ATOM     27  C   UNL     1       6.314   3.325  12.205  0.00  0.00    +0.000 C 
ATOM     28  O   UNL     1       5.289   3.663  13.133  0.00  0.00    +0.000 OA
ENDBRANCH  21  28
ENDBRANCH   1  25
TORSDOF 3
ENDMDL
MODEL 5
REMARK VINA RESULT:      -7.5      2.867      6.139
REMARK  Name = 
REMARK  5 active torsions:
REMARK  status: ('A' for Active; 'I' for Inactive)
REMARK    1  A    between atoms: C_1  and  O_2
REMARK    2  A    between atoms: O_2  and  C_3
REMARK    3  A    between atoms: C_7  and  C_8
REMARK    4  A    between atoms: C_13  and  C_14
REMARK    5  A    between atoms: C_17  and  C_18
REMARK                            x       y       z     vdW  Elec       q    Type
REMARK                         _______ _______ _______ _____ _____    ______ ____
ROOT
ATOM      1  C   UNL     1       6.676   5.633  16.225  0.00  0.00    +0.000 A 
ATOM      2  N   UNL     1       7.486   5.341  15.151  0.00  0.00    +0.000 N 
ATOM      3  C   UNL     1       6.826   4.679  14.164  0.00  0.00    +0.000 A 
ATOM      4  C   UNL     1       7.328   4.238  12.938  0.00  0.00    +0.000 A 
ATOM      5  C   UNL     1       6.441   3.633  12.059  0.00  0.00    +0.000 A 
ATOM      6  C   UNL     1       5.096   3.481  12.386  0.00  0.00    +0.000 A 
ATOM      7  C   UNL     1       4.164   2.918  11.351  0.00  0.00    +0.000 C 
ATOM      8  C   UNL     1       4.624   3.918  13.651  0.00  0.00    +0.000 A 
ATOM      9  C   UNL     1       5.510   4.520  14.581  0.00  0.00    +0.000 A 
ATOM     10  C   UNL     1       5.431   5.067  15.929  0.00  0.00    +0.000 A 
ATOM     11  H   UNL     1       8.455   5.608  15.081  0.00  0.00    +0.000 HD
ENDROOT
BRANCH  10  12
ATOM     12  C   UNL     1       4.281   5.067  16.784  0.00  0.00    +0.000 C 
ATOM     13  C   UNL     1       3.577   4.042  17.290  0.00  0.00    +0.000 C 
ATOM     14 BR   UNL     1       3.826   2.225  17.134  0.00  0.00    +0.000 Br
ATOM     15  C   UNL     1       2.479   4.588  18.118  0.00  0.00    +0.000 C 
ATOM     16  O   UNL     1       1.580   3.961  18.641  0.00  0.00    +0.000 OA
ATOM     17  N   UNL     1       2.646   5.923  18.155  0.00  0.00    +0.000 N 
ATOM     18  C   UNL     1       3.629   6.296  17.309  0.00  0.00    +0.000 C 
ATOM     19  O   UNL     1       3.894   7.446  17.017  0.00  0.00    +0.000 OA
ATOM     20  H   UNL     1       2.011   6.562  18.605  0.00  0.00    +0.000 HD
ENDBRANCH  10  12
BRANCH   1  25
ATOM     21  C   UNL     1       8.231   8.508  18.136  0.00  0.00    +0.000 A 
ATOM     22  C   UNL     1       8.642   7.875  19.305  0.00  0.00    +0.000 A 
ATOM     23  C   UNL     1       8.388   6.514  19.499  0.00  0.00    +0.000 A 
ATOM     24  C   UNL     1       7.735   5.765  18.512  0.00  0.00    +0.000 A 
ATOM     25  C   UNL     1       7.286   6.382  17.344  0.00  0.00    +0.000 A 
ATOM     26  C   UNL     1       7.523   7.771  17.187  0.00  0.00    +0.000 A 
BRANCH  21  28
ATOM     27  C   UNL     1       9.309  10.398  19.114  0.00  0.00    +0.000 C 
ATOM     28  O   UNL     1       8.592   9.824  18.028  0.00  0.00    +0.000 OA
ENDBRANCH  21  28
ENDBRANCH   1  25
TORSDOF 3
ENDMDL
MODEL 6
REMARK VINA RESULT:      -7.3      3.389      4.620
REMARK  Name = 
REMARK  5 active torsions:
REMARK  status: ('A' for Active; 'I' for Inactive)
REMARK    1  A    between atoms: C_1  and  O_2
REMARK    2  A    between atoms: O_2  and  C_3
REMARK    3  A    between atoms: C_7  and  C_8
REMARK    4  A    between atoms: C_13  and  C_14
REMARK    5  A    between atoms: C_17  and  C_18
REMARK                            x       y       z     vdW  Elec       q    Type
REMARK                         _______ _______ _______ _____ _____    ______ ____
ROOT
ATOM      1  C   UNL     1       5.335   4.077  16.036  0.00  0.00    +0.000 A 
ATOM      2  N   UNL     1       4.511   3.015  16.335  0.00  0.00    +0.000 N 
ATOM      3  C   UNL     1       4.008   3.084  17.596  0.00  0.00    +0.000 A 
ATOM      4  C   UNL     1       3.139   2.190  18.226  0.00  0.00    +0.000 A 
ATOM      5  C   UNL     1       2.711   2.504  19.508  0.00  0.00    +0.000 A 
ATOM      6  C   UNL     1       3.128   3.674  20.138  0.00  0.00    +0.000 A 
ATOM      7  C   UNL     1       2.545   4.012  21.481  0.00  0.00    +0.000 C 
ATOM      8  C   UNL     1       4.031   4.548  19.479  0.00  0.00    +0.000 A 
ATOM      9  C   UNL     1       4.505   4.244  18.177  0.00  0.00    +0.000 A 
ATOM     10  C   UNL     1       5.410   4.842  17.206  0.00  0.00    +0.000 A 
ATOM     11  H   UNL     1       4.278   2.278  15.689  0.00  0.00    +0.000 HD
ENDROOT
BRANCH  10  12
ATOM     12  C   UNL     1       6.202   6.022  17.390  0.00  0.00    +0.000 C 
ATOM     13  C   UNL     1       7.213   6.263  18.239  0.00  0.00    +0.000 C 
ATOM     14 BR   UNL     1       8.025   5.168  19.477  0.00  0.00    +0.000 Br
ATOM     15  C   UNL     1       7.691   7.646  18.022  0.00  0.00    +0.000 C 
ATOM     16  O   UNL     1       8.518   8.244  18.682  0.00  0.00    +0.000 OA
ATOM     17  N   UNL     1       7.008   8.134  16.971  0.00  0.00    +0.000 N 
ATOM     18  C   UNL     1       6.036   7.272  16.602  0.00  0.00    +0.000 C 
ATOM     19  O   UNL     1       5.167   7.515  15.788  0.00  0.00    +0.000 OA
ATOM     20  H   UNL     1       7.089   9.077  16.629  0.00  0.00    +0.000 HD
ENDBRANCH  10  12
BRANCH   1  25
ATOM     21  C   UNL     1       5.914   3.187  12.402  0.00  0.00    +0.000 A 
ATOM     22  C   UNL     1       7.050   3.937  12.110  0.00  0.00    +0.000 A 
ATOM     23  C   UNL     1       7.620   4.764  13.081  0.00  0.00    +0.000 A 
ATOM     24  C   UNL     1       7.068   4.837  14.366  0.00  0.00    +0.000 A 
ATOM     25  C   UNL     1       5.912   4.119  14.676  0.00  0.00    +0.000 A 
ATOM     26  C   UNL     1       5.333   3.315  13.663  0.00  0.00    +0.000 A 
BRANCH  21  28
ATOM     27  C   UNL     1       6.296   1.239  11.079  0.00  0.00    +0.000 C 
ATOM     28  O   UNL     1       5.484   2.364  11.397  0.00  0.00    +0.000 OA
ENDBRANCH  21  28
ENDBRANCH   1  25
TORSDOF 3
ENDMDL
MODEL 7
REMARK VINA RESULT:      -7.3      3.213      4.420
REMARK  Name = 
REMARK  5 active torsions:
REMARK  status: ('A' for Active; 'I' for Inactive)
REMARK    1  A    between atoms: C_1  and  O_2
REMARK    2  A    between atoms: O_2  and  C_3
REMARK    3  A    between atoms: C_7  and  C_8
REMARK    4  A    between atoms: C_13  and  C_14
REMARK    5  A    between atoms: C_17  and  C_18
REMARK                            x       y       z     vdW  Elec       q    Type
REMARK                         _______ _______ _______ _____ _____    ______ ____
ROOT
ATOM      1  C   UNL     1       5.212   3.948  16.078  0.00  0.00    +0.000 A 
ATOM      2  N   UNL     1       4.298   2.936  16.271  0.00  0.00    +0.000 N 
ATOM      3  C   UNL     1       3.791   2.925  17.533  0.00  0.00    +0.000 A 
ATOM      4  C   UNL     1       2.844   2.053  18.071  0.00  0.00    +0.000 A 
ATOM      5  C   UNL     1       2.433   2.276  19.378  0.00  0.00    +0.000 A 
ATOM      6  C   UNL     1       2.942   3.338  20.120  0.00  0.00    +0.000 A 
ATOM      7  C   UNL     1       2.378   3.593  21.489  0.00  0.00    +0.000 C 
ATOM      8  C   UNL     1       3.923   4.191  19.550  0.00  0.00    +0.000 A 
ATOM      9  C   UNL     1       4.380   3.976  18.224  0.00  0.00    +0.000 A 
ATOM     10  C   UNL     1       5.341   4.587  17.317  0.00  0.00    +0.000 A 
ATOM     11  H   UNL     1       4.008   2.288  15.556  0.00  0.00    +0.000 HD
ENDROOT
BRANCH  10  12
ATOM     12  C   UNL     1       6.229   5.670  17.616  0.00  0.00    +0.000 C 
ATOM     13  C   UNL     1       6.075   6.992  17.437  0.00  0.00    +0.000 C 
ATOM     14 BR   UNL     1       4.648   7.954  16.783  0.00  0.00    +0.000 Br
ATOM     15  C   UNL     1       7.295   7.678  17.917  0.00  0.00    +0.000 C 
ATOM     16  O   UNL     1       7.555   8.860  17.813  0.00  0.00    +0.000 OA
ATOM     17  N   UNL     1       8.083   6.734  18.463  0.00  0.00    +0.000 N 
ATOM     18  C   UNL     1       7.571   5.506  18.235  0.00  0.00    +0.000 C 
ATOM     19  O   UNL     1       8.144   4.461  18.474  0.00  0.00    +0.000 OA
ATOM     20  H   UNL     1       9.007   6.905  18.825  0.00  0.00    +0.000 HD
ENDBRANCH  10  12
BRANCH   1  25
ATOM     21  C   UNL     1       5.882   3.231  12.422  0.00  0.00    +0.000 A 
ATOM     22  C   UNL     1       6.980   4.050  12.174  0.00  0.00    +0.000 A 
ATOM     23  C   UNL     1       7.493   4.868  13.184  0.00  0.00    +0.000 A 
ATOM     24  C   UNL     1       6.923   4.861  14.463  0.00  0.00    +0.000 A 
ATOM     25  C   UNL     1       5.803   4.073  14.729  0.00  0.00    +0.000 A 
ATOM     26  C   UNL     1       5.279   3.279  13.678  0.00  0.00    +0.000 A 
BRANCH  21  28
ATOM     27  C   UNL     1       6.336   1.305  11.088  0.00  0.00    +0.000 C 
ATOM     28  O   UNL     1       5.508   2.425  11.380  0.00  0.00    +0.000 OA
ENDBRANCH  21  28
ENDBRANCH   1  25
TORSDOF 3
ENDMDL
MODEL 8
REMARK VINA RESULT:      -7.2      6.529      8.843
REMARK  Name = 
REMARK  5 active torsions:
REMARK  status: ('A' for Active; 'I' for Inactive)
REMARK    1  A    between atoms: C_1  and  O_2
REMARK    2  A    between atoms: O_2  and  C_3
REMARK    3  A    between atoms: C_7  and  C_8
REMARK    4  A    between atoms: C_13  and  C_14
REMARK    5  A    between atoms: C_17  and  C_18
REMARK                            x       y       z     vdW  Elec       q    Type
REMARK                         _______ _______ _______ _____ _____    ______ ____
ROOT
ATOM      1  C   UNL     1      -0.728  12.425  18.933  0.00  0.00    +0.000 A 
ATOM      2  N   UNL     1      -0.558  13.751  18.603  0.00  0.00    +0.000 N 
ATOM      3  C   UNL     1       0.600  14.266  19.093  0.00  0.00    +0.000 A 
ATOM      4  C   UNL     1       1.095  15.563  18.945  0.00  0.00    +0.000 A 
ATOM      5  C   UNL     1       2.342  15.843  19.488  0.00  0.00    +0.000 A 
ATOM      6  C   UNL     1       3.074  14.860  20.149  0.00  0.00    +0.000 A 
ATOM      7  C   UNL     1       4.461  15.193  20.619  0.00  0.00    +0.000 C 
ATOM      8  C   UNL     1       2.530  13.558  20.303  0.00  0.00    +0.000 A 
ATOM      9  C   UNL     1       1.249  13.247  19.778  0.00  0.00    +0.000 A 
ATOM     10  C   UNL     1       0.367  12.089  19.737  0.00  0.00    +0.000 A 
ATOM     11  H   UNL     1      -1.202  14.283  18.038  0.00  0.00    +0.000 HD
ENDROOT
BRANCH  10  12
ATOM     12  C   UNL     1       0.592  10.822  20.366  0.00  0.00    +0.000 C 
ATOM     13  C   UNL     1       1.045   9.667  19.852  0.00  0.00    +0.000 C 
ATOM     14 BR   UNL     1       1.608   9.253  18.148  0.00  0.00    +0.000 Br
ATOM     15  C   UNL     1       1.094   8.657  20.932  0.00  0.00    +0.000 C 
ATOM     16  O   UNL     1       1.348   7.475  20.813  0.00  0.00    +0.000 OA
ATOM     17  N   UNL     1       0.766   9.291  22.073  0.00  0.00    +0.000 N 
ATOM     18  C   UNL     1       0.356  10.550  21.809  0.00  0.00    +0.000 C 
ATOM     19  O   UNL     1      -0.146  11.301  22.622  0.00  0.00    +0.000 OA
ATOM     20  H   UNL     1       0.665   8.837  22.965  0.00  0.00    +0.000 HD
ENDBRANCH  10  12
BRANCH   1  25
ATOM     21  C   UNL     1      -2.945  10.340  16.682  0.00  0.00    +0.000 A 
ATOM     22  C   UNL     1      -4.204  10.595  17.217  0.00  0.00    +0.000 A 
ATOM     23  C   UNL     1      -4.342  11.422  18.335  0.00  0.00    +0.000 A 
ATOM     24  C   UNL     1      -3.219  12.019  18.921  0.00  0.00    +0.000 A 
ATOM     25  C   UNL     1      -1.942  11.755  18.422  0.00  0.00    +0.000 A 
ATOM     26  C   UNL     1      -1.826  10.885  17.310  0.00  0.00    +0.000 A 
BRANCH  21  28
ATOM     27  C   UNL     1      -3.586  10.098  14.396  0.00  0.00    +0.000 C 
ATOM     28  O   UNL     1      -2.938   9.571  15.549  0.00  0.00    +0.000 OA
ENDBRANCH  21  28
ENDBRANCH   1  25
TORSDOF 3
ENDMDL
MODEL 9
REMARK VINA RESULT:      -7.2      6.441      9.270
REMARK  Name = 
REMARK  5 active torsions:
REMARK  status: ('A' for Active; 'I' for Inactive)
REMARK    1  A    between atoms: C_1  and  O_2
REMARK    2  A    between atoms: O_2  and  C_3
REMARK    3  A    between atoms: C_7  and  C_8
REMARK    4  A    between atoms: C_13  and  C_14
REMARK    5  A    between atoms: C_17  and  C_18
REMARK                            x       y       z     vdW  Elec       q    Type
REMARK                         _______ _______ _______ _____ _____    ______ ____
ROOT
ATOM      1  C   UNL     1      -0.742  12.293  18.868  0.00  0.00    +0.000 A 
ATOM      2  N   UNL     1      -0.599  13.618  18.525  0.00  0.00    +0.000 N 
ATOM      3  C   UNL     1       0.553  14.160  19.004  0.00  0.00    +0.000 A 
ATOM      4  C   UNL     1       1.023  15.464  18.841  0.00  0.00    +0.000 A 
ATOM      5  C   UNL     1       2.266  15.772  19.376  0.00  0.00    +0.000 A 
ATOM      6  C   UNL     1       3.020  14.809  20.042  0.00  0.00    +0.000 A 
ATOM      7  C   UNL     1       4.403  15.173  20.503  0.00  0.00    +0.000 C 
ATOM      8  C   UNL     1       2.501  13.499  20.211  0.00  0.00    +0.000 A 
ATOM      9  C   UNL     1       1.223  13.159  19.696  0.00  0.00    +0.000 A 
ATOM     10  C   UNL     1       0.363  11.985  19.670  0.00  0.00    +0.000 A 
ATOM     11  H   UNL     1      -1.255  14.132  17.958  0.00  0.00    +0.000 HD
ENDROOT
BRANCH  10  12
ATOM     12  C   UNL     1       0.614  10.728  20.310  0.00  0.00    +0.000 C 
ATOM     13  C   UNL     1       1.078   9.575  19.804  0.00  0.00    +0.000 C 
ATOM     14 BR   UNL     1       1.626   9.150  18.098  0.00  0.00    +0.000 Br
ATOM     15  C   UNL     1       1.154   8.578  20.894  0.00  0.00    +0.000 C 
ATOM     16  O   UNL     1       1.425   7.398  20.785  0.00  0.00    +0.000 OA
ATOM     17  N   UNL     1       0.831   9.219  22.032  0.00  0.00    +0.000 N 
ATOM     18  C   UNL     1       0.399  10.469  21.759  0.00  0.00    +0.000 C 
ATOM     19  O   UNL     1      -0.104  11.221  22.570  0.00  0.00    +0.000 OA
ATOM     20  H   UNL     1       0.747   8.774  22.930  0.00  0.00    +0.000 HD
ENDBRANCH  10  12
BRANCH   1  25
ATOM     21  C   UNL     1      -4.388  11.345  18.490  0.00  0.00    +0.000 A 
ATOM     22  C   UNL     1      -4.300  10.219  17.677  0.00  0.00    +0.000 A 
ATOM     23  C   UNL     1      -3.057   9.775  17.217  0.00  0.00    +0.000 A 
ATOM     24  C   UNL     1      -1.883  10.445  17.581  0.00  0.00    +0.000 A 
ATOM     25  C   UNL     1      -1.946  11.595  18.370  0.00  0.00    +0.000 A 
ATOM     26  C   UNL     1      -3.221  12.045  18.794  0.00  0.00    +0.000 A 
BRANCH  21  28
ATOM     27  C   UNL     1      -6.707  10.784  18.536  0.00  0.00    +0.000 C 
ATOM     28  O   UNL     1      -5.647  11.647  18.934  0.00  0.00    +0.000 OA
ENDBRANCH  21  28
ENDBRANCH   1  25
TORSDOF 3
ENDMDL
