MODEL 1
REMARK VINA RESULT:      -7.5      0.000      0.000
REMARK  Name = 
REMARK  5 active torsions:
REMARK  status: ('A' for Active; 'I' for Inactive)
REMARK    1  A    between atoms: C_1  and  C_2
REMARK    2  A    between atoms: C_7  and  C_8
REMARK    3  A    between atoms: C_9  and  C_10
REMARK    4  A    between atoms: N_12  and  C_13
REMARK    5  A    between atoms: C_13  and  C_14
REMARK                            x       y       z     vdW  Elec       q    Type
REMARK                         _______ _______ _______ _____ _____    ______ ____
ROOT
ATOM      1  C   UNL     1       5.128   5.515  18.527  0.00  0.00    +0.000 C 
ATOM      2  O   UNL     1       5.663   5.224  19.595  0.00  0.00    +0.000 OA
ATOM      3  N   UNL     1       3.858   6.025  18.499  0.00  0.00    +0.000 N 
ATOM      4  H   UNL     1       3.325   6.031  17.645  0.00  0.00    +0.000 HD
ENDROOT
BRANCH   1  13
ATOM      5  C   UNL     1       4.233   3.383  16.367  0.00  0.00    +0.000 C 
ATOM      6  C   UNL     1       5.388   4.323  16.175  0.00  0.00    +0.000 A 
ATOM      7  C   UNL     1       6.024   4.284  14.984  0.00  0.00    +0.000 A 
ATOM      8  C   UNL     1       7.148   5.167  14.650  0.00  0.00    +0.000 A 
ATOM      9  O   UNL     1       7.696   5.099  13.561  0.00  0.00    +0.000 OA
ATOM     10  O   UNL     1       7.522   6.037  15.622  0.00  0.00    +0.000 OA
ATOM     11  C   UNL     1       6.856   6.113  16.880  0.00  0.00    +0.000 A 
ATOM     12  C   UNL     1       7.456   7.195  17.736  0.00  0.00    +0.000 C 
ATOM     13  C   UNL     1       5.824   5.290  17.195  0.00  0.00    +0.000 A 
ENDBRANCH   1  13
BRANCH   3  14
ATOM     14  C   UNL     1       3.079   6.193  19.716  0.00  0.00    +0.000 C 
BRANCH  14  15
ATOM     15  C   UNL     1       2.385   4.911  20.104  0.00  0.00    +0.000 A 
ATOM     16  C   UNL     1       1.590   4.235  19.183  0.00  0.00    +0.000 A 
ATOM     17  C   UNL     1       0.947   3.067  19.581  0.00  0.00    +0.000 A 
ATOM     18  C   UNL     1       1.103   2.612  20.884  0.00  0.00    +0.000 A 
ATOM     19  C   UNL     1       1.898   3.354  21.743  0.00  0.00    +0.000 A 
ATOM     20  N   UNL     1       2.530   4.494  21.390  0.00  0.00    +0.000 NA
ENDBRANCH  14  15
ENDBRANCH   3  14
TORSDOF 3
ENDMDL
MODEL 2
REMARK VINA RESULT:      -7.4      0.715      1.126
REMARK  Name = 
REMARK  5 active torsions:
REMARK  status: ('A' for Active; 'I' for Inactive)
REMARK    1  A    between atoms: C_1  and  C_2
REMARK    2  A    between atoms: C_7  and  C_8
REMARK    3  A    between atoms: C_9  and  C_10
REMARK    4  A    between atoms: N_12  and  C_13
REMARK    5  A    between atoms: C_13  and  C_14
REMARK                            x       y       z     vdW  Elec       q    Type
REMARK                         _______ _______ _______ _____ _____    ______ ____
ROOT
ATOM      1  C   UNL     1       5.255   5.278  18.485  0.00  0.00    +0.000 C 
ATOM      2  O   UNL     1       5.751   4.796  19.501  0.00  0.00    +0.000 OA
ATOM      3  N   UNL     1       4.052   5.928  18.537  0.00  0.00    +0.000 N 
ATOM      4  H   UNL     1       3.525   6.102  17.697  0.00  0.00    +0.000 HD
ENDROOT
BRANCH   1  13
ATOM      5  C   UNL     1       4.320   3.293  16.205  0.00  0.00    +0.000 C 
ATOM      6  C   UNL     1       5.470   4.248  16.053  0.00  0.00    +0.000 A 
ATOM      7  C   UNL     1       6.081   4.292  14.849  0.00  0.00    +0.000 A 
ATOM      8  C   UNL     1       7.196   5.200  14.553  0.00  0.00    +0.000 A 
ATOM      9  O   UNL     1       7.721   5.208  13.450  0.00  0.00    +0.000 OA
ATOM     10  O   UNL     1       7.588   6.003  15.574  0.00  0.00    +0.000 OA
ATOM     11  C   UNL     1       6.948   5.992  16.847  0.00  0.00    +0.000 A 
ATOM     12  C   UNL     1       7.563   7.016  17.761  0.00  0.00    +0.000 C 
ATOM     13  C   UNL     1       5.924   5.146  17.127  0.00  0.00    +0.000 A 
ENDBRANCH   1  13
BRANCH   3  14
ATOM     14  C   UNL     1       3.294   6.028  19.775  0.00  0.00    +0.000 C 
BRANCH  14  15
ATOM     15  C   UNL     1       2.440   4.804  19.994  0.00  0.00    +0.000 A 
ATOM     16  C   UNL     1       2.331   4.240  21.262  0.00  0.00    +0.000 A 
ATOM     17  C   UNL     1       1.551   3.099  21.424  0.00  0.00    +0.000 A 
ATOM     18  C   UNL     1       0.912   2.547  20.321  0.00  0.00    +0.000 A 
ATOM     19  C   UNL     1       1.086   3.161  19.092  0.00  0.00    +0.000 A 
ATOM     20  N   UNL     1       1.841   4.264  18.900  0.00  0.00    +0.000 NA
ENDBRANCH  14  15
ENDBRANCH   3  14
TORSDOF 3
ENDMDL
MODEL 3
REMARK VINA RESULT:      -7.2      2.788      6.819
REMARK  Name = 
REMARK  5 active torsions:
REMARK  status: ('A' for Active; 'I' for Inactive)
REMARK    1  A    between atoms: C_1  and  C_2
REMARK    2  A    between atoms: C_7  and  C_8
REMARK    3  A    between atoms: C_9  and  C_10
REMARK    4  A    between atoms: N_12  and  C_13
REMARK    5  A    between atoms: C_13  and  C_14
REMARK                            x       y       z     vdW  Elec       q    Type
REMARK                         _______ _______ _______ _____ _____    ______ ____
ROOT
ATOM      1  C   UNL     1       5.128   4.230  17.968  0.00  0.00    +0.000 C 
ATOM      2  O   UNL     1       6.103   4.179  18.714  0.00  0.00    +0.000 OA
ATOM      3  N   UNL     1       5.253   4.699  16.688  0.00  0.00    +0.000 N 
ATOM      4  H   UNL     1       4.442   4.977  16.160  0.00  0.00    +0.000 HD
ENDROOT
BRANCH   1  13
ATOM      5  C   UNL     1       2.905   6.234  18.996  0.00  0.00    +0.000 C 
ATOM      6  C   UNL     1       2.694   4.751  18.878  0.00  0.00    +0.000 A 
ATOM      7  C   UNL     1       1.463   4.278  19.169  0.00  0.00    +0.000 A 
ATOM      8  C   UNL     1       1.110   2.857  19.066  0.00  0.00    +0.000 A 
ATOM      9  O   UNL     1      -0.016   2.470  19.339  0.00  0.00    +0.000 OA
ATOM     10  O   UNL     1       2.107   2.030  18.659  0.00  0.00    +0.000 OA
ATOM     11  C   UNL     1       3.409   2.506  18.327  0.00  0.00    +0.000 A 
ATOM     12  C   UNL     1       4.288   1.375  17.867  0.00  0.00    +0.000 C 
ATOM     13  C   UNL     1       3.741   3.818  18.432  0.00  0.00    +0.000 A 
ENDBRANCH   1  13
BRANCH   3  14
ATOM     14  C   UNL     1       6.522   5.199  16.182  0.00  0.00    +0.000 C 
BRANCH  14  15
ATOM     15  C   UNL     1       6.711   4.843  14.728  0.00  0.00    +0.000 A 
ATOM     16  C   UNL     1       5.928   3.855  14.138  0.00  0.00    +0.000 A 
ATOM     17  C   UNL     1       6.143   3.538  12.800  0.00  0.00    +0.000 A 
ATOM     18  C   UNL     1       7.136   4.203  12.092  0.00  0.00    +0.000 A 
ATOM     19  C   UNL     1       7.882   5.161  12.760  0.00  0.00    +0.000 A 
ATOM     20  N   UNL     1       7.702   5.488  14.058  0.00  0.00    +0.000 NA
ENDBRANCH  14  15
ENDBRANCH   3  14
TORSDOF 3
ENDMDL
MODEL 4
REMARK VINA RESULT:      -7.1      2.705      6.652
REMARK  Name = 
REMARK  5 active torsions:
REMARK  status: ('A' for Active; 'I' for Inactive)
REMARK    1  A    between atoms: C_1  and  C_2
REMARK    2  A    between atoms: C_7  and  C_8
REMARK    3  A    between atoms: C_9  and  C_10
REMARK    4  A    between atoms: N_12  and  C_13
REMARK    5  A    between atoms: C_13  and  C_14
REMARK                            x       y       z     vdW  Elec       q    Type
REMARK                         _______ _______ _______ _____ _____    ______ ____
ROOT
ATOM      1  C   UNL     1       5.130   4.361  17.926  0.00  0.00    +0.000 C 
ATOM      2  O   UNL     1       6.125   4.276  18.642  0.00  0.00    +0.000 OA
ATOM      3  N   UNL     1       5.226   4.853  16.652  0.00  0.00    +0.000 N 
ATOM      4  H   UNL     1       4.405   5.158  16.155  0.00  0.00    +0.000 HD
ENDROOT
BRANCH   1  13
ATOM      5  C   UNL     1       4.059   1.388  18.096  0.00  0.00    +0.000 C 
ATOM      6  C   UNL     1       3.262   2.583  18.536  0.00  0.00    +0.000 A 
ATOM      7  C   UNL     1       2.053   2.348  19.091  0.00  0.00    +0.000 A 
ATOM      8  C   UNL     1       1.184   3.419  19.593  0.00  0.00    +0.000 A 
ATOM      9  O   UNL     1       0.097   3.164  20.088  0.00  0.00    +0.000 OA
ATOM     10  O   UNL     1       1.668   4.680  19.462  0.00  0.00    +0.000 OA
ATOM     11  C   UNL     1       2.948   4.955  18.899  0.00  0.00    +0.000 A 
ATOM     12  C   UNL     1       3.236   6.431  18.925  0.00  0.00    +0.000 C 
ATOM     13  C   UNL     1       3.749   3.967  18.424  0.00  0.00    +0.000 A 
ENDBRANCH   1  13
BRANCH   3  14
ATOM     14  C   UNL     1       6.489   5.338  16.118  0.00  0.00    +0.000 C 
BRANCH  14  15
ATOM     15  C   UNL     1       6.674   4.916  14.682  0.00  0.00    +0.000 A 
ATOM     16  C   UNL     1       5.849   3.945  14.121  0.00  0.00    +0.000 A 
ATOM     17  C   UNL     1       6.061   3.565  12.800  0.00  0.00    +0.000 A 
ATOM     18  C   UNL     1       7.094   4.150  12.078  0.00  0.00    +0.000 A 
ATOM     19  C   UNL     1       7.880   5.096  12.717  0.00  0.00    +0.000 A 
ATOM     20  N   UNL     1       7.704   5.482  13.999  0.00  0.00    +0.000 NA
ENDBRANCH  14  15
ENDBRANCH   3  14
TORSDOF 3
ENDMDL
MODEL 5
REMARK VINA RESULT:      -7.0      2.031      3.080
REMARK  Name = 
REMARK  5 active torsions:
REMARK  status: ('A' for Active; 'I' for Inactive)
REMARK    1  A    between atoms: C_1  and  C_2
REMARK    2  A    between atoms: C_7  and  C_8
REMARK    3  A    between atoms: C_9  and  C_10
REMARK    4  A    between atoms: N_12  and  C_13
REMARK    5  A    between atoms: C_13  and  C_14
REMARK                            x       y       z     vdW  Elec       q    Type
REMARK                         _______ _______ _______ _____ _____    ______ ____
ROOT
ATOM      1  C   UNL     1       5.000   5.613  18.512  0.00  0.00    +0.000 C 
ATOM      2  O   UNL     1       5.539   5.414  19.599  0.00  0.00    +0.000 OA
ATOM      3  N   UNL     1       3.738   6.139  18.445  0.00  0.00    +0.000 N 
ATOM      4  H   UNL     1       3.199   6.075  17.597  0.00  0.00    +0.000 HD
ENDROOT
BRANCH   1  13
ATOM      5  C   UNL     1       4.088   3.268  16.594  0.00  0.00    +0.000 C 
ATOM      6  C   UNL     1       5.238   4.186  16.292  0.00  0.00    +0.000 A 
ATOM      7  C   UNL     1       5.861   4.026  15.104  0.00  0.00    +0.000 A 
ATOM      8  C   UNL     1       6.977   4.873  14.669  0.00  0.00    +0.000 A 
ATOM      9  O   UNL     1       7.514   4.694  13.585  0.00  0.00    +0.000 OA
ATOM     10  O   UNL     1       7.359   5.839  15.542  0.00  0.00    +0.000 OA
ATOM     11  C   UNL     1       6.707   6.042  16.792  0.00  0.00    +0.000 A 
ATOM     12  C   UNL     1       7.313   7.208  17.525  0.00  0.00    +0.000 C 
ATOM     13  C   UNL     1       5.682   5.254  17.202  0.00  0.00    +0.000 A 
ENDBRANCH   1  13
BRANCH   3  14
ATOM     14  C   UNL     1       2.972   6.433  19.646  0.00  0.00    +0.000 C 
BRANCH  14  15
ATOM     15  C   UNL     1       2.134   7.675  19.472  0.00  0.00    +0.000 A 
ATOM     16  C   UNL     1       2.071   8.314  18.236  0.00  0.00    +0.000 A 
ATOM     17  C   UNL     1       1.306   9.469  18.116  0.00  0.00    +0.000 A 
ATOM     18  C   UNL     1       0.636   9.963  19.229  0.00  0.00    +0.000 A 
ATOM     19  C   UNL     1       0.766   9.277  20.426  0.00  0.00    +0.000 A 
ATOM     20  N   UNL     1       1.505   8.157  20.576  0.00  0.00    +0.000 NA
ENDBRANCH  14  15
ENDBRANCH   3  14
TORSDOF 3
ENDMDL
MODEL 6
REMARK VINA RESULT:      -7.0      3.485      5.470
REMARK  Name = 
REMARK  5 active torsions:
REMARK  status: ('A' for Active; 'I' for Inactive)
REMARK    1  A    between atoms: C_1  and  C_2
REMARK    2  A    between atoms: C_7  and  C_8
REMARK    3  A    between atoms: C_9  and  C_10
REMARK    4  A    between atoms: N_12  and  C_13
REMARK    5  A    between atoms: C_13  and  C_14
REMARK                            x       y       z     vdW  Elec       q    Type
REMARK                         _______ _______ _______ _____ _____    ______ ____
ROOT
ATOM      1  C   UNL     1       2.499   6.174  19.004  0.00  0.00    +0.000 C 
ATOM      2  O   UNL     1       2.168   6.300  17.828  0.00  0.00    +0.000 OA
ATOM      3  N   UNL     1       2.317   7.198  19.895  0.00  0.00    +0.000 N 
ATOM      4  H   UNL     1       2.800   7.203  20.778  0.00  0.00    +0.000 HD
ENDROOT
BRANCH   1  13
ATOM      5  C   UNL     1       0.985   3.863  20.547  0.00  0.00    +0.000 C 
ATOM      6  C   UNL     1       2.446   3.812  20.206  0.00  0.00    +0.000 A 
ATOM      7  C   UNL     1       3.117   2.684  20.527  0.00  0.00    +0.000 A 
ATOM      8  C   UNL     1       4.540   2.489  20.225  0.00  0.00    +0.000 A 
ATOM      9  O   UNL     1       5.109   1.453  20.532  0.00  0.00    +0.000 OA
ATOM     10  O   UNL     1       5.156   3.523  19.598  0.00  0.00    +0.000 OA
ATOM     11  C   UNL     1       4.469   4.716  19.231  0.00  0.00    +0.000 A 
ATOM     12  C   UNL     1       5.391   5.663  18.513  0.00  0.00    +0.000 C 
ATOM     13  C   UNL     1       3.156   4.904  19.519  0.00  0.00    +0.000 A 
ENDBRANCH   1  13
BRANCH   3  14
ATOM     14  C   UNL     1       1.777   8.482  19.476  0.00  0.00    +0.000 C 
BRANCH  14  15
ATOM     15  C   UNL     1       1.004   9.141  20.591  0.00  0.00    +0.000 A 
ATOM     16  C   UNL     1       1.085   8.649  21.891  0.00  0.00    +0.000 A 
ATOM     17  C   UNL     1       0.342   9.268  22.891  0.00  0.00    +0.000 A 
ATOM     18  C   UNL     1      -0.469  10.349  22.568  0.00  0.00    +0.000 A 
ATOM     19  C   UNL     1      -0.507  10.765  21.247  0.00  0.00    +0.000 A 
ATOM     20  N   UNL     1       0.198  10.182  20.253  0.00  0.00    +0.000 NA
ENDBRANCH  14  15
ENDBRANCH   3  14
TORSDOF 3
ENDMDL
MODEL 7
REMARK VINA RESULT:      -6.9      3.436      5.360
REMARK  Name = 
REMARK  5 active torsions:
REMARK  status: ('A' for Active; 'I' for Inactive)
REMARK    1  A    between atoms: C_1  and  C_2
REMARK    2  A    between atoms: C_7  and  C_8
REMARK    3  A    between atoms: C_9  and  C_10
REMARK    4  A    between atoms: N_12  and  C_13
REMARK    5  A    between atoms: C_13  and  C_14
REMARK                            x       y       z     vdW  Elec       q    Type
REMARK                         _______ _______ _______ _____ _____    ______ ____
ROOT
ATOM      1  C   UNL     1       2.550   6.157  19.019  0.00  0.00    +0.000 C 
ATOM      2  O   UNL     1       2.241   6.302  17.839  0.00  0.00    +0.000 OA
ATOM      3  N   UNL     1       2.349   7.166  19.922  0.00  0.00    +0.000 N 
ATOM      4  H   UNL     1       2.814   7.158  20.815  0.00  0.00    +0.000 HD
ENDROOT
BRANCH   1  13
ATOM      5  C   UNL     1       1.024   3.847  20.551  0.00  0.00    +0.000 C 
ATOM      6  C   UNL     1       2.485   3.790  20.208  0.00  0.00    +0.000 A 
ATOM      7  C   UNL     1       3.149   2.656  20.521  0.00  0.00    +0.000 A 
ATOM      8  C   UNL     1       4.570   2.453  20.216  0.00  0.00    +0.000 A 
ATOM      9  O   UNL     1       5.133   1.412  20.516  0.00  0.00    +0.000 OA
ATOM     10  O   UNL     1       5.192   3.487  19.594  0.00  0.00    +0.000 OA
ATOM     11  C   UNL     1       4.511   4.686  19.234  0.00  0.00    +0.000 A 
ATOM     12  C   UNL     1       5.438   5.631  18.520  0.00  0.00    +0.000 C 
ATOM     13  C   UNL     1       3.200   4.880  19.526  0.00  0.00    +0.000 A 
ENDBRANCH   1  13
BRANCH   3  14
ATOM     14  C   UNL     1       1.814   8.456  19.514  0.00  0.00    +0.000 C 
BRANCH  14  15
ATOM     15  C   UNL     1       1.007   9.089  20.620  0.00  0.00    +0.000 A 
ATOM     16  C   UNL     1       0.060  10.067  20.330  0.00  0.00    +0.000 A 
ATOM     17  C   UNL     1      -0.651  10.645  21.377  0.00  0.00    +0.000 A 
ATOM     18  C   UNL     1      -0.393  10.243  22.682  0.00  0.00    +0.000 A 
ATOM     19  C   UNL     1       0.579   9.276  22.885  0.00  0.00    +0.000 A 
ATOM     20  N   UNL     1       1.291   8.701  21.892  0.00  0.00    +0.000 NA
ENDBRANCH  14  15
ENDBRANCH   3  14
TORSDOF 3
ENDMDL
MODEL 8
REMARK VINA RESULT:      -6.8      1.916      3.167
REMARK  Name = 
REMARK  5 active torsions:
REMARK  status: ('A' for Active; 'I' for Inactive)
REMARK    1  A    between atoms: C_1  and  C_2
REMARK    2  A    between atoms: C_7  and  C_8
REMARK    3  A    between atoms: C_9  and  C_10
REMARK    4  A    between atoms: N_12  and  C_13
REMARK    5  A    between atoms: C_13  and  C_14
REMARK                            x       y       z     vdW  Elec       q    Type
REMARK                         _______ _______ _______ _____ _____    ______ ____
ROOT
ATOM      1  C   UNL     1       5.015   5.565  18.556  0.00  0.00    +0.000 C 
ATOM      2  O   UNL     1       5.572   5.359  19.631  0.00  0.00    +0.000 OA
ATOM      3  N   UNL     1       3.743   6.069  18.515  0.00  0.00    +0.000 N 
ATOM      4  H   UNL     1       3.192   6.008  17.674  0.00  0.00    +0.000 HD
ENDROOT
BRANCH   1  13
ATOM      5  C   UNL     1       4.110   3.241  16.608  0.00  0.00    +0.000 C 
ATOM      6  C   UNL     1       5.243   4.181  16.308  0.00  0.00    +0.000 A 
ATOM      7  C   UNL     1       5.852   4.051  15.109  0.00  0.00    +0.000 A 
ATOM      8  C   UNL     1       6.950   4.921  14.674  0.00  0.00    +0.000 A 
ATOM      9  O   UNL     1       7.474   4.770  13.581  0.00  0.00    +0.000 OA
ATOM     10  O   UNL     1       7.331   5.877  15.559  0.00  0.00    +0.000 OA
ATOM     11  C   UNL     1       6.693   6.049  16.822  0.00  0.00    +0.000 A 
ATOM     12  C   UNL     1       7.292   7.210  17.567  0.00  0.00    +0.000 C 
ATOM     13  C   UNL     1       5.684   5.238  17.231  0.00  0.00    +0.000 A 
ENDBRANCH   1  13
BRANCH   3  14
ATOM     14  C   UNL     1       2.989   6.330  19.731  0.00  0.00    +0.000 C 
BRANCH  14  15
ATOM     15  C   UNL     1       2.179   7.597  19.613  0.00  0.00    +0.000 A 
ATOM     16  C   UNL     1       1.458   8.076  20.703  0.00  0.00    +0.000 A 
ATOM     17  C   UNL     1       0.705   9.236  20.552  0.00  0.00    +0.000 A 
ATOM     18  C   UNL     1       0.681   9.879  19.321  0.00  0.00    +0.000 A 
ATOM     19  C   UNL     1       1.413   9.326  18.282  0.00  0.00    +0.000 A 
ATOM     20  N   UNL     1       2.149   8.199  18.395  0.00  0.00    +0.000 NA
ENDBRANCH  14  15
ENDBRANCH   3  14
TORSDOF 3
ENDMDL
MODEL 9
REMARK VINA RESULT:      -6.7      2.282      3.382
REMARK  Name = 
REMARK  5 active torsions:
REMARK  status: ('A' for Active; 'I' for Inactive)
REMARK    1  A    between atoms: C_1  and  C_2
REMARK    2  A    between atoms: C_7  and  C_8
REMARK    3  A    between atoms: C_9  and  C_10
REMARK    4  A    between atoms: N_12  and  C_13
REMARK    5  A    between atoms: C_13  and  C_14
REMARK                            x       y       z     vdW  Elec       q    Type
REMARK                         _______ _______ _______ _____ _____    ______ ____
ROOT
ATOM      1  C   UNL     1       5.889   4.449  17.946  0.00  0.00    +0.000 C 
ATOM      2  O   UNL     1       5.733   3.819  16.903  0.00  0.00    +0.000 OA
ATOM      3  N   UNL     1       5.430   3.952  19.136  0.00  0.00    +0.000 N 
ATOM      4  H   UNL     1       5.327   4.551  19.939  0.00  0.00    +0.000 HD
ENDROOT
BRANCH   1  13
ATOM      5  C   UNL     1       8.317   5.238  19.816  0.00  0.00    +0.000 C 
ATOM      6  C   UNL     1       7.708   6.172  18.810  0.00  0.00    +0.000 A 
ATOM      7  C   UNL     1       8.284   7.385  18.667  0.00  0.00    +0.000 A 
ATOM      8  C   UNL     1       7.811   8.383  17.700  0.00  0.00    +0.000 A 
ATOM      9  O   UNL     1       8.360   9.470  17.602  0.00  0.00    +0.000 OA
ATOM     10  O   UNL     1       6.742   8.015  16.948  0.00  0.00    +0.000 OA
ATOM     11  C   UNL     1       6.129   6.735  17.065  0.00  0.00    +0.000 A 
ATOM     12  C   UNL     1       5.002   6.592  16.078  0.00  0.00    +0.000 C 
ATOM     13  C   UNL     1       6.557   5.814  17.966  0.00  0.00    +0.000 A 
ENDBRANCH   1  13
BRANCH   3  14
ATOM     14  C   UNL     1       4.701   2.695  19.205  0.00  0.00    +0.000 C 
BRANCH  14  15
ATOM     15  C   UNL     1       3.262   2.918  19.598  0.00  0.00    +0.000 A 
ATOM     16  C   UNL     1       2.864   2.778  20.925  0.00  0.00    +0.000 A 
ATOM     17  C   UNL     1       1.525   2.970  21.249  0.00  0.00    +0.000 A 
ATOM     18  C   UNL     1       0.618   3.284  20.244  0.00  0.00    +0.000 A 
ATOM     19  C   UNL     1       1.093   3.386  18.946  0.00  0.00    +0.000 A 
ATOM     20  N   UNL     1       2.385   3.200  18.598  0.00  0.00    +0.000 NA
ENDBRANCH  14  15
ENDBRANCH   3  14
TORSDOF 3
ENDMDL
