MODEL 1
REMARK VINA RESULT:      -7.7      0.000      0.000
REMARK  Name = 
REMARK  7 active torsions:
REMARK  status: ('A' for Active; 'I' for Inactive)
REMARK    1  A    between atoms: C_1  and  C_2
REMARK    2  A    between atoms: C_8  and  S_9
REMARK    3  A    between atoms: S_9  and  C_12
REMARK    4  A    between atoms: C_19  and  C_20
REMARK    5  A    between atoms: N_21  and  C_22
REMARK    6  A    between atoms: C_22  and  C_23
REMARK    7  A    between atoms: C_23  and  O_25
REMARK                            x       y       z     vdW  Elec       q    Type
REMARK                         _______ _______ _______ _____ _____    ______ ____
ROOT
ATOM      1  C   UNL     1       5.598   3.276  12.139  0.00  0.00    +0.000 C 
ATOM      2  C   UNL     1       5.967   3.832  13.485  0.00  0.00    +0.000 A 
ATOM      3  C   UNL     1       7.079   4.654  13.646  0.00  0.00    +0.000 A 
ATOM      4  C   UNL     1       7.433   5.164  14.902  0.00  0.00    +0.000 A 
ATOM      5  C   UNL     1       6.645   4.821  16.015  0.00  0.00    +0.000 A 
ATOM      6  C   UNL     1       5.514   4.009  15.888  0.00  0.00    +0.000 A 
ATOM      7  C   UNL     1       5.175   3.524  14.602  0.00  0.00    +0.000 A 
ATOM      8  C   UNL     1       4.930   3.890  17.189  0.00  0.00    +0.000 A 
ATOM      9  C   UNL     1       5.744   4.575  18.088  0.00  0.00    +0.000 A 
ATOM     10  C   UNL     1       5.634   4.770  19.566  0.00  0.00    +0.000 C 
ATOM     11  N   UNL     1       6.746   5.182  17.348  0.00  0.00    +0.000 N 
ENDROOT
BRANCH   8  12
ATOM     12  S   UNL     1       3.435   3.042  17.483  0.00  0.00    +0.000 S 
ATOM     13  O   UNL     1       2.468   3.548  16.529  0.00  0.00    +0.000 OA
ATOM     14  O   UNL     1       3.813   1.645  17.521  0.00  0.00    +0.000 OA
BRANCH  12  15
ATOM     15  C   UNL     1       2.898   3.532  19.099  0.00  0.00    +0.000 A 
ATOM     16  C   UNL     1       2.930   2.601  20.143  0.00  0.00    +0.000 A 
ATOM     17  C   UNL     1       2.445   2.964  21.400  0.00  0.00    +0.000 A 
ATOM     18  C   UNL     1       1.942   4.249  21.610  0.00  0.00    +0.000 A 
ATOM     19  C   UNL     1       1.954   5.182  20.572  0.00  0.00    +0.000 A 
ATOM     20 CL   UNL     1       1.342   6.766  20.844  0.00  0.00    +0.000 Cl
ATOM     21  C   UNL     1       2.443   4.836  19.314  0.00  0.00    +0.000 A 
ENDBRANCH  12  15
ENDBRANCH   8  12
BRANCH  11  22
ATOM     22  C   UNL     1       7.716   6.149  17.874  0.00  0.00    +0.000 C 
BRANCH  22  23
ATOM     23  C   UNL     1       7.434   7.606  17.599  0.00  0.00    +0.000 C 
ATOM     24  O   UNL     1       8.213   8.491  17.944  0.00  0.00    +0.000 OA
BRANCH  23  25
ATOM     25  O   UNL     1       6.280   7.913  16.969  0.00  0.00    +0.000 OA
ATOM     26  H   UNL     1       6.216   8.816  16.594  0.00  0.00    +0.000 HD
ENDBRANCH  23  25
ENDBRANCH  22  23
ENDBRANCH  11  22
TORSDOF 5
ENDMDL
MODEL 2
REMARK VINA RESULT:      -7.6      0.970      1.505
REMARK  Name = 
REMARK  7 active torsions:
REMARK  status: ('A' for Active; 'I' for Inactive)
REMARK    1  A    between atoms: C_1  and  C_2
REMARK    2  A    between atoms: C_8  and  S_9
REMARK    3  A    between atoms: S_9  and  C_12
REMARK    4  A    between atoms: C_19  and  C_20
REMARK    5  A    between atoms: N_21  and  C_22
REMARK    6  A    between atoms: C_22  and  C_23
REMARK    7  A    between atoms: C_23  and  O_25
REMARK                            x       y       z     vdW  Elec       q    Type
REMARK                         _______ _______ _______ _____ _____    ______ ____
ROOT
ATOM      1  C   UNL     1       5.647   3.274  12.092  0.00  0.00    +0.000 C 
ATOM      2  C   UNL     1       5.990   3.802  13.456  0.00  0.00    +0.000 A 
ATOM      3  C   UNL     1       7.111   4.603  13.659  0.00  0.00    +0.000 A 
ATOM      4  C   UNL     1       7.440   5.087  14.932  0.00  0.00    +0.000 A 
ATOM      5  C   UNL     1       6.617   4.741  16.018  0.00  0.00    +0.000 A 
ATOM      6  C   UNL     1       5.476   3.951  15.848  0.00  0.00    +0.000 A 
ATOM      7  C   UNL     1       5.163   3.491  14.547  0.00  0.00    +0.000 A 
ATOM      8  C   UNL     1       4.856   3.822  17.131  0.00  0.00    +0.000 A 
ATOM      9  C   UNL     1       5.657   4.480  18.063  0.00  0.00    +0.000 A 
ATOM     10  C   UNL     1       5.511   4.654  19.539  0.00  0.00    +0.000 C 
ATOM     11  N   UNL     1       6.689   5.080  17.359  0.00  0.00    +0.000 N 
ENDROOT
BRANCH   8  12
ATOM     12  S   UNL     1       3.339   2.996  17.372  0.00  0.00    +0.000 S 
ATOM     13  O   UNL     1       2.513   3.285  16.217  0.00  0.00    +0.000 OA
ATOM     14  O   UNL     1       3.716   1.643  17.725  0.00  0.00    +0.000 OA
BRANCH  12  15
ATOM     15  C   UNL     1       2.578   3.760  18.778  0.00  0.00    +0.000 A 
ATOM     16  C   UNL     1       2.376   5.145  18.779  0.00  0.00    +0.000 A 
ATOM     17  C   UNL     1       1.839   5.758  19.912  0.00  0.00    +0.000 A 
ATOM     18  C   UNL     1       1.501   4.990  21.028  0.00  0.00    +0.000 A 
ATOM     19  C   UNL     1       1.669   3.605  20.999  0.00  0.00    +0.000 A 
ATOM     20 CL   UNL     1       1.240   2.667  22.375  0.00  0.00    +0.000 Cl
ATOM     21  C   UNL     1       2.196   2.979  19.872  0.00  0.00    +0.000 A 
ENDBRANCH  12  15
ENDBRANCH   8  12
BRANCH  11  22
ATOM     22  C   UNL     1       7.660   6.022  17.925  0.00  0.00    +0.000 C 
BRANCH  22  23
ATOM     23  C   UNL     1       7.418   7.487  17.654  0.00  0.00    +0.000 C 
ATOM     24  O   UNL     1       6.444   7.873  17.012  0.00  0.00    +0.000 OA
BRANCH  23  25
ATOM     25  O   UNL     1       8.322   8.370  18.129  0.00  0.00    +0.000 OA
ATOM     26  H   UNL     1       8.150   8.729  19.023  0.00  0.00    +0.000 HD
ENDBRANCH  23  25
ENDBRANCH  22  23
ENDBRANCH  11  22
TORSDOF 5
ENDMDL
MODEL 3
REMARK VINA RESULT:      -7.4      0.883      1.214
REMARK  Name = 
REMARK  7 active torsions:
REMARK  status: ('A' for Active; 'I' for Inactive)
REMARK    1  A    between atoms: C_1  and  C_2
REMARK    2  A    between atoms: C_8  and  S_9
REMARK    3  A    between atoms: S_9  and  C_12
REMARK    4  A    between atoms: C_19  and  C_20
REMARK    5  A    between atoms: N_21  and  C_22
REMARK    6  A    between atoms: C_22  and  C_23
REMARK    7  A    between atoms: C_23  and  O_25
REMARK                            x       y       z     vdW  Elec       q    Type
REMARK                         _______ _______ _______ _____ _____    ______ ____
ROOT
ATOM      1  C   UNL     1       4.919   3.377  12.014  0.00  0.00    +0.000 C 
ATOM      2  C   UNL     1       5.500   3.831  13.323  0.00  0.00    +0.000 A 
ATOM      3  C   UNL     1       6.745   4.453  13.383  0.00  0.00    +0.000 A 
ATOM      4  C   UNL     1       7.294   4.867  14.604  0.00  0.00    +0.000 A 
ATOM      5  C   UNL     1       6.566   4.635  15.784  0.00  0.00    +0.000 A 
ATOM      6  C   UNL     1       5.307   4.027  15.759  0.00  0.00    +0.000 A 
ATOM      7  C   UNL     1       4.774   3.634  14.508  0.00  0.00    +0.000 A 
ATOM      8  C   UNL     1       4.835   3.976  17.109  0.00  0.00    +0.000 A 
ATOM      9  C   UNL     1       5.831   4.495  17.932  0.00  0.00    +0.000 A 
ATOM     10  C   UNL     1       5.893   4.672  19.414  0.00  0.00    +0.000 C 
ATOM     11  N   UNL     1       6.849   4.943  17.104  0.00  0.00    +0.000 N 
ENDROOT
BRANCH   8  12
ATOM     12  S   UNL     1       3.251   3.384  17.537  0.00  0.00    +0.000 S 
ATOM     13  O   UNL     1       2.412   3.539  16.366  0.00  0.00    +0.000 OA
ATOM     14  O   UNL     1       3.499   2.089  18.135  0.00  0.00    +0.000 OA
BRANCH  12  15
ATOM     15  C   UNL     1       2.635   4.480  18.786  0.00  0.00    +0.000 A 
ATOM     16  C   UNL     1       2.221   3.954  20.015  0.00  0.00    +0.000 A 
ATOM     17  C   UNL     1       1.673   4.806  20.975  0.00  0.00    +0.000 A 
ATOM     18  C   UNL     1       1.549   6.171  20.709  0.00  0.00    +0.000 A 
ATOM     19  C   UNL     1       2.003   6.689  19.495  0.00  0.00    +0.000 A 
ATOM     20 CL   UNL     1       1.855   8.374  19.181  0.00  0.00    +0.000 Cl
ATOM     21  C   UNL     1       2.560   5.852  18.531  0.00  0.00    +0.000 A 
ENDBRANCH  12  15
ENDBRANCH   8  12
BRANCH  11  22
ATOM     22  C   UNL     1       8.012   5.722  17.542  0.00  0.00    +0.000 C 
BRANCH  22  23
ATOM     23  C   UNL     1       7.782   7.190  17.806  0.00  0.00    +0.000 C 
ATOM     24  O   UNL     1       7.076   7.876  17.070  0.00  0.00    +0.000 OA
BRANCH  23  25
ATOM     25  O   UNL     1       8.393   7.737  18.878  0.00  0.00    +0.000 OA
ATOM     26  H   UNL     1       9.335   7.501  19.009  0.00  0.00    +0.000 HD
ENDBRANCH  23  25
ENDBRANCH  22  23
ENDBRANCH  11  22
TORSDOF 5
ENDMDL
MODEL 4
REMARK VINA RESULT:      -7.3      1.592      1.966
REMARK  Name = 
REMARK  7 active torsions:
REMARK  status: ('A' for Active; 'I' for Inactive)
REMARK    1  A    between atoms: C_1  and  C_2
REMARK    2  A    between atoms: C_8  and  S_9
REMARK    3  A    between atoms: S_9  and  C_12
REMARK    4  A    between atoms: C_19  and  C_20
REMARK    5  A    between atoms: N_21  and  C_22
REMARK    6  A    between atoms: C_22  and  C_23
REMARK    7  A    between atoms: C_23  and  O_25
REMARK                            x       y       z     vdW  Elec       q    Type
REMARK                         _______ _______ _______ _____ _____    ______ ____
ROOT
ATOM      1  C   UNL     1       5.354   3.454  12.390  0.00  0.00    +0.000 C 
ATOM      2  C   UNL     1       5.769   3.995  13.729  0.00  0.00    +0.000 A 
ATOM      3  C   UNL     1       7.058   4.478  13.943  0.00  0.00    +0.000 A 
ATOM      4  C   UNL     1       7.452   4.972  15.194  0.00  0.00    +0.000 A 
ATOM      5  C   UNL     1       6.519   4.966  16.245  0.00  0.00    +0.000 A 
ATOM      6  C   UNL     1       5.212   4.503  16.062  0.00  0.00    +0.000 A 
ATOM      7  C   UNL     1       4.842   4.024  14.782  0.00  0.00    +0.000 A 
ATOM      8  C   UNL     1       4.526   4.668  17.306  0.00  0.00    +0.000 A 
ATOM      9  C   UNL     1       5.436   5.168  18.235  0.00  0.00    +0.000 A 
ATOM     10  C   UNL     1       5.280   5.514  19.680  0.00  0.00    +0.000 C 
ATOM     11  N   UNL     1       6.623   5.397  17.558  0.00  0.00    +0.000 N 
ENDROOT
BRANCH   8  12
ATOM     12  S   UNL     1       2.831   4.311  17.508  0.00  0.00    +0.000 S 
ATOM     13  O   UNL     1       2.134   5.581  17.552  0.00  0.00    +0.000 OA
ATOM     14  O   UNL     1       2.548   3.317  16.494  0.00  0.00    +0.000 OA
BRANCH  12  15
ATOM     15  C   UNL     1       2.671   3.558  19.105  0.00  0.00    +0.000 A 
ATOM     16  C   UNL     1       1.529   3.814  19.871  0.00  0.00    +0.000 A 
ATOM     17  C   UNL     1       1.431   3.277  21.155  0.00  0.00    +0.000 A 
ATOM     18  C   UNL     1       2.464   2.485  21.662  0.00  0.00    +0.000 A 
ATOM     19  C   UNL     1       3.579   2.204  20.872  0.00  0.00    +0.000 A 
ATOM     20 CL   UNL     1       4.841   1.219  21.501  0.00  0.00    +0.000 Cl
ATOM     21  C   UNL     1       3.686   2.726  19.585  0.00  0.00    +0.000 A 
ENDBRANCH  12  15
ENDBRANCH   8  12
BRANCH  11  22
ATOM     22  C   UNL     1       7.791   6.090  18.112  0.00  0.00    +0.000 C 
BRANCH  22  23
ATOM     23  C   UNL     1       7.838   7.587  17.933  0.00  0.00    +0.000 C 
ATOM     24  O   UNL     1       7.174   8.155  17.068  0.00  0.00    +0.000 OA
BRANCH  23  25
ATOM     25  O   UNL     1       8.651   8.291  18.749  0.00  0.00    +0.000 OA
ATOM     26  H   UNL     1       9.006   7.813  19.526  0.00  0.00    +0.000 HD
ENDBRANCH  23  25
ENDBRANCH  22  23
ENDBRANCH  11  22
TORSDOF 5
ENDMDL
MODEL 5
REMARK VINA RESULT:      -7.1      9.197     11.700
REMARK  Name = 
REMARK  7 active torsions:
REMARK  status: ('A' for Active; 'I' for Inactive)
REMARK    1  A    between atoms: C_1  and  C_2
REMARK    2  A    between atoms: C_8  and  S_9
REMARK    3  A    between atoms: S_9  and  C_12
REMARK    4  A    between atoms: C_19  and  C_20
REMARK    5  A    between atoms: N_21  and  C_22
REMARK    6  A    between atoms: C_22  and  C_23
REMARK    7  A    between atoms: C_23  and  O_25
REMARK                            x       y       z     vdW  Elec       q    Type
REMARK                         _______ _______ _______ _____ _____    ______ ____
ROOT
ATOM      1  C   UNL     1      -2.637  10.102  15.344  0.00  0.00    +0.000 C 
ATOM      2  C   UNL     1      -3.268  10.787  16.524  0.00  0.00    +0.000 A 
ATOM      3  C   UNL     1      -4.651  10.894  16.642  0.00  0.00    +0.000 A 
ATOM      4  C   UNL     1      -5.241  11.542  17.735  0.00  0.00    +0.000 A 
ATOM      5  C   UNL     1      -4.406  12.097  18.720  0.00  0.00    +0.000 A 
ATOM      6  C   UNL     1      -3.013  11.995  18.642  0.00  0.00    +0.000 A 
ATOM      7  C   UNL     1      -2.450  11.321  17.532  0.00  0.00    +0.000 A 
ATOM      8  C   UNL     1      -2.477  12.627  19.808  0.00  0.00    +0.000 A 
ATOM      9  C   UNL     1      -3.539  13.151  20.540  0.00  0.00    +0.000 A 
ATOM     10  C   UNL     1      -3.570  13.920  21.820  0.00  0.00    +0.000 C 
ATOM     11  N   UNL     1      -4.705  12.769  19.894  0.00  0.00    +0.000 N 
ENDROOT
BRANCH   8  12
ATOM     12  S   UNL     1      -0.772  12.646  20.175  0.00  0.00    +0.000 S 
ATOM     13  O   UNL     1      -0.068  12.482  18.918  0.00  0.00    +0.000 OA
ATOM     14  O   UNL     1      -0.594  13.819  21.004  0.00  0.00    +0.000 OA
BRANCH  12  15
ATOM     15  C   UNL     1      -0.461  11.202  21.154  0.00  0.00    +0.000 A 
ATOM     16  C   UNL     1      -0.927  11.157  22.473  0.00  0.00    +0.000 A 
ATOM     17  C   UNL     1      -0.626  10.050  23.268  0.00  0.00    +0.000 A 
ATOM     18  C   UNL     1       0.127   8.998  22.744  0.00  0.00    +0.000 A 
ATOM     19  C   UNL     1       0.551   9.037  21.415  0.00  0.00    +0.000 A 
ATOM     20 CL   UNL     1       1.470   7.731  20.776  0.00  0.00    +0.000 Cl
ATOM     21  C   UNL     1       0.251  10.131  20.607  0.00  0.00    +0.000 A 
ENDBRANCH  12  15
ENDBRANCH   8  12
BRANCH  11  22
ATOM     22  C   UNL     1      -6.061  12.954  20.421  0.00  0.00    +0.000 C 
BRANCH  22  23
ATOM     23  C   UNL     1      -6.620  11.830  21.259  0.00  0.00    +0.000 C 
ATOM     24  O   UNL     1      -6.899  10.738  20.771  0.00  0.00    +0.000 OA
BRANCH  23  25
ATOM     25  O   UNL     1      -6.821  12.068  22.573  0.00  0.00    +0.000 OA
ATOM     26  H   UNL     1      -6.223  11.604  23.195  0.00  0.00    +0.000 HD
ENDBRANCH  23  25
ENDBRANCH  22  23
ENDBRANCH  11  22
TORSDOF 5
ENDMDL
MODEL 6
REMARK VINA RESULT:      -7.0     10.115     12.914
REMARK  Name = 
REMARK  7 active torsions:
REMARK  status: ('A' for Active; 'I' for Inactive)
REMARK    1  A    between atoms: C_1  and  C_2
REMARK    2  A    between atoms: C_8  and  S_9
REMARK    3  A    between atoms: S_9  and  C_12
REMARK    4  A    between atoms: C_19  and  C_20
REMARK    5  A    between atoms: N_21  and  C_22
REMARK    6  A    between atoms: C_22  and  C_23
REMARK    7  A    between atoms: C_23  and  O_25
REMARK                            x       y       z     vdW  Elec       q    Type
REMARK                         _______ _______ _______ _____ _____    ______ ____
ROOT
ATOM      1  C   UNL     1      -3.926  11.265  17.562  0.00  0.00    +0.000 C 
ATOM      2  C   UNL     1      -4.232  11.914  18.882  0.00  0.00    +0.000 A 
ATOM      3  C   UNL     1      -5.546  12.102  19.306  0.00  0.00    +0.000 A 
ATOM      4  C   UNL     1      -5.835  12.717  20.531  0.00  0.00    +0.000 A 
ATOM      5  C   UNL     1      -4.767  13.157  21.333  0.00  0.00    +0.000 A 
ATOM      6  C   UNL     1      -3.436  12.971  20.945  0.00  0.00    +0.000 A 
ATOM      7  C   UNL     1      -3.178  12.332  19.709  0.00  0.00    +0.000 A 
ATOM      8  C   UNL     1      -2.614  13.495  21.993  0.00  0.00    +0.000 A 
ATOM      9  C   UNL     1      -3.450  14.040  22.964  0.00  0.00    +0.000 A 
ATOM     10  C   UNL     1      -3.145  14.729  24.254  0.00  0.00    +0.000 C 
ATOM     11  N   UNL     1      -4.753  13.773  22.573  0.00  0.00    +0.000 N 
ENDROOT
BRANCH   8  12
ATOM     12  S   UNL     1      -0.873  13.383  21.976  0.00  0.00    +0.000 S 
ATOM     13  O   UNL     1      -0.423  13.986  20.737  0.00  0.00    +0.000 OA
ATOM     14  O   UNL     1      -0.466  13.894  23.268  0.00  0.00    +0.000 OA
BRANCH  12  15
ATOM     15  C   UNL     1      -0.490  11.654  21.900  0.00  0.00    +0.000 A 
ATOM     16  C   UNL     1      -0.810  10.834  22.987  0.00  0.00    +0.000 A 
ATOM     17  C   UNL     1      -0.449   9.486  22.958  0.00  0.00    +0.000 A 
ATOM     18  C   UNL     1       0.218   8.966  21.847  0.00  0.00    +0.000 A 
ATOM     19  C   UNL     1       0.495   9.785  20.752  0.00  0.00    +0.000 A 
ATOM     20 CL   UNL     1       1.308   9.132  19.384  0.00  0.00    +0.000 Cl
ATOM     21  C   UNL     1       0.133  11.130  20.764  0.00  0.00    +0.000 A 
ENDBRANCH  12  15
ENDBRANCH   8  12
BRANCH  11  22
ATOM     22  C   UNL     1      -5.946  14.011  23.394  0.00  0.00    +0.000 C 
BRANCH  22  23
ATOM     23  C   UNL     1      -6.542  12.809  24.084  0.00  0.00    +0.000 C 
ATOM     24  O   UNL     1      -5.841  11.889  24.499  0.00  0.00    +0.000 OA
BRANCH  23  25
ATOM     25  O   UNL     1      -7.884  12.766  24.220  0.00  0.00    +0.000 OA
ATOM     26  H   UNL     1      -8.301  11.883  24.142  0.00  0.00    +0.000 HD
ENDBRANCH  23  25
ENDBRANCH  22  23
ENDBRANCH  11  22
TORSDOF 5
ENDMDL
MODEL 7
REMARK VINA RESULT:      -6.9      3.279      6.461
REMARK  Name = 
REMARK  7 active torsions:
REMARK  status: ('A' for Active; 'I' for Inactive)
REMARK    1  A    between atoms: C_1  and  C_2
REMARK    2  A    between atoms: C_8  and  S_9
REMARK    3  A    between atoms: S_9  and  C_12
REMARK    4  A    between atoms: C_19  and  C_20
REMARK    5  A    between atoms: N_21  and  C_22
REMARK    6  A    between atoms: C_22  and  C_23
REMARK    7  A    between atoms: C_23  and  O_25
REMARK                            x       y       z     vdW  Elec       q    Type
REMARK                         _______ _______ _______ _____ _____    ______ ____
ROOT
ATOM      1  C   UNL     1       2.283   9.377  18.771  0.00  0.00    +0.000 C 
ATOM      2  C   UNL     1       2.230   7.893  19.003  0.00  0.00    +0.000 A 
ATOM      3  C   UNL     1       1.297   7.332  19.871  0.00  0.00    +0.000 A 
ATOM      4  C   UNL     1       1.252   5.950  20.099  0.00  0.00    +0.000 A 
ATOM      5  C   UNL     1       2.181   5.128  19.437  0.00  0.00    +0.000 A 
ATOM      6  C   UNL     1       3.122   5.656  18.547  0.00  0.00    +0.000 A 
ATOM      7  C   UNL     1       3.130   7.054  18.328  0.00  0.00    +0.000 A 
ATOM      8  C   UNL     1       3.877   4.557  18.028  0.00  0.00    +0.000 A 
ATOM      9  C   UNL     1       3.427   3.395  18.651  0.00  0.00    +0.000 A 
ATOM     10  C   UNL     1       3.859   1.971  18.512  0.00  0.00    +0.000 C 
ATOM     11  N   UNL     1       2.359   3.754  19.458  0.00  0.00    +0.000 N 
ENDROOT
BRANCH   8  12
ATOM     12  S   UNL     1       5.101   4.744  16.800  0.00  0.00    +0.000 S 
ATOM     13  O   UNL     1       5.592   3.417  16.487  0.00  0.00    +0.000 OA
ATOM     14  O   UNL     1       4.483   5.588  15.800  0.00  0.00    +0.000 OA
BRANCH  12  15
ATOM     15  C   UNL     1       6.429   5.639  17.560  0.00  0.00    +0.000 A 
ATOM     16  C   UNL     1       7.220   5.004  18.524  0.00  0.00    +0.000 A 
ATOM     17  C   UNL     1       8.223   5.727  19.171  0.00  0.00    +0.000 A 
ATOM     18  C   UNL     1       8.436   7.069  18.850  0.00  0.00    +0.000 A 
ATOM     19  C   UNL     1       7.667   7.679  17.858  0.00  0.00    +0.000 A 
ATOM     20 CL   UNL     1       7.943   9.330  17.462  0.00  0.00    +0.000 Cl
ATOM     21  C   UNL     1       6.668   6.968  17.197  0.00  0.00    +0.000 A 
ENDBRANCH  12  15
ENDBRANCH   8  12
BRANCH  11  22
ATOM     22  C   UNL     1       1.475   2.815  20.156  0.00  0.00    +0.000 C 
BRANCH  22  23
ATOM     23  C   UNL     1       1.803   2.524  21.600  0.00  0.00    +0.000 C 
ATOM     24  O   UNL     1       2.962   2.403  21.987  0.00  0.00    +0.000 OA
BRANCH  23  25
ATOM     25  O   UNL     1       0.772   2.383  22.460  0.00  0.00    +0.000 OA
ATOM     26  H   UNL     1       0.993   2.426  23.414  0.00  0.00    +0.000 HD
ENDBRANCH  23  25
ENDBRANCH  22  23
ENDBRANCH  11  22
TORSDOF 5
ENDMDL
MODEL 8
REMARK VINA RESULT:      -6.9      3.200      6.621
REMARK  Name = 
REMARK  7 active torsions:
REMARK  status: ('A' for Active; 'I' for Inactive)
REMARK    1  A    between atoms: C_1  and  C_2
REMARK    2  A    between atoms: C_8  and  S_9
REMARK    3  A    between atoms: S_9  and  C_12
REMARK    4  A    between atoms: C_19  and  C_20
REMARK    5  A    between atoms: N_21  and  C_22
REMARK    6  A    between atoms: C_22  and  C_23
REMARK    7  A    between atoms: C_23  and  O_25
REMARK                            x       y       z     vdW  Elec       q    Type
REMARK                         _______ _______ _______ _____ _____    ______ ____
ROOT
ATOM      1  C   UNL     1       2.499   9.404  17.556  0.00  0.00    +0.000 C 
ATOM      2  C   UNL     1       2.582   8.008  18.106  0.00  0.00    +0.000 A 
ATOM      3  C   UNL     1       1.478   7.400  18.699  0.00  0.00    +0.000 A 
ATOM      4  C   UNL     1       1.555   6.103  19.223  0.00  0.00    +0.000 A 
ATOM      5  C   UNL     1       2.781   5.419  19.150  0.00  0.00    +0.000 A 
ATOM      6  C   UNL     1       3.906   5.994  18.549  0.00  0.00    +0.000 A 
ATOM      7  C   UNL     1       3.789   7.299  18.015  0.00  0.00    +0.000 A 
ATOM      8  C   UNL     1       4.959   5.028  18.612  0.00  0.00    +0.000 A 
ATOM      9  C   UNL     1       4.481   3.914  19.298  0.00  0.00    +0.000 A 
ATOM     10  C   UNL     1       5.140   2.626  19.669  0.00  0.00    +0.000 C 
ATOM     11  N   UNL     1       3.140   4.147  19.565  0.00  0.00    +0.000 N 
ENDROOT
BRANCH   8  12
ATOM     12  S   UNL     1       6.525   5.285  17.887  0.00  0.00    +0.000 S 
ATOM     13  O   UNL     1       6.782   6.711  17.933  0.00  0.00    +0.000 OA
ATOM     14  O   UNL     1       7.390   4.330  18.547  0.00  0.00    +0.000 OA
BRANCH  12  15
ATOM     15  C   UNL     1       6.362   4.825  16.183  0.00  0.00    +0.000 A 
ATOM     16  C   UNL     1       5.365   3.917  15.812  0.00  0.00    +0.000 A 
ATOM     17  C   UNL     1       5.277   3.502  14.482  0.00  0.00    +0.000 A 
ATOM     18  C   UNL     1       6.174   3.999  13.535  0.00  0.00    +0.000 A 
ATOM     19  C   UNL     1       7.138   4.935  13.910  0.00  0.00    +0.000 A 
ATOM     20 CL   UNL     1       8.233   5.549  12.734  0.00  0.00    +0.000 Cl
ATOM     21  C   UNL     1       7.232   5.365  15.232  0.00  0.00    +0.000 A 
ENDBRANCH  12  15
ENDBRANCH   8  12
BRANCH  11  22
ATOM     22  C   UNL     1       2.205   3.159  20.112  0.00  0.00    +0.000 C 
BRANCH  22  23
ATOM     23  C   UNL     1       1.446   2.320  19.113  0.00  0.00    +0.000 C 
ATOM     24  O   UNL     1       0.240   2.467  18.930  0.00  0.00    +0.000 OA
BRANCH  23  25
ATOM     25  O   UNL     1       2.136   1.382  18.429  0.00  0.00    +0.000 OA
ATOM     26  H   UNL     1       1.615   0.633  18.073  0.00  0.00    +0.000 HD
ENDBRANCH  23  25
ENDBRANCH  22  23
ENDBRANCH  11  22
TORSDOF 5
ENDMDL
MODEL 9
REMARK VINA RESULT:      -6.9      8.601     11.066
REMARK  Name = 
REMARK  7 active torsions:
REMARK  status: ('A' for Active; 'I' for Inactive)
REMARK    1  A    between atoms: C_1  and  C_2
REMARK    2  A    between atoms: C_8  and  S_9
REMARK    3  A    between atoms: S_9  and  C_12
REMARK    4  A    between atoms: C_19  and  C_20
REMARK    5  A    between atoms: N_21  and  C_22
REMARK    6  A    between atoms: C_22  and  C_23
REMARK    7  A    between atoms: C_23  and  O_25
REMARK                            x       y       z     vdW  Elec       q    Type
REMARK                         _______ _______ _______ _____ _____    ______ ____
ROOT
ATOM      1  C   UNL     1      -2.618   9.849  16.099  0.00  0.00    +0.000 C 
ATOM      2  C   UNL     1      -2.870  10.722  17.296  0.00  0.00    +0.000 A 
ATOM      3  C   UNL     1      -4.164  11.060  17.683  0.00  0.00    +0.000 A 
ATOM      4  C   UNL     1      -4.402  11.884  18.791  0.00  0.00    +0.000 A 
ATOM      5  C   UNL     1      -3.300  12.379  19.511  0.00  0.00    +0.000 A 
ATOM      6  C   UNL     1      -1.988  12.048  19.159  0.00  0.00    +0.000 A 
ATOM      7  C   UNL     1      -1.783  11.202  18.044  0.00  0.00    +0.000 A 
ATOM      8  C   UNL     1      -1.123  12.682  20.107  0.00  0.00    +0.000 A 
ATOM      9  C   UNL     1      -1.914  13.430  20.976  0.00  0.00    +0.000 A 
ATOM     10  C   UNL     1      -1.554  14.298  22.137  0.00  0.00    +0.000 C 
ATOM     11  N   UNL     1      -3.236  13.186  20.634  0.00  0.00    +0.000 N 
ENDROOT
BRANCH   8  12
ATOM     12  S   UNL     1       0.606  12.459  20.110  0.00  0.00    +0.000 S 
ATOM     13  O   UNL     1       1.085  12.860  18.802  0.00  0.00    +0.000 OA
ATOM     14  O   UNL     1       1.053  13.111  21.322  0.00  0.00    +0.000 OA
BRANCH  12  15
ATOM     15  C   UNL     1       0.879  10.714  20.267  0.00  0.00    +0.000 A 
ATOM     16  C   UNL     1       0.634  10.092  21.496  0.00  0.00    +0.000 A 
ATOM     17  C   UNL     1       0.911   8.732  21.642  0.00  0.00    +0.000 A 
ATOM     18  C   UNL     1       1.421   8.003  20.565  0.00  0.00    +0.000 A 
ATOM     19  C   UNL     1       1.622   8.627  19.333  0.00  0.00    +0.000 A 
ATOM     20 CL   UNL     1       2.241   7.719  18.010  0.00  0.00    +0.000 Cl
ATOM     21  C   UNL     1       1.342   9.982  19.171  0.00  0.00    +0.000 A 
ENDBRANCH  12  15
ENDBRANCH   8  12
BRANCH  11  22
ATOM     22  C   UNL     1      -4.402  13.630  21.405  0.00  0.00    +0.000 C 
BRANCH  22  23
ATOM     23  C   UNL     1      -4.986  12.637  22.380  0.00  0.00    +0.000 C 
ATOM     24  O   UNL     1      -6.015  12.015  22.130  0.00  0.00    +0.000 OA
BRANCH  23  25
ATOM     25  O   UNL     1      -4.344  12.461  23.555  0.00  0.00    +0.000 OA
ATOM     26  H   UNL     1      -3.846  11.624  23.657  0.00  0.00    +0.000 HD
ENDBRANCH  23  25
ENDBRANCH  22  23
ENDBRANCH  11  22
TORSDOF 5
ENDMDL
