MODEL 1
REMARK VINA RESULT:      -7.6      0.000      0.000
REMARK  Name = 
REMARK  8 active torsions:
REMARK  status: ('A' for Active; 'I' for Inactive)
REMARK    1  A    between atoms: N_1  and  C_2
REMARK    2  A    between atoms: C_2  and  C_3
REMARK    3  A    between atoms: C_3  and  O_5
REMARK    4  A    between atoms: C_7  and  C_8
REMARK    5  A    between atoms: C_8  and  O_10
REMARK    6  A    between atoms: N_11  and  C_12
REMARK    7  A    between atoms: C_12  and  C_13
REMARK    8  A    between atoms: C_16  and  N_17
REMARK                            x       y       z     vdW  Elec       q    Type
REMARK                         _______ _______ _______ _____ _____    ______ ____
ROOT
ATOM      1  C   UNL     1       1.991   3.799  18.764  0.00  0.00    +0.000 C 
ATOM      2  C   UNL     1       1.686   4.394  20.152  0.00  0.00    +0.000 C 
ATOM      3  C   UNL     1       2.754   5.484  20.330  0.00  0.00    +0.000 C 
ATOM      4  N   UNL     1       3.943   4.900  19.687  0.00  0.00    +0.000 NA
ATOM      5  C   UNL     1       3.537   3.826  18.761  0.00  0.00    +0.000 C 
ENDROOT
BRANCH   1   6
ATOM      6  N   UNL     1       1.477   4.652  17.682  0.00  0.00    +0.000 NA
ATOM      7  H   UNL     1       1.111   4.131  16.861  0.00  0.00    +0.000 HD
ATOM      8  H   UNL     1       2.193   5.358  17.392  0.00  0.00    +0.000 HD
ENDBRANCH   1   6
BRANCH   1   9
ATOM      9  C   UNL     1       1.421   2.386  18.600  0.00  0.00    +0.000 C 
ATOM     10  O   UNL     1       0.215   2.234  18.498  0.00  0.00    +0.000 OA
BRANCH   9  11
ATOM     11  O   UNL     1       2.203   1.281  18.577  0.00  0.00    +0.000 OA
ATOM     12  H   UNL     1       1.922   0.426  18.227  0.00  0.00    +0.000 HD
ENDBRANCH   9  11
ENDBRANCH   1   9
BRANCH   3  13
ATOM     13  C   UNL     1       2.316   6.833  19.783  0.00  0.00    +0.000 C 
ATOM     14  O   UNL     1       2.411   7.111  18.599  0.00  0.00    +0.000 OA
BRANCH  13  15
ATOM     15  O   UNL     1       1.880   7.783  20.637  0.00  0.00    +0.000 OA
ATOM     16  H   UNL     1       1.075   7.660  21.161  0.00  0.00    +0.000 HD
ENDBRANCH  13  15
ENDBRANCH   3  13
BRANCH   4  17
ATOM     17  C   UNL     1       5.139   5.681  19.316  0.00  0.00    +0.000 C 
BRANCH  17  18
ATOM     18  C   UNL     1       5.614   5.444  17.893  0.00  0.00    +0.000 A 
ATOM     19  C   UNL     1       4.959   6.044  16.801  0.00  0.00    +0.000 A 
ATOM     20  C   UNL     1       5.427   5.844  15.495  0.00  0.00    +0.000 A 
ATOM     21  C   UNL     1       6.571   5.063  15.259  0.00  0.00    +0.000 A 
ATOM     22  C   UNL     1       7.230   4.474  16.351  0.00  0.00    +0.000 A 
ATOM     23  C   UNL     1       6.747   4.658  17.653  0.00  0.00    +0.000 A 
BRANCH  21  24
ATOM     24  N   UNL     1       7.072   4.874  13.930  0.00  0.00    +0.000 N 
ATOM     25  O   UNL     1       7.995   5.522  13.531  0.00  0.00    +0.000 OA
ATOM     26  O   UNL     1       6.523   3.980  13.132  0.00  0.00    +0.000 OA
ENDBRANCH  21  24
ENDBRANCH  17  18
ENDBRANCH   4  17
TORSDOF 8
ENDMDL
MODEL 2
REMARK VINA RESULT:      -7.5      0.119      1.223
REMARK  Name = 
REMARK  8 active torsions:
REMARK  status: ('A' for Active; 'I' for Inactive)
REMARK    1  A    between atoms: N_1  and  C_2
REMARK    2  A    between atoms: C_2  and  C_3
REMARK    3  A    between atoms: C_3  and  O_5
REMARK    4  A    between atoms: C_7  and  C_8
REMARK    5  A    between atoms: C_8  and  O_10
REMARK    6  A    between atoms: N_11  and  C_12
REMARK    7  A    between atoms: C_12  and  C_13
REMARK    8  A    between atoms: C_16  and  N_17
REMARK                            x       y       z     vdW  Elec       q    Type
REMARK                         _______ _______ _______ _____ _____    ______ ____
ROOT
ATOM      1  C   UNL     1       2.025   3.794  18.739  0.00  0.00    +0.000 C 
ATOM      2  C   UNL     1       1.731   4.344  20.147  0.00  0.00    +0.000 C 
ATOM      3  C   UNL     1       2.778   5.452  20.338  0.00  0.00    +0.000 C 
ATOM      4  N   UNL     1       3.968   4.913  19.658  0.00  0.00    +0.000 NA
ATOM      5  C   UNL     1       3.570   3.857  18.709  0.00  0.00    +0.000 C 
ENDROOT
BRANCH   1   6
ATOM      6  N   UNL     1       1.473   4.664  17.690  0.00  0.00    +0.000 NA
ATOM      7  H   UNL     1       2.097   4.800  16.871  0.00  0.00    +0.000 HD
ATOM      8  H   UNL     1       1.170   5.583  18.090  0.00  0.00    +0.000 HD
ENDBRANCH   1   6
BRANCH   1   9
ATOM      9  C   UNL     1       1.484   2.374  18.545  0.00  0.00    +0.000 C 
ATOM     10  O   UNL     1       0.281   2.199  18.440  0.00  0.00    +0.000 OA
BRANCH   9  11
ATOM     11  O   UNL     1       2.288   1.286  18.498  0.00  0.00    +0.000 OA
ATOM     12  H   UNL     1       2.697   0.881  19.274  0.00  0.00    +0.000 HD
ENDBRANCH   9  11
ENDBRANCH   1   9
BRANCH   3  13
ATOM     13  C   UNL     1       2.300   6.806  19.836  0.00  0.00    +0.000 C 
ATOM     14  O   UNL     1       2.384   7.124  18.662  0.00  0.00    +0.000 OA
BRANCH  13  15
ATOM     15  O   UNL     1       1.841   7.714  20.722  0.00  0.00    +0.000 OA
ATOM     16  H   UNL     1       1.280   8.453  20.442  0.00  0.00    +0.000 HD
ENDBRANCH  13  15
ENDBRANCH   3  13
BRANCH   4  17
ATOM     17  C   UNL     1       5.139   5.731  19.289  0.00  0.00    +0.000 C 
BRANCH  17  18
ATOM     18  C   UNL     1       5.637   5.493  17.874  0.00  0.00    +0.000 A 
ATOM     19  C   UNL     1       6.727   4.639  17.624  0.00  0.00    +0.000 A 
ATOM     20  C   UNL     1       7.156   4.400  16.310  0.00  0.00    +0.000 A 
ATOM     21  C   UNL     1       6.488   4.991  15.223  0.00  0.00    +0.000 A 
ATOM     22  C   UNL     1       5.394   5.834  15.475  0.00  0.00    +0.000 A 
ATOM     23  C   UNL     1       4.981   6.088  16.789  0.00  0.00    +0.000 A 
BRANCH  21  24
ATOM     24  N   UNL     1       6.904   4.733  13.877  0.00  0.00    +0.000 N 
ATOM     25  O   UNL     1       6.453   3.806  13.270  0.00  0.00    +0.000 OA
ATOM     26  O   UNL     1       7.785   5.517  13.289  0.00  0.00    +0.000 OA
ENDBRANCH  21  24
ENDBRANCH  17  18
ENDBRANCH   4  17
TORSDOF 8
ENDMDL
MODEL 3
REMARK VINA RESULT:      -7.2      2.815      6.834
REMARK  Name = 
REMARK  8 active torsions:
REMARK  status: ('A' for Active; 'I' for Inactive)
REMARK    1  A    between atoms: N_1  and  C_2
REMARK    2  A    between atoms: C_2  and  C_3
REMARK    3  A    between atoms: C_3  and  O_5
REMARK    4  A    between atoms: C_7  and  C_8
REMARK    5  A    between atoms: C_8  and  O_10
REMARK    6  A    between atoms: N_11  and  C_12
REMARK    7  A    between atoms: C_12  and  C_13
REMARK    8  A    between atoms: C_16  and  N_17
REMARK                            x       y       z     vdW  Elec       q    Type
REMARK                         _______ _______ _______ _____ _____    ______ ____
ROOT
ATOM      1  C   UNL     1       5.919   5.054  17.055  0.00  0.00    +0.000 C 
ATOM      2  C   UNL     1       6.246   5.099  18.559  0.00  0.00    +0.000 C 
ATOM      3  C   UNL     1       4.868   5.166  19.236  0.00  0.00    +0.000 C 
ATOM      4  N   UNL     1       4.081   6.004  18.316  0.00  0.00    +0.000 NA
ATOM      5  C   UNL     1       4.711   6.015  16.982  0.00  0.00    +0.000 C 
ENDROOT
BRANCH   1   6
ATOM      6  N   UNL     1       5.509   3.707  16.629  0.00  0.00    +0.000 NA
ATOM      7  H   UNL     1       4.584   3.405  16.992  0.00  0.00    +0.000 HD
ATOM      8  H   UNL     1       6.250   3.003  16.852  0.00  0.00    +0.000 HD
ENDBRANCH   1   6
BRANCH   1   9
ATOM      9  C   UNL     1       7.098   5.513  16.190  0.00  0.00    +0.000 C 
ATOM     10  O   UNL     1       7.610   6.599  16.402  0.00  0.00    +0.000 OA
BRANCH   9  11
ATOM     11  O   UNL     1       7.594   4.765  15.177  0.00  0.00    +0.000 OA
ATOM     12  H   UNL     1       7.093   4.082  14.712  0.00  0.00    +0.000 HD
ENDBRANCH   9  11
ENDBRANCH   1   9
BRANCH   3  13
ATOM     13  C   UNL     1       4.286   3.792  19.522  0.00  0.00    +0.000 C 
ATOM     14  O   UNL     1       3.162   3.649  19.976  0.00  0.00    +0.000 OA
BRANCH  13  15
ATOM     15  O   UNL     1       5.055   2.697  19.346  0.00  0.00    +0.000 OA
ATOM     16  H   UNL     1       5.269   2.106  20.083  0.00  0.00    +0.000 HD
ENDBRANCH  13  15
ENDBRANCH   3  13
BRANCH   4  17
ATOM     17  C   UNL     1       2.609   6.104  18.357  0.00  0.00    +0.000 C 
BRANCH  17  18
ATOM     18  C   UNL     1       2.096   7.416  18.922  0.00  0.00    +0.000 A 
ATOM     19  C   UNL     1       1.856   8.522  18.085  0.00  0.00    +0.000 A 
ATOM     20  C   UNL     1       1.350   9.718  18.614  0.00  0.00    +0.000 A 
ATOM     21  C   UNL     1       1.051   9.822  19.983  0.00  0.00    +0.000 A 
ATOM     22  C   UNL     1       1.281   8.714  20.815  0.00  0.00    +0.000 A 
ATOM     23  C   UNL     1       1.807   7.528  20.288  0.00  0.00    +0.000 A 
BRANCH  21  24
ATOM     24  N   UNL     1       0.510  11.032  20.528  0.00  0.00    +0.000 N 
ATOM     25  O   UNL     1       0.121  11.901  19.805  0.00  0.00    +0.000 OA
ATOM     26  O   UNL     1       0.431  11.198  21.833  0.00  0.00    +0.000 OA
ENDBRANCH  21  24
ENDBRANCH  17  18
ENDBRANCH   4  17
TORSDOF 8
ENDMDL
MODEL 4
REMARK VINA RESULT:      -7.2      2.565      6.763
REMARK  Name = 
REMARK  8 active torsions:
REMARK  status: ('A' for Active; 'I' for Inactive)
REMARK    1  A    between atoms: N_1  and  C_2
REMARK    2  A    between atoms: C_2  and  C_3
REMARK    3  A    between atoms: C_3  and  O_5
REMARK    4  A    between atoms: C_7  and  C_8
REMARK    5  A    between atoms: C_8  and  O_10
REMARK    6  A    between atoms: N_11  and  C_12
REMARK    7  A    between atoms: C_12  and  C_13
REMARK    8  A    between atoms: C_16  and  N_17
REMARK                            x       y       z     vdW  Elec       q    Type
REMARK                         _______ _______ _______ _____ _____    ______ ____
ROOT
ATOM      1  C   UNL     1       6.040   4.939  16.826  0.00  0.00    +0.000 C 
ATOM      2  C   UNL     1       6.443   4.723  18.297  0.00  0.00    +0.000 C 
ATOM      3  C   UNL     1       5.102   4.590  19.033  0.00  0.00    +0.000 C 
ATOM      4  N   UNL     1       4.230   5.540  18.322  0.00  0.00    +0.000 NA
ATOM      5  C   UNL     1       4.788   5.831  16.988  0.00  0.00    +0.000 C 
ENDROOT
BRANCH   1   6
ATOM      6  N   UNL     1       5.668   3.674  16.174  0.00  0.00    +0.000 NA
ATOM      7  H   UNL     1       5.881   3.636  15.158  0.00  0.00    +0.000 HD
ATOM      8  H   UNL     1       4.664   3.441  16.357  0.00  0.00    +0.000 HD
ENDBRANCH   1   6
BRANCH   1   9
ATOM      9  C   UNL     1       7.149   5.613  16.012  0.00  0.00    +0.000 C 
ATOM     10  O   UNL     1       7.684   6.620  16.445  0.00  0.00    +0.000 OA
BRANCH   9  11
ATOM     11  O   UNL     1       7.560   5.144  14.810  0.00  0.00    +0.000 OA
ATOM     12  H   UNL     1       7.646   4.206  14.595  0.00  0.00    +0.000 HD
ENDBRANCH   9  11
ENDBRANCH   1   9
BRANCH   3  13
ATOM     13  C   UNL     1       4.597   3.157  19.083  0.00  0.00    +0.000 C 
ATOM     14  O   UNL     1       3.736   2.750  18.321  0.00  0.00    +0.000 OA
BRANCH  13  15
ATOM     15  O   UNL     1       5.054   2.328  20.044  0.00  0.00    +0.000 OA
ATOM     16  H   UNL     1       4.448   1.810  20.594  0.00  0.00    +0.000 HD
ENDBRANCH  13  15
ENDBRANCH   3  13
BRANCH   4  17
ATOM     17  C   UNL     1       2.760   5.551  18.445  0.00  0.00    +0.000 C 
BRANCH  17  18
ATOM     18  C   UNL     1       2.195   6.861  18.964  0.00  0.00    +0.000 A 
ATOM     19  C   UNL     1       1.868   7.021  20.324  0.00  0.00    +0.000 A 
ATOM     20  C   UNL     1       1.378   8.247  20.797  0.00  0.00    +0.000 A 
ATOM     21  C   UNL     1       1.229   9.340  19.927  0.00  0.00    +0.000 A 
ATOM     22  C   UNL     1       1.566   9.181  18.572  0.00  0.00    +0.000 A 
ATOM     23  C   UNL     1       2.035   7.950  18.098  0.00  0.00    +0.000 A 
BRANCH  21  24
ATOM     24  N   UNL     1       0.753  10.603  20.407  0.00  0.00    +0.000 N 
ATOM     25  O   UNL     1       1.072  11.000  21.490  0.00  0.00    +0.000 OA
ATOM     26  O   UNL     1      -0.038  11.346  19.659  0.00  0.00    +0.000 OA
ENDBRANCH  21  24
ENDBRANCH  17  18
ENDBRANCH   4  17
TORSDOF 8
ENDMDL
MODEL 5
REMARK VINA RESULT:      -7.2      2.189      6.163
REMARK  Name = 
REMARK  8 active torsions:
REMARK  status: ('A' for Active; 'I' for Inactive)
REMARK    1  A    between atoms: N_1  and  C_2
REMARK    2  A    between atoms: C_2  and  C_3
REMARK    3  A    between atoms: C_3  and  O_5
REMARK    4  A    between atoms: C_7  and  C_8
REMARK    5  A    between atoms: C_8  and  O_10
REMARK    6  A    between atoms: N_11  and  C_12
REMARK    7  A    between atoms: C_12  and  C_13
REMARK    8  A    between atoms: C_16  and  N_17
REMARK                            x       y       z     vdW  Elec       q    Type
REMARK                         _______ _______ _______ _____ _____    ______ ____
ROOT
ATOM      1  C   UNL     1       6.295   4.717  15.582  0.00  0.00    +0.000 C 
ATOM      2  C   UNL     1       7.445   5.320  16.410  0.00  0.00    +0.000 C 
ATOM      3  C   UNL     1       6.734   6.028  17.572  0.00  0.00    +0.000 C 
ATOM      4  N   UNL     1       5.512   6.561  16.946  0.00  0.00    +0.000 NA
ATOM      5  C   UNL     1       5.229   5.831  15.696  0.00  0.00    +0.000 C 
ENDROOT
BRANCH   1   6
ATOM      6  N   UNL     1       5.784   3.477  16.186  0.00  0.00    +0.000 NA
ATOM      7  H   UNL     1       5.019   3.617  16.874  0.00  0.00    +0.000 HD
ATOM      8  H   UNL     1       6.564   2.914  16.600  0.00  0.00    +0.000 HD
ENDBRANCH   1   6
BRANCH   1   9
ATOM      9  C   UNL     1       6.707   4.433  14.134  0.00  0.00    +0.000 C 
ATOM     10  O   UNL     1       7.415   5.232  13.544  0.00  0.00    +0.000 OA
BRANCH   9  11
ATOM     11  O   UNL     1       6.304   3.328  13.464  0.00  0.00    +0.000 OA
ATOM     12  H   UNL     1       5.440   3.237  13.039  0.00  0.00    +0.000 HD
ENDBRANCH   9  11
ENDBRANCH   1   9
BRANCH   3  13
ATOM     13  C   UNL     1       6.508   5.117  18.767  0.00  0.00    +0.000 C 
ATOM     14  O   UNL     1       6.799   5.457  19.902  0.00  0.00    +0.000 OA
BRANCH  13  15
ATOM     15  O   UNL     1       6.045   3.865  18.566  0.00  0.00    +0.000 OA
ATOM     16  H   UNL     1       6.437   3.284  17.898  0.00  0.00    +0.000 HD
ENDBRANCH  13  15
ENDBRANCH   3  13
BRANCH   4  17
ATOM     17  C   UNL     1       4.347   7.048  17.710  0.00  0.00    +0.000 C 
BRANCH  17  18
ATOM     18  C   UNL     1       3.493   5.942  18.304  0.00  0.00    +0.000 A 
ATOM     19  C   UNL     1       3.263   5.869  19.691  0.00  0.00    +0.000 A 
ATOM     20  C   UNL     1       2.445   4.862  20.224  0.00  0.00    +0.000 A 
ATOM     21  C   UNL     1       1.823   3.927  19.379  0.00  0.00    +0.000 A 
ATOM     22  C   UNL     1       2.045   4.009  17.994  0.00  0.00    +0.000 A 
ATOM     23  C   UNL     1       2.880   5.002  17.467  0.00  0.00    +0.000 A 
BRANCH  21  24
ATOM     24  N   UNL     1       0.965   2.911  19.912  0.00  0.00    +0.000 N 
ATOM     25  O   UNL     1       0.240   2.290  19.192  0.00  0.00    +0.000 OA
ATOM     26  O   UNL     1       0.970   2.645  21.203  0.00  0.00    +0.000 OA
ENDBRANCH  21  24
ENDBRANCH  17  18
ENDBRANCH   4  17
TORSDOF 8
ENDMDL
MODEL 6
REMARK VINA RESULT:      -7.1      2.502      6.733
REMARK  Name = 
REMARK  8 active torsions:
REMARK  status: ('A' for Active; 'I' for Inactive)
REMARK    1  A    between atoms: N_1  and  C_2
REMARK    2  A    between atoms: C_2  and  C_3
REMARK    3  A    between atoms: C_3  and  O_5
REMARK    4  A    between atoms: C_7  and  C_8
REMARK    5  A    between atoms: C_8  and  O_10
REMARK    6  A    between atoms: N_11  and  C_12
REMARK    7  A    between atoms: C_12  and  C_13
REMARK    8  A    between atoms: C_16  and  N_17
REMARK                            x       y       z     vdW  Elec       q    Type
REMARK                         _______ _______ _______ _____ _____    ______ ____
ROOT
ATOM      1  C   UNL     1       6.360   4.781  15.781  0.00  0.00    +0.000 C 
ATOM      2  C   UNL     1       6.839   5.930  16.689  0.00  0.00    +0.000 C 
ATOM      3  C   UNL     1       5.782   5.988  17.802  0.00  0.00    +0.000 C 
ATOM      4  N   UNL     1       4.529   5.673  17.094  0.00  0.00    +0.000 NA
ATOM      5  C   UNL     1       4.828   4.984  15.825  0.00  0.00    +0.000 C 
ENDROOT
BRANCH   1   6
ATOM      6  N   UNL     1       6.704   3.466  16.344  0.00  0.00    +0.000 NA
ATOM      7  H   UNL     1       5.898   2.818  16.444  0.00  0.00    +0.000 HD
ATOM      8  H   UNL     1       7.218   3.571  17.249  0.00  0.00    +0.000 HD
ENDBRANCH   1   6
BRANCH   1   9
ATOM      9  C   UNL     1       6.934   4.882  14.364  0.00  0.00    +0.000 C 
ATOM     10  O   UNL     1       7.881   5.621  14.151  0.00  0.00    +0.000 OA
BRANCH   9  11
ATOM     11  O   UNL     1       6.421   4.192  13.318  0.00  0.00    +0.000 OA
ATOM     12  H   UNL     1       6.553   4.435  12.393  0.00  0.00    +0.000 HD
ENDBRANCH   9  11
ENDBRANCH   1   9
BRANCH   3  13
ATOM     13  C   UNL     1       6.112   5.079  18.975  0.00  0.00    +0.000 C 
ATOM     14  O   UNL     1       6.838   5.441  19.887  0.00  0.00    +0.000 OA
BRANCH  13  15
ATOM     15  O   UNL     1       5.656   3.810  18.976  0.00  0.00    +0.000 OA
ATOM     16  H   UNL     1       6.243   3.062  19.162  0.00  0.00    +0.000 HD
ENDBRANCH  13  15
ENDBRANCH   3  13
BRANCH   4  17
ATOM     17  C   UNL     1       3.277   5.294  17.778  0.00  0.00    +0.000 C 
BRANCH  17  18
ATOM     18  C   UNL     1       2.629   6.429  18.550  0.00  0.00    +0.000 A 
ATOM     19  C   UNL     1       2.237   6.262  19.891  0.00  0.00    +0.000 A 
ATOM     20  C   UNL     1       1.669   7.328  20.604  0.00  0.00    +0.000 A 
ATOM     21  C   UNL     1       1.507   8.585  19.998  0.00  0.00    +0.000 A 
ATOM     22  C   UNL     1       1.909   8.753  18.663  0.00  0.00    +0.000 A 
ATOM     23  C   UNL     1       2.456   7.681  17.946  0.00  0.00    +0.000 A 
BRANCH  21  24
ATOM     24  N   UNL     1       0.952   9.687  20.727  0.00  0.00    +0.000 N 
ATOM     25  O   UNL     1       1.344   9.945  21.827  0.00  0.00    +0.000 OA
ATOM     26  O   UNL     1       0.006  10.432  20.191  0.00  0.00    +0.000 OA
ENDBRANCH  21  24
ENDBRANCH  17  18
ENDBRANCH   4  17
TORSDOF 8
ENDMDL
MODEL 7
REMARK VINA RESULT:      -7.1      2.819      6.644
REMARK  Name = 
REMARK  8 active torsions:
REMARK  status: ('A' for Active; 'I' for Inactive)
REMARK    1  A    between atoms: N_1  and  C_2
REMARK    2  A    between atoms: C_2  and  C_3
REMARK    3  A    between atoms: C_3  and  O_5
REMARK    4  A    between atoms: C_7  and  C_8
REMARK    5  A    between atoms: C_8  and  O_10
REMARK    6  A    between atoms: N_11  and  C_12
REMARK    7  A    between atoms: C_12  and  C_13
REMARK    8  A    between atoms: C_16  and  N_17
REMARK                            x       y       z     vdW  Elec       q    Type
REMARK                         _______ _______ _______ _____ _____    ______ ____
ROOT
ATOM      1  C   UNL     1       6.324   4.843  15.916  0.00  0.00    +0.000 C 
ATOM      2  C   UNL     1       7.008   5.930  16.766  0.00  0.00    +0.000 C 
ATOM      3  C   UNL     1       6.050   6.132  17.950  0.00  0.00    +0.000 C 
ATOM      4  N   UNL     1       4.719   5.972  17.338  0.00  0.00    +0.000 NA
ATOM      5  C   UNL     1       4.837   5.239  16.064  0.00  0.00    +0.000 C 
ENDROOT
BRANCH   1   6
ATOM      6  N   UNL     1       6.539   3.500  16.476  0.00  0.00    +0.000 NA
ATOM      7  H   UNL     1       5.678   3.040  16.830  0.00  0.00    +0.000 HD
ATOM      8  H   UNL     1       7.286   3.518  17.209  0.00  0.00    +0.000 HD
ENDBRANCH   1   6
BRANCH   1   9
ATOM      9  C   UNL     1       6.801   4.858  14.460  0.00  0.00    +0.000 C 
ATOM     10  O   UNL     1       6.239   4.156  13.636  0.00  0.00    +0.000 OA
BRANCH   9  11
ATOM     11  O   UNL     1       7.843   5.615  14.042  0.00  0.00    +0.000 OA
ATOM     12  H   UNL     1       8.483   6.030  14.634  0.00  0.00    +0.000 HD
ENDBRANCH   9  11
ENDBRANCH   1   9
BRANCH   3  13
ATOM     13  C   UNL     1       6.346   5.199  19.113  0.00  0.00    +0.000 C 
ATOM     14  O   UNL     1       5.734   4.156  19.276  0.00  0.00    +0.000 OA
BRANCH  13  15
ATOM     15  O   UNL     1       7.257   5.566  20.039  0.00  0.00    +0.000 OA
ATOM     16  H   UNL     1       7.423   5.026  20.825  0.00  0.00    +0.000 HD
ENDBRANCH  13  15
ENDBRANCH   3  13
BRANCH   4  17
ATOM     17  C   UNL     1       3.482   5.761  18.115  0.00  0.00    +0.000 C 
BRANCH  17  18
ATOM     18  C   UNL     1       2.775   7.046  18.509  0.00  0.00    +0.000 A 
ATOM     19  C   UNL     1       2.616   8.098  17.587  0.00  0.00    +0.000 A 
ATOM     20  C   UNL     1       1.932   9.266  17.953  0.00  0.00    +0.000 A 
ATOM     21  C   UNL     1       1.374   9.394  19.236  0.00  0.00    +0.000 A 
ATOM     22  C   UNL     1       1.524   8.338  20.151  0.00  0.00    +0.000 A 
ATOM     23  C   UNL     1       2.226   7.182  19.790  0.00  0.00    +0.000 A 
BRANCH  21  24
ATOM     24  N   UNL     1       0.652  10.573  19.610  0.00  0.00    +0.000 N 
ATOM     25  O   UNL     1       1.092  11.316  20.438  0.00  0.00    +0.000 OA
ATOM     26  O   UNL     1      -0.503  10.856  19.042  0.00  0.00    +0.000 OA
ENDBRANCH  21  24
ENDBRANCH  17  18
ENDBRANCH   4  17
TORSDOF 8
ENDMDL
MODEL 8
REMARK VINA RESULT:      -7.1      2.181      6.107
REMARK  Name = 
REMARK  8 active torsions:
REMARK  status: ('A' for Active; 'I' for Inactive)
REMARK    1  A    between atoms: N_1  and  C_2
REMARK    2  A    between atoms: C_2  and  C_3
REMARK    3  A    between atoms: C_3  and  O_5
REMARK    4  A    between atoms: C_7  and  C_8
REMARK    5  A    between atoms: C_8  and  O_10
REMARK    6  A    between atoms: N_11  and  C_12
REMARK    7  A    between atoms: C_12  and  C_13
REMARK    8  A    between atoms: C_16  and  N_17
REMARK                            x       y       z     vdW  Elec       q    Type
REMARK                         _______ _______ _______ _____ _____    ______ ____
ROOT
ATOM      1  C   UNL     1       6.268   4.700  15.630  0.00  0.00    +0.000 C 
ATOM      2  C   UNL     1       7.433   5.274  16.458  0.00  0.00    +0.000 C 
ATOM      3  C   UNL     1       6.739   6.002  17.620  0.00  0.00    +0.000 C 
ATOM      4  N   UNL     1       5.531   6.565  16.992  0.00  0.00    +0.000 NA
ATOM      5  C   UNL     1       5.231   5.841  15.742  0.00  0.00    +0.000 C 
ENDROOT
BRANCH   1   6
ATOM      6  N   UNL     1       5.725   3.474  16.234  0.00  0.00    +0.000 NA
ATOM      7  H   UNL     1       4.688   3.418  16.233  0.00  0.00    +0.000 HD
ATOM      8  H   UNL     1       6.110   3.331  17.197  0.00  0.00    +0.000 HD
ENDBRANCH   1   6
BRANCH   1   9
ATOM      9  C   UNL     1       6.674   4.406  14.182  0.00  0.00    +0.000 C 
ATOM     10  O   UNL     1       7.382   5.199  13.584  0.00  0.00    +0.000 OA
BRANCH   9  11
ATOM     11  O   UNL     1       6.266   3.297  13.521  0.00  0.00    +0.000 OA
ATOM     12  H   UNL     1       5.418   3.220  13.065  0.00  0.00    +0.000 HD
ENDBRANCH   9  11
ENDBRANCH   1   9
BRANCH   3  13
ATOM     13  C   UNL     1       6.488   5.097  18.815  0.00  0.00    +0.000 C 
ATOM     14  O   UNL     1       6.793   5.427  19.949  0.00  0.00    +0.000 OA
BRANCH  13  15
ATOM     15  O   UNL     1       5.985   3.861  18.615  0.00  0.00    +0.000 OA
ATOM     16  H   UNL     1       6.039   3.428  17.750  0.00  0.00    +0.000 HD
ENDBRANCH  13  15
ENDBRANCH   3  13
BRANCH   4  17
ATOM     17  C   UNL     1       4.378   7.082  17.754  0.00  0.00    +0.000 C 
BRANCH  17  18
ATOM     18  C   UNL     1       3.455   6.000  18.285  0.00  0.00    +0.000 A 
ATOM     19  C   UNL     1       2.929   5.013  17.431  0.00  0.00    +0.000 A 
ATOM     20  C   UNL     1       2.104   3.999  17.940  0.00  0.00    +0.000 A 
ATOM     21  C   UNL     1       1.811   3.940  19.313  0.00  0.00    +0.000 A 
ATOM     22  C   UNL     1       2.345   4.920  20.165  0.00  0.00    +0.000 A 
ATOM     23  C   UNL     1       3.151   5.944  19.652  0.00  0.00    +0.000 A 
BRANCH  21  24
ATOM     24  N   UNL     1       0.989   2.894  19.845  0.00  0.00    +0.000 N 
ATOM     25  O   UNL     1       0.243   2.287  19.134  0.00  0.00    +0.000 OA
ATOM     26  O   UNL     1       1.051   2.584  21.125  0.00  0.00    +0.000 OA
ENDBRANCH  21  24
ENDBRANCH  17  18
ENDBRANCH   4  17
TORSDOF 8
ENDMDL
MODEL 9
REMARK VINA RESULT:      -7.1      2.814      6.697
REMARK  Name = 
REMARK  8 active torsions:
REMARK  status: ('A' for Active; 'I' for Inactive)
REMARK    1  A    between atoms: N_1  and  C_2
REMARK    2  A    between atoms: C_2  and  C_3
REMARK    3  A    between atoms: C_3  and  O_5
REMARK    4  A    between atoms: C_7  and  C_8
REMARK    5  A    between atoms: C_8  and  O_10
REMARK    6  A    between atoms: N_11  and  C_12
REMARK    7  A    between atoms: C_12  and  C_13
REMARK    8  A    between atoms: C_16  and  N_17
REMARK                            x       y       z     vdW  Elec       q    Type
REMARK                         _______ _______ _______ _____ _____    ______ ____
ROOT
ATOM      1  C   UNL     1       6.296   4.911  15.918  0.00  0.00    +0.000 C 
ATOM      2  C   UNL     1       6.987   5.963  16.805  0.00  0.00    +0.000 C 
ATOM      3  C   UNL     1       6.040   6.116  18.005  0.00  0.00    +0.000 C 
ATOM      4  N   UNL     1       4.704   5.979  17.400  0.00  0.00    +0.000 NA
ATOM      5  C   UNL     1       4.810   5.298  16.096  0.00  0.00    +0.000 C 
ENDROOT
BRANCH   1   6
ATOM      6  N   UNL     1       6.517   3.547  16.421  0.00  0.00    +0.000 NA
ATOM      7  H   UNL     1       5.823   2.849  16.091  0.00  0.00    +0.000 HD
ATOM      8  H   UNL     1       6.589   3.542  17.466  0.00  0.00    +0.000 HD
ENDBRANCH   1   6
BRANCH   1   9
ATOM      9  C   UNL     1       6.759   4.986  14.459  0.00  0.00    +0.000 C 
ATOM     10  O   UNL     1       6.095   4.446  13.590  0.00  0.00    +0.000 OA
BRANCH   9  11
ATOM     11  O   UNL     1       7.895   5.620  14.086  0.00  0.00    +0.000 OA
ATOM     12  H   UNL     1       8.496   6.060  14.701  0.00  0.00    +0.000 HD
ENDBRANCH   9  11
ENDBRANCH   1   9
BRANCH   3  13
ATOM     13  C   UNL     1       6.349   5.137  19.127  0.00  0.00    +0.000 C 
ATOM     14  O   UNL     1       7.154   5.397  20.006  0.00  0.00    +0.000 OA
BRANCH  13  15
ATOM     15  O   UNL     1       5.779   3.914  19.112  0.00  0.00    +0.000 OA
ATOM     16  H   UNL     1       5.895   3.312  18.362  0.00  0.00    +0.000 HD
ENDBRANCH  13  15
ENDBRANCH   3  13
BRANCH   4  17
ATOM     17  C   UNL     1       3.475   5.735  18.180  0.00  0.00    +0.000 C 
BRANCH  17  18
ATOM     18  C   UNL     1       2.718   6.999  18.549  0.00  0.00    +0.000 A 
ATOM     19  C   UNL     1       2.180   7.171  19.838  0.00  0.00    +0.000 A 
ATOM     20  C   UNL     1       1.512   8.357  20.176  0.00  0.00    +0.000 A 
ATOM     21  C   UNL     1       1.392   9.400  19.242  0.00  0.00    +0.000 A 
ATOM     22  C   UNL     1       1.940   9.230  17.960  0.00  0.00    +0.000 A 
ATOM     23  C   UNL     1       2.587   8.037  17.617  0.00  0.00    +0.000 A 
BRANCH  21  24
ATOM     24  N   UNL     1       0.734  10.624  19.588  0.00  0.00    +0.000 N 
ATOM     25  O   UNL     1       0.348  10.811  20.705  0.00  0.00    +0.000 OA
ATOM     26  O   UNL     1       0.550  11.561  18.680  0.00  0.00    +0.000 OA
ENDBRANCH  21  24
ENDBRANCH  17  18
ENDBRANCH   4  17
TORSDOF 8
ENDMDL
