MODEL 1
REMARK VINA RESULT:      -8.1      0.000      0.000
REMARK  Name = 
REMARK  5 active torsions:
REMARK  status: ('A' for Active; 'I' for Inactive)
REMARK    1  A    between atoms: N_1  and  C_2
REMARK    2  A    between atoms: C_8  and  C_9
REMARK    3  A    between atoms: C_9  and  N_10
REMARK    4  A    between atoms: N_13  and  C_14
REMARK    5  A    between atoms: C_14  and  C_15
REMARK                            x       y       z     vdW  Elec       q    Type
REMARK                         _______ _______ _______ _____ _____    ______ ____
ROOT
ATOM      1  N   UNL     1       4.563   5.348  18.645  0.00  0.00    +0.000 N 
ATOM      2  C   UNL     1       4.194   6.701  18.244  0.00  0.00    +0.000 C 
ATOM      3  C   UNL     1       2.678   6.914  18.149  0.00  0.00    +0.000 C 
ATOM      4  N   UNL     1       1.939   6.392  19.309  0.00  0.00    +0.000 NA
ATOM      5  C   UNL     1       2.243   4.949  19.457  0.00  0.00    +0.000 C 
ATOM      6  C   UNL     1       3.731   4.578  19.449  0.00  0.00    +0.000 C 
ATOM      7  O   UNL     1       4.126   3.555  20.012  0.00  0.00    +0.000 OA
ENDROOT
BRANCH   1   8
ATOM      8  C   UNL     1       5.902   4.870  18.332  0.00  0.00    +0.000 C 
BRANCH   8  15
ATOM      9  C   UNL     1       6.439   3.722  12.748  0.00  0.00    +0.000 A 
ATOM     10  N   UNL     1       7.348   4.380  12.016  0.00  0.00    +0.000 NA
ATOM     11  C   UNL     1       8.083   5.282  12.674  0.00  0.00    +0.000 A 
ATOM     12  N   UNL     1       8.000   5.580  13.977  0.00  0.00    +0.000 NA
ATOM     13  C   UNL     1       7.081   4.915  14.686  0.00  0.00    +0.000 A 
ATOM     14  C   UNL     1       6.958   5.184  16.046  0.00  0.00    +0.000 A 
ATOM     15  C   UNL     1       6.020   4.531  16.863  0.00  0.00    +0.000 A 
ATOM     16  C   UNL     1       5.161   3.597  16.278  0.00  0.00    +0.000 A 
ATOM     17  C   UNL     1       5.268   3.307  14.917  0.00  0.00    +0.000 A 
ATOM     18  C   UNL     1       6.238   3.956  14.116  0.00  0.00    +0.000 A 
BRANCH   9  19
ATOM     19  N   UNL     1       5.676   2.789  12.038  0.00  0.00    +0.000 N 
ATOM     20  H   UNL     1       5.717   1.916  12.559  0.00  0.00    +0.000 HD
ATOM     21  H   UNL     1       4.721   3.108  11.920  0.00  0.00    +0.000 HD
ENDBRANCH   9  19
ENDBRANCH   8  15
ENDBRANCH   1   8
BRANCH   4  22
ATOM     22  C   UNL     1       2.204   7.179  20.531  0.00  0.00    +0.000 C 
BRANCH  22  23
ATOM     23  C   UNL     1       1.318   8.377  20.703  0.00  0.00    +0.000 A 
ATOM     24  N   UNL     1       0.992   9.269  19.784  0.00  0.00    +0.000 NA
ATOM     25  C   UNL     1       0.207  10.159  20.461  0.00  0.00    +0.000 A 
ATOM     26  C   UNL     1      -0.415  11.336  20.031  0.00  0.00    +0.000 A 
ATOM     27  C   UNL     1      -1.182  12.053  20.961  0.00  0.00    +0.000 A 
ATOM     28  C   UNL     1      -1.319  11.599  22.279  0.00  0.00    +0.000 A 
ATOM     29 CL   UNL     1      -2.284  12.509  23.380  0.00  0.00    +0.000 Cl
ATOM     30  C   UNL     1      -0.697  10.428  22.730  0.00  0.00    +0.000 A 
ATOM     31  C   UNL     1       0.056   9.752  21.778  0.00  0.00    +0.000 A 
ATOM     32  O   UNL     1       0.770   8.598  21.940  0.00  0.00    +0.000 OA
ENDBRANCH  22  23
ENDBRANCH   4  22
TORSDOF 5
ENDMDL
MODEL 2
REMARK VINA RESULT:      -7.9      0.853      1.232
REMARK  Name = 
REMARK  5 active torsions:
REMARK  status: ('A' for Active; 'I' for Inactive)
REMARK    1  A    between atoms: N_1  and  C_2
REMARK    2  A    between atoms: C_8  and  C_9
REMARK    3  A    between atoms: C_9  and  N_10
REMARK    4  A    between atoms: N_13  and  C_14
REMARK    5  A    between atoms: C_14  and  C_15
REMARK                            x       y       z     vdW  Elec       q    Type
REMARK                         _______ _______ _______ _____ _____    ______ ____
ROOT
ATOM      1  N   UNL     1       4.560   5.355  18.689  0.00  0.00    +0.000 N 
ATOM      2  C   UNL     1       4.291   6.752  18.370  0.00  0.00    +0.000 C 
ATOM      3  C   UNL     1       2.795   7.074  18.268  0.00  0.00    +0.000 C 
ATOM      4  N   UNL     1       2.001   6.533  19.382  0.00  0.00    +0.000 NA
ATOM      5  C   UNL     1       2.204   5.066  19.442  0.00  0.00    +0.000 C 
ATOM      6  C   UNL     1       3.664   4.594  19.430  0.00  0.00    +0.000 C 
ATOM      7  O   UNL     1       3.978   3.514  19.932  0.00  0.00    +0.000 OA
ENDROOT
BRANCH   1   8
ATOM      8  C   UNL     1       5.869   4.806  18.365  0.00  0.00    +0.000 C 
BRANCH   8  15
ATOM      9  C   UNL     1       6.370   3.827  12.745  0.00  0.00    +0.000 A 
ATOM     10  N   UNL     1       7.320   4.455  12.040  0.00  0.00    +0.000 NA
ATOM     11  C   UNL     1       8.102   5.289  12.733  0.00  0.00    +0.000 A 
ATOM     12  N   UNL     1       8.030   5.545  14.045  0.00  0.00    +0.000 NA
ATOM     13  C   UNL     1       7.070   4.911  14.727  0.00  0.00    +0.000 A 
ATOM     14  C   UNL     1       6.955   5.138  16.095  0.00  0.00    +0.000 A 
ATOM     15  C   UNL     1       5.976   4.513  16.884  0.00  0.00    +0.000 A 
ATOM     16  C   UNL     1       5.067   3.652  16.264  0.00  0.00    +0.000 A 
ATOM     17  C   UNL     1       5.164   3.405  14.894  0.00  0.00    +0.000 A 
ATOM     18  C   UNL     1       6.175   4.024  14.120  0.00  0.00    +0.000 A 
BRANCH   9  19
ATOM     19  N   UNL     1       5.558   2.965  12.000  0.00  0.00    +0.000 N 
ATOM     20  H   UNL     1       4.685   3.458  11.826  0.00  0.00    +0.000 HD
ATOM     21  H   UNL     1       6.010   2.691  11.134  0.00  0.00    +0.000 HD
ENDBRANCH   9  19
ENDBRANCH   8  15
ENDBRANCH   1   8
BRANCH   4  22
ATOM     22  C   UNL     1       2.297   7.221  20.656  0.00  0.00    +0.000 C 
BRANCH  22  23
ATOM     23  C   UNL     1       1.375   8.361  20.974  0.00  0.00    +0.000 A 
ATOM     24  N   UNL     1       0.953   8.739  22.168  0.00  0.00    +0.000 NA
ATOM     25  C   UNL     1       0.117   9.786  21.900  0.00  0.00    +0.000 A 
ATOM     26  C   UNL     1      -0.652  10.580  22.757  0.00  0.00    +0.000 A 
ATOM     27  C   UNL     1      -1.419  11.608  22.189  0.00  0.00    +0.000 A 
ATOM     28  C   UNL     1      -1.411  11.829  20.806  0.00  0.00    +0.000 A 
ATOM     29 CL   UNL     1      -2.361  13.113  20.160  0.00  0.00    +0.000 Cl
ATOM     30  C   UNL     1      -0.655  11.039  19.932  0.00  0.00    +0.000 A 
ATOM     31  C   UNL     1       0.086  10.030  20.535  0.00  0.00    +0.000 A 
ATOM     32  O   UNL     1       0.901   9.113  19.931  0.00  0.00    +0.000 OA
ENDBRANCH  22  23
ENDBRANCH   4  22
TORSDOF 5
ENDMDL
MODEL 3
REMARK VINA RESULT:      -7.7      3.664      9.593
REMARK  Name = 
REMARK  5 active torsions:
REMARK  status: ('A' for Active; 'I' for Inactive)
REMARK    1  A    between atoms: N_1  and  C_2
REMARK    2  A    between atoms: C_8  and  C_9
REMARK    3  A    between atoms: C_9  and  N_10
REMARK    4  A    between atoms: N_13  and  C_14
REMARK    5  A    between atoms: C_14  and  C_15
REMARK                            x       y       z     vdW  Elec       q    Type
REMARK                         _______ _______ _______ _____ _____    ______ ____
ROOT
ATOM      1  N   UNL     1       4.286   5.918  18.116  0.00  0.00    +0.000 N 
ATOM      2  C   UNL     1       5.004   6.272  16.897  0.00  0.00    +0.000 C 
ATOM      3  C   UNL     1       6.445   6.729  17.152  0.00  0.00    +0.000 C 
ATOM      4  N   UNL     1       7.186   5.849  18.070  0.00  0.00    +0.000 NA
ATOM      5  C   UNL     1       6.444   5.763  19.350  0.00  0.00    +0.000 C 
ATOM      6  C   UNL     1       4.952   5.427  19.234  0.00  0.00    +0.000 C 
ATOM      7  O   UNL     1       4.357   4.880  20.164  0.00  0.00    +0.000 OA
ENDROOT
BRANCH   1   8
ATOM      8  C   UNL     1       2.830   5.922  18.094  0.00  0.00    +0.000 C 
BRANCH   8  15
ATOM      9  C   UNL     1       0.741  10.777  20.297  0.00  0.00    +0.000 A 
ATOM     10  N   UNL     1       0.429  10.840  21.599  0.00  0.00    +0.000 NA
ATOM     11  C   UNL     1       0.640   9.722  22.302  0.00  0.00    +0.000 A 
ATOM     12  N   UNL     1       1.133   8.568  21.835  0.00  0.00    +0.000 NA
ATOM     13  C   UNL     1       1.430   8.527  20.531  0.00  0.00    +0.000 A 
ATOM     14  C   UNL     1       1.950   7.352  19.997  0.00  0.00    +0.000 A 
ATOM     15  C   UNL     1       2.290   7.225  18.641  0.00  0.00    +0.000 A 
ATOM     16  C   UNL     1       2.070   8.314  17.792  0.00  0.00    +0.000 A 
ATOM     17  C   UNL     1       1.554   9.505  18.305  0.00  0.00    +0.000 A 
ATOM     18  C   UNL     1       1.243   9.622  19.681  0.00  0.00    +0.000 A 
BRANCH   9  19
ATOM     19  N   UNL     1       0.504  11.954  19.579  0.00  0.00    +0.000 N 
ATOM     20  H   UNL     1      -0.008  12.580  20.197  0.00  0.00    +0.000 HD
ATOM     21  H   UNL     1       1.372  12.372  19.262  0.00  0.00    +0.000 HD
ENDBRANCH   9  19
ENDBRANCH   8  15
ENDBRANCH   1   8
BRANCH   4  22
ATOM     22  C   UNL     1       7.468   4.532  17.462  0.00  0.00    +0.000 C 
BRANCH  22  23
ATOM     23  C   UNL     1       7.143   4.440  16.001  0.00  0.00    +0.000 A 
ATOM     24  N   UNL     1       7.821   4.966  14.995  0.00  0.00    +0.000 NA
ATOM     25  C   UNL     1       7.086   4.622  13.895  0.00  0.00    +0.000 A 
ATOM     26  C   UNL     1       7.282   4.916  12.542  0.00  0.00    +0.000 A 
ATOM     27  C   UNL     1       6.355   4.411  11.618  0.00  0.00    +0.000 A 
ATOM     28  C   UNL     1       5.269   3.636  12.044  0.00  0.00    +0.000 A 
ATOM     29 CL   UNL     1       4.165   3.027  10.867  0.00  0.00    +0.000 Cl
ATOM     30  C   UNL     1       5.052   3.338  13.394  0.00  0.00    +0.000 A 
ATOM     31  C   UNL     1       5.991   3.861  14.275  0.00  0.00    +0.000 A 
ATOM     32  O   UNL     1       6.024   3.737  15.636  0.00  0.00    +0.000 OA
ENDBRANCH  22  23
ENDBRANCH   4  22
TORSDOF 5
ENDMDL
MODEL 4
REMARK VINA RESULT:      -7.5      0.662      1.560
REMARK  Name = 
REMARK  5 active torsions:
REMARK  status: ('A' for Active; 'I' for Inactive)
REMARK    1  A    between atoms: N_1  and  C_2
REMARK    2  A    between atoms: C_8  and  C_9
REMARK    3  A    between atoms: C_9  and  N_10
REMARK    4  A    between atoms: N_13  and  C_14
REMARK    5  A    between atoms: C_14  and  C_15
REMARK                            x       y       z     vdW  Elec       q    Type
REMARK                         _______ _______ _______ _____ _____    ______ ____
ROOT
ATOM      1  N   UNL     1       4.128   4.824  18.875  0.00  0.00    +0.000 N 
ATOM      2  C   UNL     1       4.060   6.216  18.444  0.00  0.00    +0.000 C 
ATOM      3  C   UNL     1       2.627   6.706  18.201  0.00  0.00    +0.000 C 
ATOM      4  N   UNL     1       1.693   6.349  19.280  0.00  0.00    +0.000 NA
ATOM      5  C   UNL     1       1.707   4.877  19.452  0.00  0.00    +0.000 C 
ATOM      6  C   UNL     1       3.092   4.234  19.589  0.00  0.00    +0.000 C 
ATOM      7  O   UNL     1       3.232   3.164  20.185  0.00  0.00    +0.000 OA
ENDROOT
BRANCH   1   8
ATOM      8  C   UNL     1       5.378   4.100  18.695  0.00  0.00    +0.000 C 
BRANCH   8  15
ATOM      9  C   UNL     1       7.534   5.030  13.472  0.00  0.00    +0.000 A 
ATOM     10  N   UNL     1       7.029   4.379  12.416  0.00  0.00    +0.000 NA
ATOM     11  C   UNL     1       6.026   3.535  12.678  0.00  0.00    +0.000 A 
ATOM     12  N   UNL     1       5.483   3.290  13.877  0.00  0.00    +0.000 NA
ATOM     13  C   UNL     1       6.008   3.947  14.918  0.00  0.00    +0.000 A 
ATOM     14  C   UNL     1       5.477   3.731  16.186  0.00  0.00    +0.000 A 
ATOM     15  C   UNL     1       5.968   4.380  17.330  0.00  0.00    +0.000 A 
ATOM     16  C   UNL     1       7.050   5.254  17.190  0.00  0.00    +0.000 A 
ATOM     17  C   UNL     1       7.597   5.490  15.928  0.00  0.00    +0.000 A 
ATOM     18  C   UNL     1       7.070   4.847  14.783  0.00  0.00    +0.000 A 
BRANCH   9  19
ATOM     19  N   UNL     1       8.588   5.902  13.176  0.00  0.00    +0.000 N 
ATOM     20  H   UNL     1       8.251   6.540  12.459  0.00  0.00    +0.000 HD
ATOM     21  H   UNL     1       8.896   6.400  14.004  0.00  0.00    +0.000 HD
ENDBRANCH   9  19
ENDBRANCH   8  15
ENDBRANCH   1   8
BRANCH   4  22
ATOM     22  C   UNL     1       1.980   7.090  20.525  0.00  0.00    +0.000 C 
BRANCH  22  23
ATOM     23  C   UNL     1       1.171   8.341  20.703  0.00  0.00    +0.000 A 
ATOM     24  N   UNL     1       0.862   9.232  19.778  0.00  0.00    +0.000 NA
ATOM     25  C   UNL     1       0.154  10.179  20.464  0.00  0.00    +0.000 A 
ATOM     26  C   UNL     1      -0.415  11.382  20.032  0.00  0.00    +0.000 A 
ATOM     27  C   UNL     1      -1.105  12.158  20.974  0.00  0.00    +0.000 A 
ATOM     28  C   UNL     1      -1.219  11.738  22.305  0.00  0.00    +0.000 A 
ATOM     29 CL   UNL     1      -2.089  12.723  23.421  0.00  0.00    +0.000 Cl
ATOM     30  C   UNL     1      -0.649  10.542  22.758  0.00  0.00    +0.000 A 
ATOM     31  C   UNL     1       0.029   9.806  21.794  0.00  0.00    +0.000 A 
ATOM     32  O   UNL     1       0.682   8.616  21.954  0.00  0.00    +0.000 OA
ENDBRANCH  22  23
ENDBRANCH   4  22
TORSDOF 5
ENDMDL
MODEL 5
REMARK VINA RESULT:      -7.5      1.047      1.970
REMARK  Name = 
REMARK  5 active torsions:
REMARK  status: ('A' for Active; 'I' for Inactive)
REMARK    1  A    between atoms: N_1  and  C_2
REMARK    2  A    between atoms: C_8  and  C_9
REMARK    3  A    between atoms: C_9  and  N_10
REMARK    4  A    between atoms: N_13  and  C_14
REMARK    5  A    between atoms: C_14  and  C_15
REMARK                            x       y       z     vdW  Elec       q    Type
REMARK                         _______ _______ _______ _____ _____    ______ ____
ROOT
ATOM      1  N   UNL     1       4.064   4.842  18.842  0.00  0.00    +0.000 N 
ATOM      2  C   UNL     1       4.090   6.218  18.360  0.00  0.00    +0.000 C 
ATOM      3  C   UNL     1       2.693   6.826  18.184  0.00  0.00    +0.000 C 
ATOM      4  N   UNL     1       1.803   6.592  19.333  0.00  0.00    +0.000 NA
ATOM      5  C   UNL     1       1.699   5.132  19.564  0.00  0.00    +0.000 C 
ATOM      6  C   UNL     1       3.030   4.373  19.643  0.00  0.00    +0.000 C 
ATOM      7  O   UNL     1       3.114   3.317  20.272  0.00  0.00    +0.000 OA
ENDROOT
BRANCH   1   8
ATOM      8  C   UNL     1       5.232   4.002  18.616  0.00  0.00    +0.000 C 
BRANCH   8  15
ATOM      9  C   UNL     1       7.533   5.040  13.476  0.00  0.00    +0.000 A 
ATOM     10  N   UNL     1       7.036   4.437  12.388  0.00  0.00    +0.000 NA
ATOM     11  C   UNL     1       6.005   3.613  12.600  0.00  0.00    +0.000 A 
ATOM     12  N   UNL     1       5.429   3.344  13.778  0.00  0.00    +0.000 NA
ATOM     13  C   UNL     1       5.946   3.953  14.851  0.00  0.00    +0.000 A 
ATOM     14  C   UNL     1       5.380   3.711  16.099  0.00  0.00    +0.000 A 
ATOM     15  C   UNL     1       5.861   4.310  17.274  0.00  0.00    +0.000 A 
ATOM     16  C   UNL     1       6.968   5.158  17.187  0.00  0.00    +0.000 A 
ATOM     17  C   UNL     1       7.551   5.419  15.947  0.00  0.00    +0.000 A 
ATOM     18  C   UNL     1       7.034   4.827  14.769  0.00  0.00    +0.000 A 
BRANCH   9  19
ATOM     19  N   UNL     1       8.616   5.891  13.232  0.00  0.00    +0.000 N 
ATOM     20  H   UNL     1       8.389   6.428  12.399  0.00  0.00    +0.000 HD
ATOM     21  H   UNL     1       8.795   6.495  14.027  0.00  0.00    +0.000 HD
ENDBRANCH   9  19
ENDBRANCH   8  15
ENDBRANCH   1   8
BRANCH   4  22
ATOM     22  C   UNL     1       2.234   7.349  20.526  0.00  0.00    +0.000 C 
BRANCH  22  23
ATOM     23  C   UNL     1       1.309   8.462  20.923  0.00  0.00    +0.000 A 
ATOM     24  N   UNL     1       0.915   8.778  22.144  0.00  0.00    +0.000 NA
ATOM     25  C   UNL     1       0.062   9.827  21.947  0.00  0.00    +0.000 A 
ATOM     26  C   UNL     1      -0.692  10.571  22.861  0.00  0.00    +0.000 A 
ATOM     27  C   UNL     1      -1.483  11.617  22.363  0.00  0.00    +0.000 A 
ATOM     28  C   UNL     1      -1.512  11.904  20.992  0.00  0.00    +0.000 A 
ATOM     29 CL   UNL     1      -2.490  13.209  20.433  0.00  0.00    +0.000 Cl
ATOM     30  C   UNL     1      -0.771  11.166  20.062  0.00  0.00    +0.000 A 
ATOM     31  C   UNL     1      -0.005  10.137  20.598  0.00  0.00    +0.000 A 
ATOM     32  O   UNL     1       0.802   9.259  19.929  0.00  0.00    +0.000 OA
ENDBRANCH  22  23
ENDBRANCH   4  22
TORSDOF 5
ENDMDL
MODEL 6
REMARK VINA RESULT:      -7.5      3.994      9.723
REMARK  Name = 
REMARK  5 active torsions:
REMARK  status: ('A' for Active; 'I' for Inactive)
REMARK    1  A    between atoms: N_1  and  C_2
REMARK    2  A    between atoms: C_8  and  C_9
REMARK    3  A    between atoms: C_9  and  N_10
REMARK    4  A    between atoms: N_13  and  C_14
REMARK    5  A    between atoms: C_14  and  C_15
REMARK                            x       y       z     vdW  Elec       q    Type
REMARK                         _______ _______ _______ _____ _____    ______ ____
ROOT
ATOM      1  N   UNL     1       1.720   8.607  19.510  0.00  0.00    +0.000 N 
ATOM      2  C   UNL     1       1.686   7.789  20.717  0.00  0.00    +0.000 C 
ATOM      3  C   UNL     1       1.364   6.315  20.443  0.00  0.00    +0.000 C 
ATOM      4  N   UNL     1       2.140   5.742  19.333  0.00  0.00    +0.000 NA
ATOM      5  C   UNL     1       1.898   6.552  18.115  0.00  0.00    +0.000 C 
ATOM      6  C   UNL     1       2.070   8.067  18.278  0.00  0.00    +0.000 C 
ATOM      7  O   UNL     1       2.360   8.773  17.311  0.00  0.00    +0.000 OA
ENDROOT
BRANCH   1   8
ATOM      8  C   UNL     1       1.547  10.047  19.639  0.00  0.00    +0.000 C 
BRANCH   8  15
ATOM      9  C   UNL     1      -3.739  11.534  18.014  0.00  0.00    +0.000 A 
ATOM     10  N   UNL     1      -4.241  11.063  16.864  0.00  0.00    +0.000 NA
ATOM     11  C   UNL     1      -3.437  10.255  16.166  0.00  0.00    +0.000 A 
ATOM     12  N   UNL     1      -2.200   9.872  16.507  0.00  0.00    +0.000 NA
ATOM     13  C   UNL     1      -1.717  10.360  17.656  0.00  0.00    +0.000 A 
ATOM     14  C   UNL     1      -0.438   9.990  18.058  0.00  0.00    +0.000 A 
ATOM     15  C   UNL     1       0.143  10.454  19.249  0.00  0.00    +0.000 A 
ATOM     16  C   UNL     1      -0.584  11.345  20.043  0.00  0.00    +0.000 A 
ATOM     17  C   UNL     1      -1.871  11.728  19.663  0.00  0.00    +0.000 A 
ATOM     18  C   UNL     1      -2.449  11.228  18.473  0.00  0.00    +0.000 A 
BRANCH   9  19
ATOM     19  N   UNL     1      -4.593  12.384  18.724  0.00  0.00    +0.000 N 
ATOM     20  H   UNL     1      -4.437  12.203  19.712  0.00  0.00    +0.000 HD
ATOM     21  H   UNL     1      -4.421  13.356  18.491  0.00  0.00    +0.000 HD
ENDBRANCH   9  19
ENDBRANCH   8  15
ENDBRANCH   1   8
BRANCH   4  22
ATOM     22  C   UNL     1       3.571   5.603  19.673  0.00  0.00    +0.000 C 
BRANCH  22  23
ATOM     23  C   UNL     1       4.472   5.386  18.494  0.00  0.00    +0.000 A 
ATOM     24  N   UNL     1       5.714   5.812  18.347  0.00  0.00    +0.000 NA
ATOM     25  C   UNL     1       6.058   5.382  17.096  0.00  0.00    +0.000 A 
ATOM     26  C   UNL     1       7.239   5.553  16.367  0.00  0.00    +0.000 A 
ATOM     27  C   UNL     1       7.313   4.980  15.089  0.00  0.00    +0.000 A 
ATOM     28  C   UNL     1       6.233   4.258  14.564  0.00  0.00    +0.000 A 
ATOM     29 CL   UNL     1       6.378   3.562  12.994  0.00  0.00    +0.000 Cl
ATOM     30  C   UNL     1       5.039   4.084  15.275  0.00  0.00    +0.000 A 
ATOM     31  C   UNL     1       5.008   4.671  16.534  0.00  0.00    +0.000 A 
ATOM     32  O   UNL     1       3.980   4.667  17.435  0.00  0.00    +0.000 OA
ENDBRANCH  22  23
ENDBRANCH   4  22
TORSDOF 5
ENDMDL
MODEL 7
REMARK VINA RESULT:      -7.5      4.501     12.007
REMARK  Name = 
REMARK  5 active torsions:
REMARK  status: ('A' for Active; 'I' for Inactive)
REMARK    1  A    between atoms: N_1  and  C_2
REMARK    2  A    between atoms: C_8  and  C_9
REMARK    3  A    between atoms: C_9  and  N_10
REMARK    4  A    between atoms: N_13  and  C_14
REMARK    5  A    between atoms: C_14  and  C_15
REMARK                            x       y       z     vdW  Elec       q    Type
REMARK                         _______ _______ _______ _____ _____    ______ ____
ROOT
ATOM      1  N   UNL     1      -0.479  11.423  21.887  0.00  0.00    +0.000 N 
ATOM      2  C   UNL     1      -0.302  10.347  22.856  0.00  0.00    +0.000 C 
ATOM      3  C   UNL     1      -0.665   8.964  22.301  0.00  0.00    +0.000 C 
ATOM      4  N   UNL     1      -0.092   8.697  20.973  0.00  0.00    +0.000 NA
ATOM      5  C   UNL     1      -0.542   9.756  20.039  0.00  0.00    +0.000 C 
ATOM      6  C   UNL     1      -0.347  11.199  20.522  0.00  0.00    +0.000 C 
ATOM      7  O   UNL     1      -0.228  12.121  19.713  0.00  0.00    +0.000 OA
ENDROOT
BRANCH   1   8
ATOM      8  C   UNL     1      -0.629  12.785  22.378  0.00  0.00    +0.000 C 
BRANCH   8  15
ATOM      9  C   UNL     1      -6.182  14.170  22.575  0.00  0.00    +0.000 A 
ATOM     10  N   UNL     1      -7.000  13.529  23.421  0.00  0.00    +0.000 NA
ATOM     11  C   UNL     1      -6.431  12.585  24.177  0.00  0.00    +0.000 A 
ATOM     12  N   UNL     1      -5.140  12.232  24.174  0.00  0.00    +0.000 NA
ATOM     13  C   UNL     1      -4.343  12.881  23.317  0.00  0.00    +0.000 A 
ATOM     14  C   UNL     1      -2.991  12.554  23.276  0.00  0.00    +0.000 A 
ATOM     15  C   UNL     1      -2.087  13.187  22.408  0.00  0.00    +0.000 A 
ATOM     16  C   UNL     1      -2.573  14.161  21.532  0.00  0.00    +0.000 A 
ATOM     17  C   UNL     1      -3.924  14.509  21.557  0.00  0.00    +0.000 A 
ATOM     18  C   UNL     1      -4.815  13.879  22.458  0.00  0.00    +0.000 A 
BRANCH   9  19
ATOM     19  N   UNL     1      -6.799  15.148  21.787  0.00  0.00    +0.000 N 
ATOM     20  H   UNL     1      -6.930  15.965  22.379  0.00  0.00    +0.000 HD
ATOM     21  H   UNL     1      -6.242  15.366  20.969  0.00  0.00    +0.000 HD
ENDBRANCH   9  19
ENDBRANCH   8  15
ENDBRANCH   1   8
BRANCH   4  22
ATOM     22  C   UNL     1       1.376   8.544  21.027  0.00  0.00    +0.000 C 
BRANCH  22  23
ATOM     23  C   UNL     1       1.912   7.403  20.212  0.00  0.00    +0.000 A 
ATOM     24  N   UNL     1       2.615   7.479  19.095  0.00  0.00    +0.000 NA
ATOM     25  C   UNL     1       2.813   6.172  18.749  0.00  0.00    +0.000 A 
ATOM     26  C   UNL     1       3.465   5.611  17.645  0.00  0.00    +0.000 A 
ATOM     27  C   UNL     1       3.523   4.213  17.556  0.00  0.00    +0.000 A 
ATOM     28  C   UNL     1       2.944   3.407  18.546  0.00  0.00    +0.000 A 
ATOM     29 CL   UNL     1       3.055   1.693  18.397  0.00  0.00    +0.000 Cl
ATOM     30  C   UNL     1       2.280   3.950  19.652  0.00  0.00    +0.000 A 
ATOM     31  C   UNL     1       2.243   5.338  19.698  0.00  0.00    +0.000 A 
ATOM     32  O   UNL     1       1.661   6.129  20.650  0.00  0.00    +0.000 OA
ENDBRANCH  22  23
ENDBRANCH   4  22
TORSDOF 5
ENDMDL
MODEL 8
REMARK VINA RESULT:      -7.5      5.180     11.528
REMARK  Name = 
REMARK  5 active torsions:
REMARK  status: ('A' for Active; 'I' for Inactive)
REMARK    1  A    between atoms: N_1  and  C_2
REMARK    2  A    between atoms: C_8  and  C_9
REMARK    3  A    between atoms: C_9  and  N_10
REMARK    4  A    between atoms: N_13  and  C_14
REMARK    5  A    between atoms: C_14  and  C_15
REMARK                            x       y       z     vdW  Elec       q    Type
REMARK                         _______ _______ _______ _____ _____    ______ ____
ROOT
ATOM      1  N   UNL     1      -0.291  12.427  19.229  0.00  0.00    +0.000 N 
ATOM      2  C   UNL     1      -0.998  11.163  19.058  0.00  0.00    +0.000 C 
ATOM      3  C   UNL     1      -0.207  10.129  18.248  0.00  0.00    +0.000 C 
ATOM      4  N   UNL     1       1.195   9.997  18.676  0.00  0.00    +0.000 NA
ATOM      5  C   UNL     1       1.847  11.325  18.583  0.00  0.00    +0.000 C 
ATOM      6  C   UNL     1       1.098  12.484  19.254  0.00  0.00    +0.000 C 
ATOM      7  O   UNL     1       1.707  13.477  19.655  0.00  0.00    +0.000 OA
ENDROOT
BRANCH   1   8
ATOM      8  C   UNL     1      -1.062  13.620  19.547  0.00  0.00    +0.000 C 
BRANCH   8  15
ATOM      9  C   UNL     1      -4.786  12.648  23.787  0.00  0.00    +0.000 A 
ATOM     10  N   UNL     1      -6.093  12.536  23.515  0.00  0.00    +0.000 NA
ATOM     11  C   UNL     1      -6.432  12.665  22.228  0.00  0.00    +0.000 A 
ATOM     12  N   UNL     1      -5.601  12.884  21.203  0.00  0.00    +0.000 NA
ATOM     13  C   UNL     1      -4.301  12.999  21.499  0.00  0.00    +0.000 A 
ATOM     14  C   UNL     1      -3.394  13.223  20.468  0.00  0.00    +0.000 A 
ATOM     15  C   UNL     1      -2.013  13.353  20.693  0.00  0.00    +0.000 A 
ATOM     16  C   UNL     1      -1.541  13.284  22.006  0.00  0.00    +0.000 A 
ATOM     17  C   UNL     1      -2.431  13.056  23.056  0.00  0.00    +0.000 A 
ATOM     18  C   UNL     1      -3.815  12.899  22.807  0.00  0.00    +0.000 A 
BRANCH   9  19
ATOM     19  N   UNL     1      -4.454  12.518  25.140  0.00  0.00    +0.000 N 
ATOM     20  H   UNL     1      -3.443  12.604  25.206  0.00  0.00    +0.000 HD
ATOM     21  H   UNL     1      -4.926  13.217  25.703  0.00  0.00    +0.000 HD
ENDBRANCH   9  19
ENDBRANCH   8  15
ENDBRANCH   1   8
BRANCH   4  22
ATOM     22  C   UNL     1       1.308   9.377  20.012  0.00  0.00    +0.000 C 
BRANCH  22  23
ATOM     23  C   UNL     1       1.640   7.914  19.991  0.00  0.00    +0.000 A 
ATOM     24  N   UNL     1       1.378   7.021  20.929  0.00  0.00    +0.000 NA
ATOM     25  C   UNL     1       1.916   5.866  20.435  0.00  0.00    +0.000 A 
ATOM     26  C   UNL     1       1.981   4.582  20.988  0.00  0.00    +0.000 A 
ATOM     27  C   UNL     1       2.594   3.572  20.233  0.00  0.00    +0.000 A 
ATOM     28  C   UNL     1       3.122   3.844  18.965  0.00  0.00    +0.000 A 
ATOM     29 CL   UNL     1       3.853   2.564  18.072  0.00  0.00    +0.000 Cl
ATOM     30  C   UNL     1       3.074   5.124  18.399  0.00  0.00    +0.000 A 
ATOM     31  C   UNL     1       2.463   6.095  19.182  0.00  0.00    +0.000 A 
ATOM     32  O   UNL     1       2.284   7.418  18.887  0.00  0.00    +0.000 OA
ENDBRANCH  22  23
ENDBRANCH   4  22
TORSDOF 5
ENDMDL
MODEL 9
REMARK VINA RESULT:      -7.5      4.294     11.643
REMARK  Name = 
REMARK  5 active torsions:
REMARK  status: ('A' for Active; 'I' for Inactive)
REMARK    1  A    between atoms: N_1  and  C_2
REMARK    2  A    between atoms: C_8  and  C_9
REMARK    3  A    between atoms: C_9  and  N_10
REMARK    4  A    between atoms: N_13  and  C_14
REMARK    5  A    between atoms: C_14  and  C_15
REMARK                            x       y       z     vdW  Elec       q    Type
REMARK                         _______ _______ _______ _____ _____    ______ ____
ROOT
ATOM      1  N   UNL     1       0.378  11.545  20.338  0.00  0.00    +0.000 N 
ATOM      2  C   UNL     1       0.998  10.381  20.961  0.00  0.00    +0.000 C 
ATOM      3  C   UNL     1       0.607   9.055  20.296  0.00  0.00    +0.000 C 
ATOM      4  N   UNL     1       0.694   9.088  18.828  0.00  0.00    +0.000 NA
ATOM      5  C   UNL     1      -0.166  10.185  18.324  0.00  0.00    +0.000 C 
ATOM      6  C   UNL     1       0.039  11.551  18.990  0.00  0.00    +0.000 C 
ATOM      7  O   UNL     1      -0.235  12.591  18.388  0.00  0.00    +0.000 OA
ENDROOT
BRANCH   1   8
ATOM      8  C   UNL     1       0.272  12.775  21.110  0.00  0.00    +0.000 C 
BRANCH   8  15
ATOM      9  C   UNL     1      -4.683  13.092  23.962  0.00  0.00    +0.000 A 
ATOM     10  N   UNL     1      -5.486  14.150  23.789  0.00  0.00    +0.000 NA
ATOM     11  C   UNL     1      -5.049  15.078  22.932  0.00  0.00    +0.000 A 
ATOM     12  N   UNL     1      -3.905  15.045  22.238  0.00  0.00    +0.000 NA
ATOM     13  C   UNL     1      -3.116  13.983  22.432  0.00  0.00    +0.000 A 
ATOM     14  C   UNL     1      -1.917  13.898  21.730  0.00  0.00    +0.000 A 
ATOM     15  C   UNL     1      -1.033  12.817  21.874  0.00  0.00    +0.000 A 
ATOM     16  C   UNL     1      -1.359  11.803  22.779  0.00  0.00    +0.000 A 
ATOM     17  C   UNL     1      -2.557  11.863  23.491  0.00  0.00    +0.000 A 
ATOM     18  C   UNL     1      -3.449  12.948  23.312  0.00  0.00    +0.000 A 
BRANCH   9  19
ATOM     19  N   UNL     1      -5.156  12.137  24.869  0.00  0.00    +0.000 N 
ATOM     20  H   UNL     1      -4.354  11.585  25.162  0.00  0.00    +0.000 HD
ATOM     21  H   UNL     1      -5.615  12.576  25.659  0.00  0.00    +0.000 HD
ENDBRANCH   9  19
ENDBRANCH   8  15
ENDBRANCH   1   8
BRANCH   4  22
ATOM     22  C   UNL     1       2.093   9.174  18.361  0.00  0.00    +0.000 C 
BRANCH  22  23
ATOM     23  C   UNL     1       2.730   7.849  18.060  0.00  0.00    +0.000 A 
ATOM     24  N   UNL     1       3.837   7.632  17.371  0.00  0.00    +0.000 NA
ATOM     25  C   UNL     1       3.950   6.270  17.363  0.00  0.00    +0.000 A 
ATOM     26  C   UNL     1       4.904   5.439  16.765  0.00  0.00    +0.000 A 
ATOM     27  C   UNL     1       4.770   4.054  16.937  0.00  0.00    +0.000 A 
ATOM     28  C   UNL     1       3.711   3.523  17.686  0.00  0.00    +0.000 A 
ATOM     29 CL   UNL     1       3.599   1.814  17.879  0.00  0.00    +0.000 Cl
ATOM     30  C   UNL     1       2.742   4.338  18.284  0.00  0.00    +0.000 A 
ATOM     31  C   UNL     1       2.911   5.703  18.085  0.00  0.00    +0.000 A 
ATOM     32  O   UNL     1       2.120   6.720  18.542  0.00  0.00    +0.000 OA
ENDBRANCH  22  23
ENDBRANCH   4  22
TORSDOF 5
ENDMDL
