MODEL 1
REMARK VINA RESULT:      -8.7      0.000      0.000
REMARK  Name = 
REMARK  2 active torsions:
REMARK  status: ('A' for Active; 'I' for Inactive)
REMARK    1  A    between atoms: C_2  and  C_14
REMARK    2  A    between atoms: N_3  and  C_4
REMARK                            x       y       z     vdW  Elec       q    Type
REMARK                         _______ _______ _______ _____ _____    ______ ____
ROOT
ATOM      1  O   UNL     1       2.257   8.934  17.092  0.00  0.00    +0.000 OA
ATOM      2  C   UNL     1       1.998   8.537  18.224  0.00  0.00    +0.000 C 
ATOM      3  N   UNL     1       2.382   7.333  18.788  0.00  0.00    +0.000 N 
ATOM      4  H   UNL     1       1.924   7.068  19.646  0.00  0.00    +0.000 HD
ENDROOT
BRANCH   3   5
ATOM      5  C   UNL     1       3.189   6.340  18.160  0.00  0.00    +0.000 A 
ATOM      6  C   UNL     1       4.371   6.703  17.499  0.00  0.00    +0.000 A 
ATOM      7  C   UNL     1       5.149   5.759  16.836  0.00  0.00    +0.000 A 
ATOM      8  C   UNL     1       4.762   4.428  16.833  0.00  0.00    +0.000 A 
ATOM      9  C   UNL     1       3.602   4.018  17.502  0.00  0.00    +0.000 A 
ATOM     10  C   UNL     1       3.242   2.661  17.468  0.00  0.00    +0.000 A 
ATOM     11  C   UNL     1       2.092   2.208  18.106  0.00  0.00    +0.000 A 
ATOM     12  C   UNL     1       1.290   3.105  18.794  0.00  0.00    +0.000 A 
ATOM     13  C   UNL     1       1.634   4.460  18.837  0.00  0.00    +0.000 A 
ATOM     14  C   UNL     1       2.795   4.964  18.192  0.00  0.00    +0.000 A 
ENDBRANCH   3   5
BRANCH   2  15
ATOM     15  C   UNL     1       1.126   9.404  19.059  0.00  0.00    +0.000 A 
ATOM     16  C   UNL     1       0.290  10.385  18.509  0.00  0.00    +0.000 A 
ATOM     17  C   UNL     1      -0.551  11.124  19.348  0.00  0.00    +0.000 A 
ATOM     18  C   UNL     1      -0.555  10.887  20.722  0.00  0.00    +0.000 A 
ATOM     19  C   UNL     1       0.268   9.896  21.266  0.00  0.00    +0.000 A 
ATOM     20  C   UNL     1       1.113   9.165  20.440  0.00  0.00    +0.000 A 
ATOM     21  O   UNL     1       0.300   9.589  22.601  0.00  0.00    +0.000 OA
ATOM     22  C   UNL     1      -0.840  10.114  23.285  0.00  0.00    +0.000 C 
ATOM     23  C   UNL     1      -1.097  11.556  22.876  0.00  0.00    +0.000 C 
ATOM     24  O   UNL     1      -1.408  11.648  21.480  0.00  0.00    +0.000 OA
ENDBRANCH   2  15
TORSDOF 2
ENDMDL
MODEL 2
REMARK VINA RESULT:      -8.6      1.129      1.775
REMARK  Name = 
REMARK  2 active torsions:
REMARK  status: ('A' for Active; 'I' for Inactive)
REMARK    1  A    between atoms: C_2  and  C_14
REMARK    2  A    between atoms: N_3  and  C_4
REMARK                            x       y       z     vdW  Elec       q    Type
REMARK                         _______ _______ _______ _____ _____    ______ ____
ROOT
ATOM      1  O   UNL     1       1.630   8.769  18.020  0.00  0.00    +0.000 OA
ATOM      2  C   UNL     1       1.690   8.326  19.162  0.00  0.00    +0.000 C 
ATOM      3  N   UNL     1       2.247   7.120  19.555  0.00  0.00    +0.000 N 
ATOM      4  H   UNL     1       2.040   6.809  20.491  0.00  0.00    +0.000 HD
ENDROOT
BRANCH   3   5
ATOM      5  C   UNL     1       2.890   6.182  18.697  0.00  0.00    +0.000 A 
ATOM      6  C   UNL     1       3.947   6.589  17.869  0.00  0.00    +0.000 A 
ATOM      7  C   UNL     1       4.557   5.704  16.986  0.00  0.00    +0.000 A 
ATOM      8  C   UNL     1       4.126   4.387  16.924  0.00  0.00    +0.000 A 
ATOM      9  C   UNL     1       3.092   3.932  17.751  0.00  0.00    +0.000 A 
ATOM     10  C   UNL     1       2.682   2.593  17.652  0.00  0.00    +0.000 A 
ATOM     11  C   UNL     1       1.650   2.098  18.443  0.00  0.00    +0.000 A 
ATOM     12  C   UNL     1       1.019   2.935  19.350  0.00  0.00    +0.000 A 
ATOM     13  C   UNL     1       1.415   4.273  19.461  0.00  0.00    +0.000 A 
ATOM     14  C   UNL     1       2.458   4.818  18.666  0.00  0.00    +0.000 A 
ENDBRANCH   3   5
BRANCH   2  15
ATOM     15  C   UNL     1       1.043   9.129  20.232  0.00  0.00    +0.000 A 
ATOM     16  C   UNL     1       0.753   8.604  21.498  0.00  0.00    +0.000 A 
ATOM     17  C   UNL     1       0.201   9.434  22.479  0.00  0.00    +0.000 A 
ATOM     18  C   UNL     1      -0.062  10.775  22.197  0.00  0.00    +0.000 A 
ATOM     19  C   UNL     1       0.244  11.300  20.938  0.00  0.00    +0.000 A 
ATOM     20  C   UNL     1       0.785  10.479  19.956  0.00  0.00    +0.000 A 
ATOM     21  O   UNL     1       0.040  12.611  20.596  0.00  0.00    +0.000 OA
ATOM     22  C   UNL     1      -0.156  13.428  21.753  0.00  0.00    +0.000 C 
ATOM     23  C   UNL     1      -1.125  12.768  22.721  0.00  0.00    +0.000 C 
ATOM     24  O   UNL     1      -0.601  11.527  23.209  0.00  0.00    +0.000 OA
ENDBRANCH   2  15
TORSDOF 2
ENDMDL
MODEL 3
REMARK VINA RESULT:      -8.4      1.464      2.083
REMARK  Name = 
REMARK  2 active torsions:
REMARK  status: ('A' for Active; 'I' for Inactive)
REMARK    1  A    between atoms: C_2  and  C_14
REMARK    2  A    between atoms: N_3  and  C_4
REMARK                            x       y       z     vdW  Elec       q    Type
REMARK                         _______ _______ _______ _____ _____    ______ ____
ROOT
ATOM      1  O   UNL     1       1.985   8.084  18.656  0.00  0.00    +0.000 OA
ATOM      2  C   UNL     1       1.915   7.757  19.836  0.00  0.00    +0.000 C 
ATOM      3  N   UNL     1       2.431   6.607  20.410  0.00  0.00    +0.000 N 
ATOM      4  H   UNL     1       2.117   6.387  21.342  0.00  0.00    +0.000 HD
ENDROOT
BRANCH   3   5
ATOM      5  C   UNL     1       3.177   5.601  19.731  0.00  0.00    +0.000 A 
ATOM      6  C   UNL     1       4.515   5.832  19.376  0.00  0.00    +0.000 A 
ATOM      7  C   UNL     1       5.249   4.886  18.669  0.00  0.00    +0.000 A 
ATOM      8  C   UNL     1       4.660   3.682  18.313  0.00  0.00    +0.000 A 
ATOM      9  C   UNL     1       3.335   3.400  18.670  0.00  0.00    +0.000 A 
ATOM     10  C   UNL     1       2.775   2.172  18.284  0.00  0.00    +0.000 A 
ATOM     11  C   UNL     1       1.459   1.852  18.604  0.00  0.00    +0.000 A 
ATOM     12  C   UNL     1       0.688   2.755  19.321  0.00  0.00    +0.000 A 
ATOM     13  C   UNL     1       1.232   3.983  19.713  0.00  0.00    +0.000 A 
ATOM     14  C   UNL     1       2.567   4.350  19.398  0.00  0.00    +0.000 A 
ENDBRANCH   3   5
BRANCH   2  15
ATOM     15  C   UNL     1       1.140   8.649  20.737  0.00  0.00    +0.000 A 
ATOM     16  C   UNL     1       1.190   8.539  22.133  0.00  0.00    +0.000 A 
ATOM     17  C   UNL     1       0.484   9.453  22.923  0.00  0.00    +0.000 A 
ATOM     18  C   UNL     1      -0.266  10.464  22.324  0.00  0.00    +0.000 A 
ATOM     19  C   UNL     1      -0.301  10.582  20.932  0.00  0.00    +0.000 A 
ATOM     20  C   UNL     1       0.390   9.673  20.140  0.00  0.00    +0.000 A 
ATOM     21  O   UNL     1      -0.993  11.564  20.274  0.00  0.00    +0.000 OA
ATOM     22  C   UNL     1      -1.345  12.635  21.154  0.00  0.00    +0.000 C 
ATOM     23  C   UNL     1      -1.908  12.097  22.459  0.00  0.00    +0.000 C 
ATOM     24  O   UNL     1      -0.928  11.324  23.163  0.00  0.00    +0.000 OA
ENDBRANCH   2  15
TORSDOF 2
ENDMDL
MODEL 4
REMARK VINA RESULT:      -8.2      0.890      1.756
REMARK  Name = 
REMARK  2 active torsions:
REMARK  status: ('A' for Active; 'I' for Inactive)
REMARK    1  A    between atoms: C_2  and  C_14
REMARK    2  A    between atoms: N_3  and  C_4
REMARK                            x       y       z     vdW  Elec       q    Type
REMARK                         _______ _______ _______ _____ _____    ______ ____
ROOT
ATOM      1  O   UNL     1       2.079   9.056  17.382  0.00  0.00    +0.000 OA
ATOM      2  C   UNL     1       1.904   8.572  18.496  0.00  0.00    +0.000 C 
ATOM      3  N   UNL     1       2.369   7.349  18.950  0.00  0.00    +0.000 N 
ATOM      4  H   UNL     1       1.974   7.007  19.812  0.00  0.00    +0.000 HD
ENDROOT
BRANCH   3   5
ATOM      5  C   UNL     1       3.175   6.438  18.208  0.00  0.00    +0.000 A 
ATOM      6  C   UNL     1       4.306   6.896  17.516  0.00  0.00    +0.000 A 
ATOM      7  C   UNL     1       5.080   6.035  16.745  0.00  0.00    +0.000 A 
ATOM      8  C   UNL     1       4.741   4.693  16.661  0.00  0.00    +0.000 A 
ATOM      9  C   UNL     1       3.635   4.189  17.356  0.00  0.00    +0.000 A 
ATOM     10  C   UNL     1       3.323   2.825  17.239  0.00  0.00    +0.000 A 
ATOM     11  C   UNL     1       2.227   2.281  17.900  0.00  0.00    +0.000 A 
ATOM     12  C   UNL     1       1.431   3.093  18.694  0.00  0.00    +0.000 A 
ATOM     13  C   UNL     1       1.728   4.454  18.821  0.00  0.00    +0.000 A 
ATOM     14  C   UNL     1       2.833   5.049  18.156  0.00  0.00    +0.000 A 
ENDBRANCH   3   5
BRANCH   2  15
ATOM     15  C   UNL     1       1.050   9.341  19.439  0.00  0.00    +0.000 A 
ATOM     16  C   UNL     1       1.033   9.089  20.816  0.00  0.00    +0.000 A 
ATOM     17  C   UNL     1       0.253   9.892  21.655  0.00  0.00    +0.000 A 
ATOM     18  C   UNL     1      -0.504  10.935  21.121  0.00  0.00    +0.000 A 
ATOM     19  C   UNL     1      -0.472  11.194  19.749  0.00  0.00    +0.000 A 
ATOM     20  C   UNL     1       0.294  10.395  18.908  0.00  0.00    +0.000 A 
ATOM     21  O   UNL     1      -1.166  12.216  19.156  0.00  0.00    +0.000 OA
ATOM     22  C   UNL     1      -1.603  13.179  20.119  0.00  0.00    +0.000 C 
ATOM     23  C   UNL     1      -2.212  12.490  21.331  0.00  0.00    +0.000 C 
ATOM     24  O   UNL     1      -1.241  11.681  22.006  0.00  0.00    +0.000 OA
ENDBRANCH   2  15
TORSDOF 2
ENDMDL
MODEL 5
REMARK VINA RESULT:      -8.2      1.381      2.798
REMARK  Name = 
REMARK  2 active torsions:
REMARK  status: ('A' for Active; 'I' for Inactive)
REMARK    1  A    between atoms: C_2  and  C_14
REMARK    2  A    between atoms: N_3  and  C_4
REMARK                            x       y       z     vdW  Elec       q    Type
REMARK                         _______ _______ _______ _____ _____    ______ ____
ROOT
ATOM      1  O   UNL     1       2.336   6.328  20.684  0.00  0.00    +0.000 OA
ATOM      2  C   UNL     1       2.070   7.061  19.736  0.00  0.00    +0.000 C 
ATOM      3  N   UNL     1       2.348   6.823  18.401  0.00  0.00    +0.000 N 
ATOM      4  H   UNL     1       2.250   7.605  17.772  0.00  0.00    +0.000 HD
ENDROOT
BRANCH   3   5
ATOM      5  C   UNL     1       2.968   5.653  17.876  0.00  0.00    +0.000 A 
ATOM      6  C   UNL     1       2.244   4.456  17.768  0.00  0.00    +0.000 A 
ATOM      7  C   UNL     1       2.842   3.288  17.305  0.00  0.00    +0.000 A 
ATOM      8  C   UNL     1       4.177   3.299  16.931  0.00  0.00    +0.000 A 
ATOM      9  C   UNL     1       4.930   4.478  16.999  0.00  0.00    +0.000 A 
ATOM     10  C   UNL     1       6.280   4.444  16.616  0.00  0.00    +0.000 A 
ATOM     11  C   UNL     1       7.072   5.586  16.678  0.00  0.00    +0.000 A 
ATOM     12  C   UNL     1       6.521   6.780  17.118  0.00  0.00    +0.000 A 
ATOM     13  C   UNL     1       5.177   6.831  17.503  0.00  0.00    +0.000 A 
ATOM     14  C   UNL     1       4.338   5.686  17.462  0.00  0.00    +0.000 A 
ENDBRANCH   3   5
BRANCH   2  15
ATOM     15  C   UNL     1       1.444   8.371  20.053  0.00  0.00    +0.000 A 
ATOM     16  C   UNL     1       1.302   9.388  19.101  0.00  0.00    +0.000 A 
ATOM     17  C   UNL     1       0.646  10.574  19.450  0.00  0.00    +0.000 A 
ATOM     18  C   UNL     1       0.141  10.742  20.739  0.00  0.00    +0.000 A 
ATOM     19  C   UNL     1       0.270   9.719  21.683  0.00  0.00    +0.000 A 
ATOM     20  C   UNL     1       0.928   8.542  21.345  0.00  0.00    +0.000 A 
ATOM     21  O   UNL     1      -0.224   9.800  22.958  0.00  0.00    +0.000 OA
ATOM     22  C   UNL     1      -1.180  10.856  23.082  0.00  0.00    +0.000 C 
ATOM     23  C   UNL     1      -0.672  12.124  22.415  0.00  0.00    +0.000 C 
ATOM     24  O   UNL     1      -0.491  11.929  21.007  0.00  0.00    +0.000 OA
ENDBRANCH   2  15
TORSDOF 2
ENDMDL
MODEL 6
REMARK VINA RESULT:      -8.1      1.359      1.411
REMARK  Name = 
REMARK  2 active torsions:
REMARK  status: ('A' for Active; 'I' for Inactive)
REMARK    1  A    between atoms: C_2  and  C_14
REMARK    2  A    between atoms: N_3  and  C_4
REMARK                            x       y       z     vdW  Elec       q    Type
REMARK                         _______ _______ _______ _____ _____    ______ ____
ROOT
ATOM      1  O   UNL     1       2.275   8.689  17.425  0.00  0.00    +0.000 OA
ATOM      2  C   UNL     1       1.871   8.486  18.566  0.00  0.00    +0.000 C 
ATOM      3  N   UNL     1       2.162   7.394  19.366  0.00  0.00    +0.000 N 
ATOM      4  H   UNL     1       1.597   7.275  20.192  0.00  0.00    +0.000 HD
ENDROOT
BRANCH   3   5
ATOM      5  C   UNL     1       3.022   6.313  19.017  0.00  0.00    +0.000 A 
ATOM      6  C   UNL     1       3.924   6.442  17.950  0.00  0.00    +0.000 A 
ATOM      7  C   UNL     1       4.738   5.384  17.559  0.00  0.00    +0.000 A 
ATOM      8  C   UNL     1       4.673   4.177  18.238  0.00  0.00    +0.000 A 
ATOM      9  C   UNL     1       3.805   4.013  19.325  0.00  0.00    +0.000 A 
ATOM     10  C   UNL     1       3.766   2.773  19.981  0.00  0.00    +0.000 A 
ATOM     11  C   UNL     1       2.912   2.558  21.058  0.00  0.00    +0.000 A 
ATOM     12  C   UNL     1       2.090   3.584  21.498  0.00  0.00    +0.000 A 
ATOM     13  C   UNL     1       2.117   4.826  20.855  0.00  0.00    +0.000 A 
ATOM     14  C   UNL     1       2.968   5.083  19.747  0.00  0.00    +0.000 A 
ENDBRANCH   3   5
BRANCH   2  15
ATOM     15  C   UNL     1       0.919   9.477  19.130  0.00  0.00    +0.000 A 
ATOM     16  C   UNL     1      -0.010  10.165  18.338  0.00  0.00    +0.000 A 
ATOM     17  C   UNL     1      -0.920  11.039  18.943  0.00  0.00    +0.000 A 
ATOM     18  C   UNL     1      -0.900  11.225  20.325  0.00  0.00    +0.000 A 
ATOM     19  C   UNL     1       0.016  10.524  21.114  0.00  0.00    +0.000 A 
ATOM     20  C   UNL     1       0.929   9.662  20.519  0.00  0.00    +0.000 A 
ATOM     21  O   UNL     1       0.078  10.634  22.479  0.00  0.00    +0.000 OA
ATOM     22  C   UNL     1      -1.109  11.231  23.009  0.00  0.00    +0.000 C 
ATOM     23  C   UNL     1      -1.506  12.453  22.196  0.00  0.00    +0.000 C 
ATOM     24  O   UNL     1      -1.824  12.094  20.846  0.00  0.00    +0.000 OA
ENDBRANCH   2  15
TORSDOF 2
ENDMDL
MODEL 7
REMARK VINA RESULT:      -8.1      2.261      7.838
REMARK  Name = 
REMARK  2 active torsions:
REMARK  status: ('A' for Active; 'I' for Inactive)
REMARK    1  A    between atoms: C_2  and  C_14
REMARK    2  A    between atoms: N_3  and  C_4
REMARK                            x       y       z     vdW  Elec       q    Type
REMARK                         _______ _______ _______ _____ _____    ______ ____
ROOT
ATOM      1  O   UNL     1       2.392   9.751  17.472  0.00  0.00    +0.000 OA
ATOM      2  C   UNL     1       2.104   8.792  18.181  0.00  0.00    +0.000 C 
ATOM      3  N   UNL     1       1.221   8.785  19.247  0.00  0.00    +0.000 N 
ATOM      4  H   UNL     1       1.245   7.977  19.850  0.00  0.00    +0.000 HD
ENDROOT
BRANCH   3   5
ATOM      5  C   UNL     1       0.450   9.896  19.697  0.00  0.00    +0.000 A 
ATOM      6  C   UNL     1       0.791  10.558  20.885  0.00  0.00    +0.000 A 
ATOM      7  C   UNL     1       0.025  11.613  21.372  0.00  0.00    +0.000 A 
ATOM      8  C   UNL     1      -1.094  12.033  20.668  0.00  0.00    +0.000 A 
ATOM      9  C   UNL     1      -1.455  11.416  19.464  0.00  0.00    +0.000 A 
ATOM     10  C   UNL     1      -2.598  11.868  18.786  0.00  0.00    +0.000 A 
ATOM     11  C   UNL     1      -3.005  11.279  17.593  0.00  0.00    +0.000 A 
ATOM     12  C   UNL     1      -2.268  10.234  17.058  0.00  0.00    +0.000 A 
ATOM     13  C   UNL     1      -1.126   9.772  17.721  0.00  0.00    +0.000 A 
ATOM     14  C   UNL     1      -0.683  10.340  18.944  0.00  0.00    +0.000 A 
ENDBRANCH   3   5
BRANCH   2  15
ATOM     15  C   UNL     1       2.822   7.519  17.915  0.00  0.00    +0.000 A 
ATOM     16  C   UNL     1       2.324   6.273  18.319  0.00  0.00    +0.000 A 
ATOM     17  C   UNL     1       3.020   5.108  17.981  0.00  0.00    +0.000 A 
ATOM     18  C   UNL     1       4.206   5.187  17.250  0.00  0.00    +0.000 A 
ATOM     19  C   UNL     1       4.692   6.430  16.834  0.00  0.00    +0.000 A 
ATOM     20  C   UNL     1       4.010   7.592  17.173  0.00  0.00    +0.000 A 
ATOM     21  O   UNL     1       5.832   6.585  16.091  0.00  0.00    +0.000 OA
ATOM     22  C   UNL     1       6.237   5.351  15.491  0.00  0.00    +0.000 C 
ATOM     23  C   UNL     1       6.173   4.216  16.501  0.00  0.00    +0.000 C 
ATOM     24  O   UNL     1       4.831   4.003  16.954  0.00  0.00    +0.000 OA
ENDBRANCH   2  15
TORSDOF 2
ENDMDL
MODEL 8
REMARK VINA RESULT:      -8.0      2.510      7.730
REMARK  Name = 
REMARK  2 active torsions:
REMARK  status: ('A' for Active; 'I' for Inactive)
REMARK    1  A    between atoms: C_2  and  C_14
REMARK    2  A    between atoms: N_3  and  C_4
REMARK                            x       y       z     vdW  Elec       q    Type
REMARK                         _______ _______ _______ _____ _____    ______ ____
ROOT
ATOM      1  O   UNL     1       1.959  10.044  17.565  0.00  0.00    +0.000 OA
ATOM      2  C   UNL     1       1.627   9.194  18.386  0.00  0.00    +0.000 C 
ATOM      3  N   UNL     1       0.577   9.277  19.285  0.00  0.00    +0.000 N 
ATOM      4  H   UNL     1       0.558   8.590  20.023  0.00  0.00    +0.000 HD
ENDROOT
BRANCH   3   5
ATOM      5  C   UNL     1      -0.340  10.362  19.396  0.00  0.00    +0.000 A 
ATOM      6  C   UNL     1      -0.220  11.285  20.446  0.00  0.00    +0.000 A 
ATOM      7  C   UNL     1      -1.132  12.322  20.605  0.00  0.00    +0.000 A 
ATOM      8  C   UNL     1      -2.179  12.462  19.707  0.00  0.00    +0.000 A 
ATOM      9  C   UNL     1      -2.322  11.578  18.630  0.00  0.00    +0.000 A 
ATOM     10  C   UNL     1      -3.400  11.752  17.747  0.00  0.00    +0.000 A 
ATOM     11  C   UNL     1      -3.591  10.892  16.670  0.00  0.00    +0.000 A 
ATOM     12  C   UNL     1      -2.701   9.850  16.458  0.00  0.00    +0.000 A 
ATOM     13  C   UNL     1      -1.622   9.663  17.329  0.00  0.00    +0.000 A 
ATOM     14  C   UNL     1      -1.397  10.514  18.444  0.00  0.00    +0.000 A 
ENDBRANCH   3   5
BRANCH   2  15
ATOM     15  C   UNL     1       2.473   7.976  18.475  0.00  0.00    +0.000 A 
ATOM     16  C   UNL     1       2.342   7.041  19.510  0.00  0.00    +0.000 A 
ATOM     17  C   UNL     1       3.128   5.884  19.499  0.00  0.00    +0.000 A 
ATOM     18  C   UNL     1       4.040   5.666  18.465  0.00  0.00    +0.000 A 
ATOM     19  C   UNL     1       4.157   6.593  17.426  0.00  0.00    +0.000 A 
ATOM     20  C   UNL     1       3.385   7.749  17.435  0.00  0.00    +0.000 A 
ATOM     21  O   UNL     1       5.009   6.434  16.365  0.00  0.00    +0.000 OA
ATOM     22  C   UNL     1       5.463   5.083  16.257  0.00  0.00    +0.000 C 
ATOM     23  C   UNL     1       5.883   4.545  17.615  0.00  0.00    +0.000 C 
ATOM     24  O   UNL     1       4.773   4.509  18.521  0.00  0.00    +0.000 OA
ENDBRANCH   2  15
TORSDOF 2
ENDMDL
MODEL 9
REMARK VINA RESULT:      -8.0      1.716      3.344
REMARK  Name = 
REMARK  2 active torsions:
REMARK  status: ('A' for Active; 'I' for Inactive)
REMARK    1  A    between atoms: C_2  and  C_14
REMARK    2  A    between atoms: N_3  and  C_4
REMARK                            x       y       z     vdW  Elec       q    Type
REMARK                         _______ _______ _______ _____ _____    ______ ____
ROOT
ATOM      1  O   UNL     1       1.864   5.967  20.762  0.00  0.00    +0.000 OA
ATOM      2  C   UNL     1       1.890   6.887  19.950  0.00  0.00    +0.000 C 
ATOM      3  N   UNL     1       2.367   6.833  18.651  0.00  0.00    +0.000 N 
ATOM      4  H   UNL     1       2.505   7.714  18.182  0.00  0.00    +0.000 HD
ENDROOT
BRANCH   3   5
ATOM      5  C   UNL     1       2.887   5.675  18.003  0.00  0.00    +0.000 A 
ATOM      6  C   UNL     1       2.095   4.526  17.864  0.00  0.00    +0.000 A 
ATOM      7  C   UNL     1       2.597   3.367  17.281  0.00  0.00    +0.000 A 
ATOM      8  C   UNL     1       3.902   3.341  16.814  0.00  0.00    +0.000 A 
ATOM      9  C   UNL     1       4.719   4.474  16.910  0.00  0.00    +0.000 A 
ATOM     10  C   UNL     1       6.037   4.403  16.431  0.00  0.00    +0.000 A 
ATOM     11  C   UNL     1       6.891   5.498  16.515  0.00  0.00    +0.000 A 
ATOM     12  C   UNL     1       6.436   6.682  17.075  0.00  0.00    +0.000 A 
ATOM     13  C   UNL     1       5.125   6.769  17.557  0.00  0.00    +0.000 A 
ATOM     14  C   UNL     1       4.226   5.672  17.497  0.00  0.00    +0.000 A 
ENDBRANCH   3   5
BRANCH   2  15
ATOM     15  C   UNL     1       1.423   8.216  20.423  0.00  0.00    +0.000 A 
ATOM     16  C   UNL     1       1.181   8.493  21.774  0.00  0.00    +0.000 A 
ATOM     17  C   UNL     1       0.804   9.784  22.158  0.00  0.00    +0.000 A 
ATOM     18  C   UNL     1       0.667  10.788  21.199  0.00  0.00    +0.000 A 
ATOM     19  C   UNL     1       0.925  10.514  19.854  0.00  0.00    +0.000 A 
ATOM     20  C   UNL     1       1.292   9.231  19.464  0.00  0.00    +0.000 A 
ATOM     21  O   UNL     1       0.839  11.453  18.861  0.00  0.00    +0.000 OA
ATOM     22  C   UNL     1       0.828  12.780  19.395  0.00  0.00    +0.000 C 
ATOM     23  C   UNL     1      -0.126  12.876  20.575  0.00  0.00    +0.000 C 
ATOM     24  O   UNL     1       0.297  12.029  21.651  0.00  0.00    +0.000 OA
ENDBRANCH   2  15
TORSDOF 2
ENDMDL
