MODEL 1
REMARK VINA RESULT:      -8.7      0.000      0.000
REMARK  Name = 
REMARK  9 active torsions:
REMARK  status: ('A' for Active; 'I' for Inactive)
REMARK    1  A    between atoms: C_1  and  O_2
REMARK    2  A    between atoms: O_2  and  C_3
REMARK    3  A    between atoms: C_5  and  C_6
REMARK    4  A    between atoms: C_6  and  C_7
REMARK    5  A    between atoms: C_12  and  C_13
REMARK    6  A    between atoms: C_13  and  C_14
REMARK    7  A    between atoms: C_16  and  O_17
REMARK    8  A    between atoms: O_17  and  C_18
REMARK    9  A    between atoms: C_27  and  O_28
REMARK                            x       y       z     vdW  Elec       q    Type
REMARK                         _______ _______ _______ _____ _____    ______ ____
ROOT
ATOM      1  C   UNL     1       2.216   4.118  19.328  0.00  0.00    +0.000 C 
ATOM      2  C   UNL     1       1.588   3.161  20.306  0.00  0.00    +0.000 C 
ATOM      3  O   UNL     1       0.892   3.473  21.254  0.00  0.00    +0.000 OA
ATOM      4  O   UNL     1       1.829   1.873  19.921  0.00  0.00    +0.000 OA
ATOM      5  C   UNL     1       2.513   1.862  18.669  0.00  0.00    +0.000 C 
ATOM      6  C   UNL     1       3.166   3.226  18.542  0.00  0.00    +0.000 C 
ENDROOT
BRANCH   1   7
ATOM      7  C   UNL     1       2.859   5.350  19.971  0.00  0.00    +0.000 C 
BRANCH   7  10
ATOM      8  C   UNL     1       1.322   8.857  19.900  0.00  0.00    +0.000 A 
ATOM      9  C   UNL     1       1.772   7.601  20.333  0.00  0.00    +0.000 A 
ATOM     10  C   UNL     1       2.396   6.696  19.462  0.00  0.00    +0.000 A 
ATOM     11  C   UNL     1       2.567   7.069  18.126  0.00  0.00    +0.000 A 
ATOM     12  C   UNL     1       2.139   8.323  17.681  0.00  0.00    +0.000 A 
ATOM     13  C   UNL     1       1.516   9.214  18.563  0.00  0.00    +0.000 A 
BRANCH   8  15
ATOM     14  C   UNL     1       1.037   9.244  22.245  0.00  0.00    +0.000 C 
ATOM     15  O   UNL     1       0.731   9.580  20.901  0.00  0.00    +0.000 OA
ENDBRANCH   8  15
BRANCH  13  16
ATOM     16  O   UNL     1       1.110  10.424  18.077  0.00  0.00    +0.000 OA
ATOM     17  H   UNL     1       1.438  10.532  17.170  0.00  0.00    +0.000 HD
ENDBRANCH  13  16
ENDBRANCH   7  10
ENDBRANCH   1   7
BRANCH   6  18
ATOM     18  C   UNL     1       3.380   3.716  17.097  0.00  0.00    +0.000 C 
BRANCH  18  19
ATOM     19  C   UNL     1       4.777   4.244  16.895  0.00  0.00    +0.000 A 
ATOM     20  C   UNL     1       5.345   4.296  15.602  0.00  0.00    +0.000 A 
ATOM     21  C   UNL     1       6.459   5.102  15.327  0.00  0.00    +0.000 A 
ATOM     22  C   UNL     1       6.990   5.818  16.385  0.00  0.00    +0.000 A 
ATOM     23  C   UNL     1       6.505   5.659  17.670  0.00  0.00    +0.000 A 
ATOM     24  C   UNL     1       5.432   4.856  17.968  0.00  0.00    +0.000 A 
ATOM     25  O   UNL     1       7.112   6.490  18.566  0.00  0.00    +0.000 OA
ATOM     26  C   UNL     1       7.729   7.401  17.641  0.00  0.00    +0.000 C 
ATOM     27  O   UNL     1       7.945   6.793  16.352  0.00  0.00    +0.000 OA
BRANCH  21  28
ATOM     28  O   UNL     1       6.834   5.130  14.017  0.00  0.00    +0.000 OA
ATOM     29  C   UNL     1       6.442   4.018  13.222  0.00  0.00    +0.000 C 
ENDBRANCH  21  28
ENDBRANCH  18  19
ENDBRANCH   6  18
TORSDOF 7
ENDMDL
MODEL 2
REMARK VINA RESULT:      -8.4      1.199      6.506
REMARK  Name = 
REMARK  9 active torsions:
REMARK  status: ('A' for Active; 'I' for Inactive)
REMARK    1  A    between atoms: C_1  and  O_2
REMARK    2  A    between atoms: O_2  and  C_3
REMARK    3  A    between atoms: C_5  and  C_6
REMARK    4  A    between atoms: C_6  and  C_7
REMARK    5  A    between atoms: C_12  and  C_13
REMARK    6  A    between atoms: C_13  and  C_14
REMARK    7  A    between atoms: C_16  and  O_17
REMARK    8  A    between atoms: O_17  and  C_18
REMARK    9  A    between atoms: C_27  and  O_28
REMARK                            x       y       z     vdW  Elec       q    Type
REMARK                         _______ _______ _______ _____ _____    ______ ____
ROOT
ATOM      1  C   UNL     1       2.817   4.053  19.069  0.00  0.00    +0.000 C 
ATOM      2  C   UNL     1       2.401   2.611  19.195  0.00  0.00    +0.000 C 
ATOM      3  O   UNL     1       2.741   1.709  18.452  0.00  0.00    +0.000 OA
ATOM      4  O   UNL     1       1.659   2.435  20.328  0.00  0.00    +0.000 OA
ATOM      5  C   UNL     1       1.606   3.654  21.066  0.00  0.00    +0.000 C 
ATOM      6  C   UNL     1       1.909   4.757  20.067  0.00  0.00    +0.000 C 
ENDROOT
BRANCH   1   7
ATOM      7  C   UNL     1       2.769   4.604  17.641  0.00  0.00    +0.000 C 
BRANCH   7  10
ATOM      8  C   UNL     1       6.049   6.187  16.456  0.00  0.00    +0.000 A 
ATOM      9  C   UNL     1       4.816   5.978  17.091  0.00  0.00    +0.000 A 
ATOM     10  C   UNL     1       4.097   4.783  16.943  0.00  0.00    +0.000 A 
ATOM     11  C   UNL     1       4.638   3.778  16.134  0.00  0.00    +0.000 A 
ATOM     12  C   UNL     1       5.873   3.963  15.506  0.00  0.00    +0.000 A 
ATOM     13  C   UNL     1       6.575   5.163  15.663  0.00  0.00    +0.000 A 
BRANCH   8  15
ATOM     14  C   UNL     1       7.619   7.518  17.678  0.00  0.00    +0.000 C 
ATOM     15  O   UNL     1       6.576   7.421  16.720  0.00  0.00    +0.000 OA
ENDBRANCH   8  15
BRANCH  13  16
ATOM     16  O   UNL     1       7.775   5.297  15.023  0.00  0.00    +0.000 OA
ATOM     17  H   UNL     1       8.494   5.124  15.650  0.00  0.00    +0.000 HD
ENDBRANCH  13  16
ENDBRANCH   7  10
ENDBRANCH   1   7
BRANCH   6  18
ATOM     18  C   UNL     1       2.554   6.022  20.666  0.00  0.00    +0.000 C 
BRANCH  18  19
ATOM     19  C   UNL     1       1.853   7.272  20.199  0.00  0.00    +0.000 A 
ATOM     20  C   UNL     1       1.148   8.084  21.116  0.00  0.00    +0.000 A 
ATOM     21  C   UNL     1       0.811   9.409  20.806  0.00  0.00    +0.000 A 
ATOM     22  C   UNL     1       1.174   9.871  19.554  0.00  0.00    +0.000 A 
ATOM     23  C   UNL     1       1.748   9.028  18.620  0.00  0.00    +0.000 A 
ATOM     24  C   UNL     1       2.064   7.720  18.892  0.00  0.00    +0.000 A 
ATOM     25  O   UNL     1       2.092   9.676  17.470  0.00  0.00    +0.000 OA
ATOM     26  C   UNL     1       2.008  11.030  17.944  0.00  0.00    +0.000 C 
ATOM     27  O   UNL     1       1.124  11.149  19.076  0.00  0.00    +0.000 OA
BRANCH  21  28
ATOM     28  O   UNL     1       0.223  10.102  21.823  0.00  0.00    +0.000 OA
ATOM     29  C   UNL     1      -0.442   9.328  22.814  0.00  0.00    +0.000 C 
ENDBRANCH  21  28
ENDBRANCH  18  19
ENDBRANCH   6  18
TORSDOF 7
ENDMDL
MODEL 3
REMARK VINA RESULT:      -8.3      1.051      6.547
REMARK  Name = 
REMARK  9 active torsions:
REMARK  status: ('A' for Active; 'I' for Inactive)
REMARK    1  A    between atoms: C_1  and  O_2
REMARK    2  A    between atoms: O_2  and  C_3
REMARK    3  A    between atoms: C_5  and  C_6
REMARK    4  A    between atoms: C_6  and  C_7
REMARK    5  A    between atoms: C_12  and  C_13
REMARK    6  A    between atoms: C_13  and  C_14
REMARK    7  A    between atoms: C_16  and  O_17
REMARK    8  A    between atoms: O_17  and  C_18
REMARK    9  A    between atoms: C_27  and  O_28
REMARK                            x       y       z     vdW  Elec       q    Type
REMARK                         _______ _______ _______ _____ _____    ______ ____
ROOT
ATOM      1  C   UNL     1       3.741   3.498  18.523  0.00  0.00    +0.000 C 
ATOM      2  C   UNL     1       3.402   2.105  18.983  0.00  0.00    +0.000 C 
ATOM      3  O   UNL     1       3.728   1.076  18.421  0.00  0.00    +0.000 OA
ATOM      4  O   UNL     1       2.755   2.152  20.185  0.00  0.00    +0.000 OA
ATOM      5  C   UNL     1       2.700   3.500  20.652  0.00  0.00    +0.000 C 
ATOM      6  C   UNL     1       2.877   4.372  19.421  0.00  0.00    +0.000 C 
ENDROOT
BRANCH   1   7
ATOM      7  C   UNL     1       3.562   3.730  17.020  0.00  0.00    +0.000 C 
BRANCH   7  10
ATOM      8  C   UNL     1       6.688   5.741  16.098  0.00  0.00    +0.000 A 
ATOM      9  C   UNL     1       5.555   5.262  16.772  0.00  0.00    +0.000 A 
ATOM     10  C   UNL     1       4.779   4.210  16.263  0.00  0.00    +0.000 A 
ATOM     11  C   UNL     1       5.157   3.633  15.047  0.00  0.00    +0.000 A 
ATOM     12  C   UNL     1       6.292   4.088  14.370  0.00  0.00    +0.000 A 
ATOM     13  C   UNL     1       7.054   5.140  14.891  0.00  0.00    +0.000 A 
BRANCH   8  15
ATOM     14  C   UNL     1       7.556   6.633  18.143  0.00  0.00    +0.000 C 
ATOM     15  O   UNL     1       7.294   6.777  16.756  0.00  0.00    +0.000 OA
ENDBRANCH   8  15
BRANCH  13  16
ATOM     16  O   UNL     1       8.150   5.552  14.187  0.00  0.00    +0.000 OA
ATOM     17  H   UNL     1       7.869   6.156  13.482  0.00  0.00    +0.000 HD
ENDBRANCH  13  16
ENDBRANCH   7  10
ENDBRANCH   1   7
BRANCH   6  18
ATOM     18  C   UNL     1       3.506   5.754  19.686  0.00  0.00    +0.000 C 
BRANCH  18  19
ATOM     19  C   UNL     1       2.494   6.860  19.522  0.00  0.00    +0.000 A 
ATOM     20  C   UNL     1       1.611   7.186  20.575  0.00  0.00    +0.000 A 
ATOM     21  C   UNL     1       0.933   8.412  20.603  0.00  0.00    +0.000 A 
ATOM     22  C   UNL     1       1.148   9.272  19.541  0.00  0.00    +0.000 A 
ATOM     23  C   UNL     1       1.914   8.888  18.455  0.00  0.00    +0.000 A 
ATOM     24  C   UNL     1       2.566   7.681  18.394  0.00  0.00    +0.000 A 
ATOM     25  O   UNL     1       2.062   9.888  17.539  0.00  0.00    +0.000 OA
ATOM     26  C   UNL     1       1.629  10.995  18.346  0.00  0.00    +0.000 C 
ATOM     27  O   UNL     1       0.758  10.574  19.413  0.00  0.00    +0.000 OA
BRANCH  21  28
ATOM     28  O   UNL     1       0.194   8.631  21.728  0.00  0.00    +0.000 OA
ATOM     29  C   UNL     1       0.794   9.440  22.732  0.00  0.00    +0.000 C 
ENDBRANCH  21  28
ENDBRANCH  18  19
ENDBRANCH   6  18
TORSDOF 7
ENDMDL
MODEL 4
REMARK VINA RESULT:      -8.3      1.282      6.821
REMARK  Name = 
REMARK  9 active torsions:
REMARK  status: ('A' for Active; 'I' for Inactive)
REMARK    1  A    between atoms: C_1  and  O_2
REMARK    2  A    between atoms: O_2  and  C_3
REMARK    3  A    between atoms: C_5  and  C_6
REMARK    4  A    between atoms: C_6  and  C_7
REMARK    5  A    between atoms: C_12  and  C_13
REMARK    6  A    between atoms: C_13  and  C_14
REMARK    7  A    between atoms: C_16  and  O_17
REMARK    8  A    between atoms: O_17  and  C_18
REMARK    9  A    between atoms: C_27  and  O_28
REMARK                            x       y       z     vdW  Elec       q    Type
REMARK                         _______ _______ _______ _____ _____    ______ ____
ROOT
ATOM      1  C   UNL     1       2.638   4.036  19.181  0.00  0.00    +0.000 C 
ATOM      2  C   UNL     1       2.205   2.599  19.298  0.00  0.00    +0.000 C 
ATOM      3  O   UNL     1       2.562   1.692  18.570  0.00  0.00    +0.000 OA
ATOM      4  O   UNL     1       1.423   2.433  20.405  0.00  0.00    +0.000 OA
ATOM      5  C   UNL     1       1.355   3.656  21.137  0.00  0.00    +0.000 C 
ATOM      6  C   UNL     1       1.703   4.752  20.145  0.00  0.00    +0.000 C 
ENDROOT
BRANCH   1   7
ATOM      7  C   UNL     1       2.645   4.583  17.751  0.00  0.00    +0.000 C 
BRANCH   7  10
ATOM      8  C   UNL     1       5.867   4.458  15.686  0.00  0.00    +0.000 A 
ATOM      9  C   UNL     1       4.616   4.142  16.235  0.00  0.00    +0.000 A 
ATOM     10  C   UNL     1       3.991   4.967  17.182  0.00  0.00    +0.000 A 
ATOM     11  C   UNL     1       4.647   6.135  17.582  0.00  0.00    +0.000 A 
ATOM     12  C   UNL     1       5.887   6.473  17.034  0.00  0.00    +0.000 A 
ATOM     13  C   UNL     1       6.497   5.638  16.091  0.00  0.00    +0.000 A 
BRANCH   8  15
ATOM     14  C   UNL     1       6.213   3.810  13.408  0.00  0.00    +0.000 C 
ATOM     15  O   UNL     1       6.305   3.518  14.794  0.00  0.00    +0.000 OA
ENDBRANCH   8  15
BRANCH  13  16
ATOM     16  O   UNL     1       7.714   6.010  15.591  0.00  0.00    +0.000 OA
ATOM     17  H   UNL     1       7.658   6.069  14.624  0.00  0.00    +0.000 HD
ENDBRANCH  13  16
ENDBRANCH   7  10
ENDBRANCH   1   7
BRANCH   6  18
ATOM     18  C   UNL     1       2.339   6.013  20.762  0.00  0.00    +0.000 C 
BRANCH  18  19
ATOM     19  C   UNL     1       1.662   7.268  20.271  0.00  0.00    +0.000 A 
ATOM     20  C   UNL     1       0.869   8.044  21.145  0.00  0.00    +0.000 A 
ATOM     21  C   UNL     1       0.540   9.373  20.844  0.00  0.00    +0.000 A 
ATOM     22  C   UNL     1       1.004   9.876  19.642  0.00  0.00    +0.000 A 
ATOM     23  C   UNL     1       1.669   9.068  18.738  0.00  0.00    +0.000 A 
ATOM     24  C   UNL     1       1.979   7.756  19.001  0.00  0.00    +0.000 A 
ATOM     25  O   UNL     1       2.102   9.753  17.641  0.00  0.00    +0.000 OA
ATOM     26  C   UNL     1       1.957  11.091  18.144  0.00  0.00    +0.000 C 
ATOM     27  O   UNL     1       0.977  11.167  19.197  0.00  0.00    +0.000 OA
BRANCH  21  28
ATOM     28  O   UNL     1      -0.144  10.029  21.825  0.00  0.00    +0.000 OA
ATOM     29  C   UNL     1       0.005   9.524  23.146  0.00  0.00    +0.000 C 
ENDBRANCH  21  28
ENDBRANCH  18  19
ENDBRANCH   6  18
TORSDOF 7
ENDMDL
MODEL 5
REMARK VINA RESULT:      -8.1      1.281      2.452
REMARK  Name = 
REMARK  9 active torsions:
REMARK  status: ('A' for Active; 'I' for Inactive)
REMARK    1  A    between atoms: C_1  and  O_2
REMARK    2  A    between atoms: O_2  and  C_3
REMARK    3  A    between atoms: C_5  and  C_6
REMARK    4  A    between atoms: C_6  and  C_7
REMARK    5  A    between atoms: C_12  and  C_13
REMARK    6  A    between atoms: C_13  and  C_14
REMARK    7  A    between atoms: C_16  and  O_17
REMARK    8  A    between atoms: O_17  and  C_18
REMARK    9  A    between atoms: C_27  and  O_28
REMARK                            x       y       z     vdW  Elec       q    Type
REMARK                         _______ _______ _______ _____ _____    ______ ____
ROOT
ATOM      1  C   UNL     1       2.780   4.188  18.847  0.00  0.00    +0.000 C 
ATOM      2  C   UNL     1       1.669   3.422  18.179  0.00  0.00    +0.000 C 
ATOM      3  O   UNL     1       0.673   3.912  17.681  0.00  0.00    +0.000 OA
ATOM      4  O   UNL     1       1.983   2.094  18.122  0.00  0.00    +0.000 OA
ATOM      5  C   UNL     1       3.301   1.887  18.626  0.00  0.00    +0.000 C 
ATOM      6  C   UNL     1       3.603   3.089  19.504  0.00  0.00    +0.000 C 
ENDROOT
BRANCH   1   7
ATOM      7  C   UNL     1       2.308   5.300  19.787  0.00  0.00    +0.000 C 
BRANCH   7  10
ATOM      8  C   UNL     1       1.569   9.041  19.428  0.00  0.00    +0.000 A 
ATOM      9  C   UNL     1       1.653   7.735  19.933  0.00  0.00    +0.000 A 
ATOM     10  C   UNL     1       2.245   6.694  19.205  0.00  0.00    +0.000 A 
ATOM     11  C   UNL     1       2.763   6.979  17.938  0.00  0.00    +0.000 A 
ATOM     12  C   UNL     1       2.702   8.278  17.425  0.00  0.00    +0.000 A 
ATOM     13  C   UNL     1       2.105   9.305  18.165  0.00  0.00    +0.000 A 
BRANCH   8  15
ATOM     14  C   UNL     1      -0.150   9.414  21.052  0.00  0.00    +0.000 C 
ATOM     15  O   UNL     1       0.943   9.901  20.288  0.00  0.00    +0.000 OA
ENDBRANCH   8  15
BRANCH  13  16
ATOM     16  O   UNL     1       2.064  10.556  17.616  0.00  0.00    +0.000 OA
ATOM     17  H   UNL     1       2.970  10.885  17.501  0.00  0.00    +0.000 HD
ENDBRANCH  13  16
ENDBRANCH   7  10
ENDBRANCH   1   7
BRANCH   6  18
ATOM     18  C   UNL     1       5.095   3.454  19.621  0.00  0.00    +0.000 C 
BRANCH  18  19
ATOM     19  C   UNL     1       5.534   4.347  18.487  0.00  0.00    +0.000 A 
ATOM     20  C   UNL     1       6.408   5.431  18.725  0.00  0.00    +0.000 A 
ATOM     21  C   UNL     1       7.118   6.037  17.678  0.00  0.00    +0.000 A 
ATOM     22  C   UNL     1       6.899   5.544  16.405  0.00  0.00    +0.000 A 
ATOM     23  C   UNL     1       5.945   4.570  16.170  0.00  0.00    +0.000 A 
ATOM     24  C   UNL     1       5.220   3.980  17.176  0.00  0.00    +0.000 A 
ATOM     25  O   UNL     1       5.916   4.168  14.867  0.00  0.00    +0.000 OA
ATOM     26  C   UNL     1       7.171   4.719  14.436  0.00  0.00    +0.000 C 
ATOM     27  O   UNL     1       7.580   5.831  15.257  0.00  0.00    +0.000 OA
BRANCH  21  28
ATOM     28  O   UNL     1       7.999   7.002  18.069  0.00  0.00    +0.000 OA
ATOM     29  C   UNL     1       7.693   8.334  17.676  0.00  0.00    +0.000 C 
ENDBRANCH  21  28
ENDBRANCH  18  19
ENDBRANCH   6  18
TORSDOF 7
ENDMDL
MODEL 6
REMARK VINA RESULT:      -7.8      1.535      7.008
REMARK  Name = 
REMARK  9 active torsions:
REMARK  status: ('A' for Active; 'I' for Inactive)
REMARK    1  A    between atoms: C_1  and  O_2
REMARK    2  A    between atoms: O_2  and  C_3
REMARK    3  A    between atoms: C_5  and  C_6
REMARK    4  A    between atoms: C_6  and  C_7
REMARK    5  A    between atoms: C_12  and  C_13
REMARK    6  A    between atoms: C_13  and  C_14
REMARK    7  A    between atoms: C_16  and  O_17
REMARK    8  A    between atoms: O_17  and  C_18
REMARK    9  A    between atoms: C_27  and  O_28
REMARK                            x       y       z     vdW  Elec       q    Type
REMARK                         _______ _______ _______ _____ _____    ______ ____
ROOT
ATOM      1  C   UNL     1       3.824   3.435  18.334  0.00  0.00    +0.000 C 
ATOM      2  C   UNL     1       3.424   2.073  18.835  0.00  0.00    +0.000 C 
ATOM      3  O   UNL     1       3.728   1.013  18.322  0.00  0.00    +0.000 OA
ATOM      4  O   UNL     1       2.745   2.188  20.015  0.00  0.00    +0.000 OA
ATOM      5  C   UNL     1       2.725   3.553  20.430  0.00  0.00    +0.000 C 
ATOM      6  C   UNL     1       2.967   4.371  19.174  0.00  0.00    +0.000 C 
ENDROOT
BRANCH   1   7
ATOM      7  C   UNL     1       3.695   3.616  16.819  0.00  0.00    +0.000 C 
BRANCH   7  10
ATOM      8  C   UNL     1       6.197   4.356  14.016  0.00  0.00    +0.000 A 
ATOM      9  C   UNL     1       5.077   3.896  14.723  0.00  0.00    +0.000 A 
ATOM     10  C   UNL     1       4.916   4.135  16.096  0.00  0.00    +0.000 A 
ATOM     11  C   UNL     1       5.911   4.853  16.767  0.00  0.00    +0.000 A 
ATOM     12  C   UNL     1       7.027   5.332  16.074  0.00  0.00    +0.000 A 
ATOM     13  C   UNL     1       7.172   5.082  14.704  0.00  0.00    +0.000 A 
BRANCH   8  15
ATOM     14  C   UNL     1       5.142   3.128  12.253  0.00  0.00    +0.000 C 
ATOM     15  O   UNL     1       6.167   4.005  12.694  0.00  0.00    +0.000 OA
ENDBRANCH   8  15
BRANCH  13  16
ATOM     16  O   UNL     1       8.285   5.566  14.075  0.00  0.00    +0.000 OA
ATOM     17  H   UNL     1       8.542   6.408  14.482  0.00  0.00    +0.000 HD
ENDBRANCH  13  16
ENDBRANCH   7  10
ENDBRANCH   1   7
BRANCH   6  18
ATOM     18  C   UNL     1       3.636   5.740  19.405  0.00  0.00    +0.000 C 
BRANCH  18  19
ATOM     19  C   UNL     1       2.623   6.856  19.402  0.00  0.00    +0.000 A 
ATOM     20  C   UNL     1       1.952   7.220  20.590  0.00  0.00    +0.000 A 
ATOM     21  C   UNL     1       1.303   8.457  20.711  0.00  0.00    +0.000 A 
ATOM     22  C   UNL     1       1.328   9.288  19.606  0.00  0.00    +0.000 A 
ATOM     23  C   UNL     1       1.877   8.867  18.408  0.00  0.00    +0.000 A 
ATOM     24  C   UNL     1       2.494   7.650  18.258  0.00  0.00    +0.000 A 
ATOM     25  O   UNL     1       1.863   9.842  17.454  0.00  0.00    +0.000 OA
ATOM     26  C   UNL     1       1.598  10.975  18.298  0.00  0.00    +0.000 C 
ATOM     27  O   UNL     1       0.934  10.592  19.518  0.00  0.00    +0.000 OA
BRANCH  21  28
ATOM     28  O   UNL     1       0.787   8.713  21.947  0.00  0.00    +0.000 OA
ATOM     29  C   UNL     1      -0.628   8.841  22.027  0.00  0.00    +0.000 C 
ENDBRANCH  21  28
ENDBRANCH  18  19
ENDBRANCH   6  18
TORSDOF 7
ENDMDL
MODEL 7
REMARK VINA RESULT:      -7.8      1.531      6.502
REMARK  Name = 
REMARK  9 active torsions:
REMARK  status: ('A' for Active; 'I' for Inactive)
REMARK    1  A    between atoms: C_1  and  O_2
REMARK    2  A    between atoms: O_2  and  C_3
REMARK    3  A    between atoms: C_5  and  C_6
REMARK    4  A    between atoms: C_6  and  C_7
REMARK    5  A    between atoms: C_12  and  C_13
REMARK    6  A    between atoms: C_13  and  C_14
REMARK    7  A    between atoms: C_16  and  O_17
REMARK    8  A    between atoms: O_17  and  C_18
REMARK    9  A    between atoms: C_27  and  O_28
REMARK                            x       y       z     vdW  Elec       q    Type
REMARK                         _______ _______ _______ _____ _____    ______ ____
ROOT
ATOM      1  C   UNL     1       2.962   3.731  19.094  0.00  0.00    +0.000 C 
ATOM      2  C   UNL     1       2.340   2.374  19.288  0.00  0.00    +0.000 C 
ATOM      3  O   UNL     1       2.713   1.343  18.760  0.00  0.00    +0.000 OA
ATOM      4  O   UNL     1       1.349   2.441  20.225  0.00  0.00    +0.000 OA
ATOM      5  C   UNL     1       1.297   3.755  20.780  0.00  0.00    +0.000 C 
ATOM      6  C   UNL     1       1.958   4.663  19.757  0.00  0.00    +0.000 C 
ENDROOT
BRANCH   1   7
ATOM      7  C   UNL     1       3.306   4.069  17.641  0.00  0.00    +0.000 C 
BRANCH   7  10
ATOM      8  C   UNL     1       6.888   5.395  17.912  0.00  0.00    +0.000 A 
ATOM      9  C   UNL     1       5.730   4.624  18.084  0.00  0.00    +0.000 A 
ATOM     10  C   UNL     1       4.532   4.925  17.420  0.00  0.00    +0.000 A 
ATOM     11  C   UNL     1       4.506   6.030  16.564  0.00  0.00    +0.000 A 
ATOM     12  C   UNL     1       5.656   6.800  16.367  0.00  0.00    +0.000 A 
ATOM     13  C   UNL     1       6.842   6.487  17.041  0.00  0.00    +0.000 A 
BRANCH   8  15
ATOM     14  C   UNL     1       8.194   5.560  19.911  0.00  0.00    +0.000 C 
ATOM     15  O   UNL     1       7.941   4.941  18.659  0.00  0.00    +0.000 OA
ENDBRANCH   8  15
BRANCH  13  16
ATOM     16  O   UNL     1       7.936   7.275  16.820  0.00  0.00    +0.000 OA
ATOM     17  H   UNL     1       7.999   7.478  15.874  0.00  0.00    +0.000 HD
ENDBRANCH  13  16
ENDBRANCH   7  10
ENDBRANCH   1   7
BRANCH   6  18
ATOM     18  C   UNL     1       2.618   5.928  20.338  0.00  0.00    +0.000 C 
BRANCH  18  19
ATOM     19  C   UNL     1       1.804   7.161  20.037  0.00  0.00    +0.000 A 
ATOM     20  C   UNL     1       0.871   7.653  20.976  0.00  0.00    +0.000 A 
ATOM     21  C   UNL     1       0.383   8.965  20.900  0.00  0.00    +0.000 A 
ATOM     22  C   UNL     1       0.835   9.741  19.849  0.00  0.00    +0.000 A 
ATOM     23  C   UNL     1       1.648   9.209  18.865  0.00  0.00    +0.000 A 
ATOM     24  C   UNL     1       2.117   7.919  18.905  0.00  0.00    +0.000 A 
ATOM     25  O   UNL     1       2.039  10.139  17.948  0.00  0.00    +0.000 OA
ATOM     26  C   UNL     1       1.691  11.329  18.675  0.00  0.00    +0.000 C 
ATOM     27  O   UNL     1       0.657  11.080  19.648  0.00  0.00    +0.000 OA
BRANCH  21  28
ATOM     28  O   UNL     1      -0.432   9.332  21.930  0.00  0.00    +0.000 OA
ATOM     29  C   UNL     1       0.195   9.537  23.191  0.00  0.00    +0.000 C 
ENDBRANCH  21  28
ENDBRANCH  18  19
ENDBRANCH   6  18
TORSDOF 7
ENDMDL
MODEL 8
REMARK VINA RESULT:      -7.8      1.259      6.874
REMARK  Name = 
REMARK  9 active torsions:
REMARK  status: ('A' for Active; 'I' for Inactive)
REMARK    1  A    between atoms: C_1  and  O_2
REMARK    2  A    between atoms: O_2  and  C_3
REMARK    3  A    between atoms: C_5  and  C_6
REMARK    4  A    between atoms: C_6  and  C_7
REMARK    5  A    between atoms: C_12  and  C_13
REMARK    6  A    between atoms: C_13  and  C_14
REMARK    7  A    between atoms: C_16  and  O_17
REMARK    8  A    between atoms: O_17  and  C_18
REMARK    9  A    between atoms: C_27  and  O_28
REMARK                            x       y       z     vdW  Elec       q    Type
REMARK                         _______ _______ _______ _____ _____    ______ ____
ROOT
ATOM      1  C   UNL     1       2.718   3.871  18.973  0.00  0.00    +0.000 C 
ATOM      2  C   UNL     1       2.014   2.643  19.485  0.00  0.00    +0.000 C 
ATOM      3  O   UNL     1       2.202   1.505  19.095  0.00  0.00    +0.000 OA
ATOM      4  O   UNL     1       1.197   2.971  20.529  0.00  0.00    +0.000 OA
ATOM      5  C   UNL     1       1.355   4.352  20.850  0.00  0.00    +0.000 C 
ATOM      6  C   UNL     1       1.923   5.006  19.603  0.00  0.00    +0.000 C 
ENDROOT
BRANCH   1   7
ATOM      7  C   UNL     1       2.853   3.936  17.449  0.00  0.00    +0.000 C 
BRANCH   7  10
ATOM      8  C   UNL     1       6.638   4.501  17.316  0.00  0.00    +0.000 A 
ATOM      9  C   UNL     1       5.334   4.272  17.779  0.00  0.00    +0.000 A 
ATOM     10  C   UNL     1       4.241   4.177  16.905  0.00  0.00    +0.000 A 
ATOM     11  C   UNL     1       4.473   4.319  15.533  0.00  0.00    +0.000 A 
ATOM     12  C   UNL     1       5.768   4.532  15.052  0.00  0.00    +0.000 A 
ATOM     13  C   UNL     1       6.847   4.626  15.940  0.00  0.00    +0.000 A 
BRANCH   8  15
ATOM     14  C   UNL     1       7.560   5.730  19.151  0.00  0.00    +0.000 C 
ATOM     15  O   UNL     1       7.553   4.573  18.330  0.00  0.00    +0.000 OA
ENDBRANCH   8  15
BRANCH  13  16
ATOM     16  O   UNL     1       8.092   4.842  15.420  0.00  0.00    +0.000 OA
ATOM     17  H   UNL     1       8.409   5.715  15.701  0.00  0.00    +0.000 HD
ENDBRANCH  13  16
ENDBRANCH   7  10
ENDBRANCH   1   7
BRANCH   6  18
ATOM     18  C   UNL     1       2.779   6.261  19.855  0.00  0.00    +0.000 C 
BRANCH  18  19
ATOM     19  C   UNL     1       1.923   7.494  19.995  0.00  0.00    +0.000 A 
ATOM     20  C   UNL     1       1.525   7.951  21.271  0.00  0.00    +0.000 A 
ATOM     21  C   UNL     1       1.061   9.259  21.464  0.00  0.00    +0.000 A 
ATOM     22  C   UNL     1       0.985  10.068  20.345  0.00  0.00    +0.000 A 
ATOM     23  C   UNL     1       1.255   9.571  19.083  0.00  0.00    +0.000 A 
ATOM     24  C   UNL     1       1.686   8.285  18.867  0.00  0.00    +0.000 A 
ATOM     25  O   UNL     1       1.187  10.529  18.116  0.00  0.00    +0.000 OA
ATOM     26  C   UNL     1       1.214  11.695  18.955  0.00  0.00    +0.000 C 
ATOM     27  O   UNL     1       0.740  11.410  20.286  0.00  0.00    +0.000 OA
BRANCH  21  28
ATOM     28  O   UNL     1       0.809   9.591  22.763  0.00  0.00    +0.000 OA
ATOM     29  C   UNL     1      -0.554   9.804  23.109  0.00  0.00    +0.000 C 
ENDBRANCH  21  28
ENDBRANCH  18  19
ENDBRANCH   6  18
TORSDOF 7
ENDMDL
MODEL 9
REMARK VINA RESULT:      -7.8      1.405      6.628
REMARK  Name = 
REMARK  9 active torsions:
REMARK  status: ('A' for Active; 'I' for Inactive)
REMARK    1  A    between atoms: C_1  and  O_2
REMARK    2  A    between atoms: O_2  and  C_3
REMARK    3  A    between atoms: C_5  and  C_6
REMARK    4  A    between atoms: C_6  and  C_7
REMARK    5  A    between atoms: C_12  and  C_13
REMARK    6  A    between atoms: C_13  and  C_14
REMARK    7  A    between atoms: C_16  and  O_17
REMARK    8  A    between atoms: O_17  and  C_18
REMARK    9  A    between atoms: C_27  and  O_28
REMARK                            x       y       z     vdW  Elec       q    Type
REMARK                         _______ _______ _______ _____ _____    ______ ____
ROOT
ATOM      1  C   UNL     1       3.401   3.610  19.140  0.00  0.00    +0.000 C 
ATOM      2  C   UNL     1       2.663   2.726  18.170  0.00  0.00    +0.000 C 
ATOM      3  O   UNL     1       2.869   1.539  17.998  0.00  0.00    +0.000 OA
ATOM      4  O   UNL     1       1.654   3.425  17.573  0.00  0.00    +0.000 OA
ATOM      5  C   UNL     1       1.571   4.733  18.137  0.00  0.00    +0.000 C 
ATOM      6  C   UNL     1       2.933   5.005  18.752  0.00  0.00    +0.000 C 
ENDROOT
BRANCH   1   7
ATOM      7  C   UNL     1       4.919   3.410  19.152  0.00  0.00    +0.000 C 
BRANCH   7  10
ATOM      8  C   UNL     1       6.437   5.669  16.458  0.00  0.00    +0.000 A 
ATOM      9  C   UNL     1       5.682   4.682  17.108  0.00  0.00    +0.000 A 
ATOM     10  C   UNL     1       5.746   4.491  18.496  0.00  0.00    +0.000 A 
ATOM     11  C   UNL     1       6.593   5.317  19.241  0.00  0.00    +0.000 A 
ATOM     12  C   UNL     1       7.341   6.316  18.613  0.00  0.00    +0.000 A 
ATOM     13  C   UNL     1       7.266   6.491  17.226  0.00  0.00    +0.000 A 
BRANCH   8  15
ATOM     14  C   UNL     1       6.669   4.554  14.353  0.00  0.00    +0.000 C 
ATOM     15  O   UNL     1       6.240   5.678  15.104  0.00  0.00    +0.000 OA
ENDBRANCH   8  15
BRANCH  13  16
ATOM     16  O   UNL     1       8.023   7.477  16.658  0.00  0.00    +0.000 OA
ATOM     17  H   UNL     1       8.504   7.952  17.354  0.00  0.00    +0.000 HD
ENDBRANCH  13  16
ENDBRANCH   7  10
ENDBRANCH   1   7
BRANCH   6  18
ATOM     18  C   UNL     1       2.928   5.982  19.943  0.00  0.00    +0.000 C 
BRANCH  18  19
ATOM     19  C   UNL     1       2.092   7.202  19.652  0.00  0.00    +0.000 A 
ATOM     20  C   UNL     1       1.175   7.690  20.611  0.00  0.00    +0.000 A 
ATOM     21  C   UNL     1       0.669   8.995  20.536  0.00  0.00    +0.000 A 
ATOM     22  C   UNL     1       1.085   9.768  19.468  0.00  0.00    +0.000 A 
ATOM     23  C   UNL     1       1.880   9.238  18.468  0.00  0.00    +0.000 A 
ATOM     24  C   UNL     1       2.367   7.954  18.507  0.00  0.00    +0.000 A 
ATOM     25  O   UNL     1       2.237  10.165  17.534  0.00  0.00    +0.000 OA
ATOM     26  C   UNL     1       1.892  11.356  18.260  0.00  0.00    +0.000 C 
ATOM     27  O   UNL     1       0.886  11.103  19.260  0.00  0.00    +0.000 OA
BRANCH  21  28
ATOM     28  O   UNL     1      -0.125   9.360  21.583  0.00  0.00    +0.000 OA
ATOM     29  C   UNL     1       0.502   9.432  22.857  0.00  0.00    +0.000 C 
ENDBRANCH  21  28
ENDBRANCH  18  19
ENDBRANCH   6  18
TORSDOF 7
ENDMDL
