MODEL 1
REMARK VINA RESULT:      -6.8      0.000      0.000
REMARK  Name = 
REMARK  6 active torsions:
REMARK  status: ('A' for Active; 'I' for Inactive)
REMARK    1  A    between atoms: C_1  and  O_2
REMARK    2  A    between atoms: O_2  and  C_3
REMARK    3  A    between atoms: C_8  and  N_9
REMARK    4  A    between atoms: C_10  and  C_12
REMARK    5  A    between atoms: C_13  and  N_14
REMARK    6  A    between atoms: N_19  and  C_20
REMARK                            x       y       z     vdW  Elec       q    Type
REMARK                         _______ _______ _______ _____ _____    ______ ____
ROOT
ATOM      1  N   UNL     1       2.833   6.634  19.607  0.00  0.00    +0.000 N 
ATOM      2  C   UNL     1       2.678   5.434  18.944  0.00  0.00    +0.000 C 
ATOM      3  O   UNL     1       2.063   5.352  17.881  0.00  0.00    +0.000 OA
ATOM      4  H   UNL     1       3.530   6.737  20.338  0.00  0.00    +0.000 HD
ENDROOT
BRANCH   1  10
ATOM      5  C   UNL     1       1.442   8.530  20.204  0.00  0.00    +0.000 A 
ATOM      6  C   UNL     1       0.805   9.727  19.861  0.00  0.00    +0.000 A 
ATOM      7  C   UNL     1       0.934  10.251  18.573  0.00  0.00    +0.000 A 
ATOM      8  C   UNL     1       1.696   9.579  17.620  0.00  0.00    +0.000 A 
ATOM      9  C   UNL     1       2.344   8.389  17.956  0.00  0.00    +0.000 A 
ATOM     10  C   UNL     1       2.222   7.858  19.242  0.00  0.00    +0.000 A 
BRANCH   5  12
ATOM     11  C   UNL     1       1.177   8.872  22.530  0.00  0.00    +0.000 C 
ATOM     12  O   UNL     1       1.378   7.957  21.452  0.00  0.00    +0.000 OA
ENDBRANCH   5  12
ENDBRANCH   1  10
BRANCH   2  13
ATOM     13  C   UNL     1       3.300   4.255  19.526  0.00  0.00    +0.000 A 
ATOM     14  C   UNL     1       2.842   3.205  20.318  0.00  0.00    +0.000 A 
ATOM     15  C   UNL     1       3.931   2.340  20.505  0.00  0.00    +0.000 A 
ATOM     16  N   UNL     1       5.034   2.796  19.920  0.00  0.00    +0.000 NA
ATOM     17  N   UNL     1       4.654   3.980  19.390  0.00  0.00    +0.000 N 
ATOM     18  C   UNL     1       5.682   4.811  18.797  0.00  0.00    +0.000 C 
BRANCH  14  19
ATOM     19  N   UNL     1       1.554   2.996  20.890  0.00  0.00    +0.000 N 
ATOM     20  O   UNL     1       0.587   3.034  20.124  0.00  0.00    +0.000 OA
ATOM     21  O   UNL     1       1.517   2.800  22.108  0.00  0.00    +0.000 OA
ENDBRANCH  14  19
ENDBRANCH   2  13
TORSDOF 4
ENDMDL
MODEL 2
REMARK VINA RESULT:      -6.8      3.713      5.751
REMARK  Name = 
REMARK  6 active torsions:
REMARK  status: ('A' for Active; 'I' for Inactive)
REMARK    1  A    between atoms: C_1  and  O_2
REMARK    2  A    between atoms: O_2  and  C_3
REMARK    3  A    between atoms: C_8  and  N_9
REMARK    4  A    between atoms: C_10  and  C_12
REMARK    5  A    between atoms: C_13  and  N_14
REMARK    6  A    between atoms: N_19  and  C_20
REMARK                            x       y       z     vdW  Elec       q    Type
REMARK                         _______ _______ _______ _____ _____    ______ ____
ROOT
ATOM      1  N   UNL     1       3.981   5.208  19.220  0.00  0.00    +0.000 N 
ATOM      2  C   UNL     1       5.296   4.850  19.002  0.00  0.00    +0.000 C 
ATOM      3  O   UNL     1       5.708   3.713  19.232  0.00  0.00    +0.000 OA
ATOM      4  H   UNL     1       3.599   6.054  18.810  0.00  0.00    +0.000 HD
ENDROOT
BRANCH   1  10
ATOM      5  C   UNL     1       1.985   3.843  19.027  0.00  0.00    +0.000 A 
ATOM      6  C   UNL     1       0.987   3.057  19.612  0.00  0.00    +0.000 A 
ATOM      7  C   UNL     1       0.991   2.824  20.989  0.00  0.00    +0.000 A 
ATOM      8  C   UNL     1       1.987   3.379  21.788  0.00  0.00    +0.000 A 
ATOM      9  C   UNL     1       2.993   4.156  21.211  0.00  0.00    +0.000 A 
ATOM     10  C   UNL     1       3.000   4.393  19.835  0.00  0.00    +0.000 A 
BRANCH   5  12
ATOM     11  C   UNL     1       2.608   3.052  16.885  0.00  0.00    +0.000 C 
ATOM     12  O   UNL     1       2.062   4.106  17.680  0.00  0.00    +0.000 OA
ENDBRANCH   5  12
ENDBRANCH   1  10
BRANCH   2  13
ATOM     13  C   UNL     1       6.188   5.857  18.451  0.00  0.00    +0.000 A 
ATOM     14  C   UNL     1       6.120   6.723  17.361  0.00  0.00    +0.000 A 
ATOM     15  C   UNL     1       7.290   7.499  17.393  0.00  0.00    +0.000 A 
ATOM     16  N   UNL     1       8.089   7.151  18.397  0.00  0.00    +0.000 NA
ATOM     17  N   UNL     1       7.441   6.121  18.985  0.00  0.00    +0.000 N 
ATOM     18  C   UNL     1       8.131   5.410  20.044  0.00  0.00    +0.000 C 
BRANCH  14  19
ATOM     19  N   UNL     1       5.119   6.836  16.355  0.00  0.00    +0.000 N 
ATOM     20  O   UNL     1       3.982   7.143  16.725  0.00  0.00    +0.000 OA
ATOM     21  O   UNL     1       5.476   6.613  15.194  0.00  0.00    +0.000 OA
ENDBRANCH  14  19
ENDBRANCH   2  13
TORSDOF 4
ENDMDL
MODEL 3
REMARK VINA RESULT:      -6.7      3.376      4.887
REMARK  Name = 
REMARK  6 active torsions:
REMARK  status: ('A' for Active; 'I' for Inactive)
REMARK    1  A    between atoms: C_1  and  O_2
REMARK    2  A    between atoms: O_2  and  C_3
REMARK    3  A    between atoms: C_8  and  N_9
REMARK    4  A    between atoms: C_10  and  C_12
REMARK    5  A    between atoms: C_13  and  N_14
REMARK    6  A    between atoms: N_19  and  C_20
REMARK                            x       y       z     vdW  Elec       q    Type
REMARK                         _______ _______ _______ _____ _____    ______ ____
ROOT
ATOM      1  N   UNL     1       5.002   4.687  18.565  0.00  0.00    +0.000 N 
ATOM      2  C   UNL     1       3.778   4.941  19.151  0.00  0.00    +0.000 C 
ATOM      3  O   UNL     1       3.468   6.063  19.550  0.00  0.00    +0.000 OA
ATOM      4  H   UNL     1       5.155   3.838  18.030  0.00  0.00    +0.000 HD
ENDROOT
BRANCH   1  10
ATOM      5  C   UNL     1       6.083   6.509  17.385  0.00  0.00    +0.000 A 
ATOM      6  C   UNL     1       7.143   7.412  17.248  0.00  0.00    +0.000 A 
ATOM      7  C   UNL     1       8.188   7.417  18.175  0.00  0.00    +0.000 A 
ATOM      8  C   UNL     1       8.182   6.517  19.238  0.00  0.00    +0.000 A 
ATOM      9  C   UNL     1       7.124   5.619  19.388  0.00  0.00    +0.000 A 
ATOM     10  C   UNL     1       6.073   5.608  18.468  0.00  0.00    +0.000 A 
BRANCH   5  12
ATOM     11  C   UNL     1       5.274   5.835  15.266  0.00  0.00    +0.000 C 
ATOM     12  O   UNL     1       5.010   6.451  16.527  0.00  0.00    +0.000 OA
ENDBRANCH   5  12
ENDBRANCH   1  10
BRANCH   2  13
ATOM     13  C   UNL     1       2.836   3.838  19.252  0.00  0.00    +0.000 A 
ATOM     14  C   UNL     1       2.778   2.676  20.020  0.00  0.00    +0.000 A 
ATOM     15  C   UNL     1       1.571   2.039  19.690  0.00  0.00    +0.000 A 
ATOM     16  N   UNL     1       0.900   2.700  18.753  0.00  0.00    +0.000 NA
ATOM     17  N   UNL     1       1.704   3.745  18.454  0.00  0.00    +0.000 N 
ATOM     18  C   UNL     1       1.318   4.593  17.344  0.00  0.00    +0.000 C 
BRANCH  14  19
ATOM     19  N   UNL     1       3.725   2.155  20.946  0.00  0.00    +0.000 N 
ATOM     20  O   UNL     1       3.331   1.953  22.098  0.00  0.00    +0.000 OA
ATOM     21  O   UNL     1       4.865   1.953  20.516  0.00  0.00    +0.000 OA
ENDBRANCH  14  19
ENDBRANCH   2  13
TORSDOF 4
ENDMDL
MODEL 4
REMARK VINA RESULT:      -6.6      3.562      5.281
REMARK  Name = 
REMARK  6 active torsions:
REMARK  status: ('A' for Active; 'I' for Inactive)
REMARK    1  A    between atoms: C_1  and  O_2
REMARK    2  A    between atoms: O_2  and  C_3
REMARK    3  A    between atoms: C_8  and  N_9
REMARK    4  A    between atoms: C_10  and  C_12
REMARK    5  A    between atoms: C_13  and  N_14
REMARK    6  A    between atoms: N_19  and  C_20
REMARK                            x       y       z     vdW  Elec       q    Type
REMARK                         _______ _______ _______ _____ _____    ______ ____
ROOT
ATOM      1  N   UNL     1       4.923   4.237  18.215  0.00  0.00    +0.000 N 
ATOM      2  C   UNL     1       4.049   3.216  18.531  0.00  0.00    +0.000 C 
ATOM      3  O   UNL     1       3.842   2.276  17.764  0.00  0.00    +0.000 OA
ATOM      4  H   UNL     1       5.266   4.866  18.934  0.00  0.00    +0.000 HD
ENDROOT
BRANCH   1  10
ATOM      5  C   UNL     1       6.964   4.621  16.963  0.00  0.00    +0.000 A 
ATOM      6  C   UNL     1       7.627   4.818  15.748  0.00  0.00    +0.000 A 
ATOM      7  C   UNL     1       6.914   4.809  14.547  0.00  0.00    +0.000 A 
ATOM      8  C   UNL     1       5.536   4.608  14.555  0.00  0.00    +0.000 A 
ATOM      9  C   UNL     1       4.867   4.400  15.762  0.00  0.00    +0.000 A 
ATOM     10  C   UNL     1       5.572   4.405  16.969  0.00  0.00    +0.000 A 
BRANCH   5  12
ATOM     11  C   UNL     1       7.803   5.879  18.783  0.00  0.00    +0.000 C 
ATOM     12  O   UNL     1       7.594   4.599  18.185  0.00  0.00    +0.000 OA
ENDBRANCH   5  12
ENDBRANCH   1  10
BRANCH   2  13
ATOM     13  C   UNL     1       3.395   3.263  19.829  0.00  0.00    +0.000 A 
ATOM     14  C   UNL     1       2.461   4.114  20.417  0.00  0.00    +0.000 A 
ATOM     15  C   UNL     1       2.185   3.587  21.688  0.00  0.00    +0.000 A 
ATOM     16  N   UNL     1       2.904   2.499  21.943  0.00  0.00    +0.000 NA
ATOM     17  N   UNL     1       3.673   2.354  20.840  0.00  0.00    +0.000 N 
ATOM     18  C   UNL     1       4.692   1.324  20.864  0.00  0.00    +0.000 C 
BRANCH  14  19
ATOM     19  N   UNL     1       1.882   5.312  19.909  0.00  0.00    +0.000 N 
ATOM     20  O   UNL     1       1.991   5.519  18.698  0.00  0.00    +0.000 OA
ATOM     21  O   UNL     1       1.322   6.044  20.730  0.00  0.00    +0.000 OA
ENDBRANCH  14  19
ENDBRANCH   2  13
TORSDOF 4
ENDMDL
MODEL 5
REMARK VINA RESULT:      -6.5      2.686      5.309
REMARK  Name = 
REMARK  6 active torsions:
REMARK  status: ('A' for Active; 'I' for Inactive)
REMARK    1  A    between atoms: C_1  and  O_2
REMARK    2  A    between atoms: O_2  and  C_3
REMARK    3  A    between atoms: C_8  and  N_9
REMARK    4  A    between atoms: C_10  and  C_12
REMARK    5  A    between atoms: C_13  and  N_14
REMARK    6  A    between atoms: N_19  and  C_20
REMARK                            x       y       z     vdW  Elec       q    Type
REMARK                         _______ _______ _______ _____ _____    ______ ____
ROOT
ATOM      1  N   UNL     1       4.209   4.143  17.471  0.00  0.00    +0.000 N 
ATOM      2  C   UNL     1       3.306   5.111  17.865  0.00  0.00    +0.000 C 
ATOM      3  O   UNL     1       3.247   6.209  17.313  0.00  0.00    +0.000 OA
ATOM      4  H   UNL     1       4.092   3.177  17.759  0.00  0.00    +0.000 HD
ENDROOT
BRANCH   1  10
ATOM      5  C   UNL     1       6.496   4.763  16.951  0.00  0.00    +0.000 A 
ATOM      6  C   UNL     1       7.518   4.972  16.019  0.00  0.00    +0.000 A 
ATOM      7  C   UNL     1       7.288   4.750  14.660  0.00  0.00    +0.000 A 
ATOM      8  C   UNL     1       6.036   4.324  14.224  0.00  0.00    +0.000 A 
ATOM      9  C   UNL     1       5.013   4.103  15.147  0.00  0.00    +0.000 A 
ATOM     10  C   UNL     1       5.233   4.320  16.510  0.00  0.00    +0.000 A 
BRANCH   5  12
ATOM     11  C   UNL     1       7.692   5.834  18.689  0.00  0.00    +0.000 C 
ATOM     12  O   UNL     1       6.644   4.942  18.305  0.00  0.00    +0.000 OA
ENDBRANCH   5  12
ENDBRANCH   1  10
BRANCH   2  13
ATOM     13  C   UNL     1       2.389   4.779  18.943  0.00  0.00    +0.000 A 
ATOM     14  C   UNL     1       1.646   3.647  19.273  0.00  0.00    +0.000 A 
ATOM     15  C   UNL     1       0.990   3.937  20.480  0.00  0.00    +0.000 A 
ATOM     16  N   UNL     1       1.243   5.173  20.898  0.00  0.00    +0.000 NA
ATOM     17  N   UNL     1       2.034   5.688  19.931  0.00  0.00    +0.000 N 
ATOM     18  C   UNL     1       2.373   7.094  20.017  0.00  0.00    +0.000 C 
BRANCH  14  19
ATOM     19  N   UNL     1       1.502   2.420  18.566  0.00  0.00    +0.000 N 
ATOM     20  O   UNL     1       2.539   1.844  18.223  0.00  0.00    +0.000 OA
ATOM     21  O   UNL     1       0.347   2.039  18.351  0.00  0.00    +0.000 OA
ENDBRANCH  14  19
ENDBRANCH   2  13
TORSDOF 4
ENDMDL
MODEL 6
REMARK VINA RESULT:      -6.5      2.898      5.380
REMARK  Name = 
REMARK  6 active torsions:
REMARK  status: ('A' for Active; 'I' for Inactive)
REMARK    1  A    between atoms: C_1  and  O_2
REMARK    2  A    between atoms: O_2  and  C_3
REMARK    3  A    between atoms: C_8  and  N_9
REMARK    4  A    between atoms: C_10  and  C_12
REMARK    5  A    between atoms: C_13  and  N_14
REMARK    6  A    between atoms: N_19  and  C_20
REMARK                            x       y       z     vdW  Elec       q    Type
REMARK                         _______ _______ _______ _____ _____    ______ ____
ROOT
ATOM      1  N   UNL     1       3.780   4.833  18.208  0.00  0.00    +0.000 N 
ATOM      2  C   UNL     1       5.106   4.625  18.528  0.00  0.00    +0.000 C 
ATOM      3  O   UNL     1       5.466   3.679  19.228  0.00  0.00    +0.000 OA
ATOM      4  H   UNL     1       3.520   5.456  17.450  0.00  0.00    +0.000 HD
ENDROOT
BRANCH   1  10
ATOM      5  C   UNL     1       2.094   4.538  19.928  0.00  0.00    +0.000 A 
ATOM      6  C   UNL     1       1.030   3.816  20.478  0.00  0.00    +0.000 A 
ATOM      7  C   UNL     1       0.560   2.664  19.845  0.00  0.00    +0.000 A 
ATOM      8  C   UNL     1       1.153   2.225  18.664  0.00  0.00    +0.000 A 
ATOM      9  C   UNL     1       2.209   2.944  18.102  0.00  0.00    +0.000 A 
ATOM     10  C   UNL     1       2.686   4.099  18.727  0.00  0.00    +0.000 A 
BRANCH   5  12
ATOM     11  C   UNL     1       1.765   6.838  20.374  0.00  0.00    +0.000 C 
ATOM     12  O   UNL     1       2.606   5.689  20.479  0.00  0.00    +0.000 OA
ENDBRANCH   5  12
ENDBRANCH   1  10
BRANCH   2  13
ATOM     13  C   UNL     1       6.087   5.546  17.976  0.00  0.00    +0.000 A 
ATOM     14  C   UNL     1       6.246   6.170  16.740  0.00  0.00    +0.000 A 
ATOM     15  C   UNL     1       7.375   6.997  16.852  0.00  0.00    +0.000 A 
ATOM     16  N   UNL     1       7.945   6.900  18.049  0.00  0.00    +0.000 NA
ATOM     17  N   UNL     1       7.195   5.977  18.692  0.00  0.00    +0.000 N 
ATOM     18  C   UNL     1       7.649   5.531  19.994  0.00  0.00    +0.000 C 
BRANCH  14  19
ATOM     19  N   UNL     1       5.482   6.027  15.548  0.00  0.00    +0.000 N 
ATOM     20  O   UNL     1       5.275   4.877  15.148  0.00  0.00    +0.000 OA
ATOM     21  O   UNL     1       5.094   7.069  15.012  0.00  0.00    +0.000 OA
ENDBRANCH  14  19
ENDBRANCH   2  13
TORSDOF 4
ENDMDL
MODEL 7
REMARK VINA RESULT:      -6.5      1.585      2.654
REMARK  Name = 
REMARK  6 active torsions:
REMARK  status: ('A' for Active; 'I' for Inactive)
REMARK    1  A    between atoms: C_1  and  O_2
REMARK    2  A    between atoms: O_2  and  C_3
REMARK    3  A    between atoms: C_8  and  N_9
REMARK    4  A    between atoms: C_10  and  C_12
REMARK    5  A    between atoms: C_13  and  N_14
REMARK    6  A    between atoms: N_19  and  C_20
REMARK                            x       y       z     vdW  Elec       q    Type
REMARK                         _______ _______ _______ _____ _____    ______ ____
ROOT
ATOM      1  N   UNL     1       2.768   6.727  19.571  0.00  0.00    +0.000 N 
ATOM      2  C   UNL     1       2.543   5.529  18.923  0.00  0.00    +0.000 C 
ATOM      3  O   UNL     1       1.875   5.463  17.891  0.00  0.00    +0.000 OA
ATOM      4  H   UNL     1       3.504   6.810  20.266  0.00  0.00    +0.000 HD
ENDROOT
BRANCH   1  10
ATOM      5  C   UNL     1       1.391   8.623  20.197  0.00  0.00    +0.000 A 
ATOM      6  C   UNL     1       0.775   9.837  19.878  0.00  0.00    +0.000 A 
ATOM      7  C   UNL     1       0.932  10.394  18.607  0.00  0.00    +0.000 A 
ATOM      8  C   UNL     1       1.702   9.739  17.649  0.00  0.00    +0.000 A 
ATOM      9  C   UNL     1       2.329   8.533  17.961  0.00  0.00    +0.000 A 
ATOM     10  C   UNL     1       2.179   7.968  19.230  0.00  0.00    +0.000 A 
BRANCH   5  12
ATOM     11  C   UNL     1       0.986   8.890  22.513  0.00  0.00    +0.000 C 
ATOM     12  O   UNL     1       1.299   8.016  21.427  0.00  0.00    +0.000 OA
ENDBRANCH   5  12
ENDBRANCH   1  10
BRANCH   2  13
ATOM     13  C   UNL     1       3.157   4.334  19.479  0.00  0.00    +0.000 A 
ATOM     14  C   UNL     1       4.401   3.722  19.334  0.00  0.00    +0.000 A 
ATOM     15  C   UNL     1       4.401   2.610  20.191  0.00  0.00    +0.000 A 
ATOM     16  N   UNL     1       3.241   2.469  20.823  0.00  0.00    +0.000 NA
ATOM     17  N   UNL     1       2.482   3.476  20.337  0.00  0.00    +0.000 N 
ATOM     18  C   UNL     1       1.086   3.513  20.726  0.00  0.00    +0.000 C 
BRANCH  14  19
ATOM     19  N   UNL     1       5.489   4.073  18.486  0.00  0.00    +0.000 N 
ATOM     20  O   UNL     1       6.542   4.411  19.034  0.00  0.00    +0.000 OA
ATOM     21  O   UNL     1       5.283   4.013  17.270  0.00  0.00    +0.000 OA
ENDBRANCH  14  19
ENDBRANCH   2  13
TORSDOF 4
ENDMDL
MODEL 8
REMARK VINA RESULT:      -6.5      2.370      5.223
REMARK  Name = 
REMARK  6 active torsions:
REMARK  status: ('A' for Active; 'I' for Inactive)
REMARK    1  A    between atoms: C_1  and  O_2
REMARK    2  A    between atoms: O_2  and  C_3
REMARK    3  A    between atoms: C_8  and  N_9
REMARK    4  A    between atoms: C_10  and  C_12
REMARK    5  A    between atoms: C_13  and  N_14
REMARK    6  A    between atoms: N_19  and  C_20
REMARK                            x       y       z     vdW  Elec       q    Type
REMARK                         _______ _______ _______ _____ _____    ______ ____
ROOT
ATOM      1  N   UNL     1       4.518   5.920  18.147  0.00  0.00    +0.000 N 
ATOM      2  C   UNL     1       3.191   5.566  18.283  0.00  0.00    +0.000 C 
ATOM      3  O   UNL     1       2.665   4.722  17.559  0.00  0.00    +0.000 OA
ATOM      4  H   UNL     1       4.999   6.424  18.886  0.00  0.00    +0.000 HD
ENDROOT
BRANCH   1  10
ATOM      5  C   UNL     1       6.612   4.892  17.481  0.00  0.00    +0.000 A 
ATOM      6  C   UNL     1       7.498   4.473  16.484  0.00  0.00    +0.000 A 
ATOM      7  C   UNL     1       7.173   4.641  15.136  0.00  0.00    +0.000 A 
ATOM      8  C   UNL     1       5.964   5.233  14.779  0.00  0.00    +0.000 A 
ATOM      9  C   UNL     1       5.069   5.645  15.767  0.00  0.00    +0.000 A 
ATOM     10  C   UNL     1       5.384   5.479  17.118  0.00  0.00    +0.000 A 
BRANCH   5  12
ATOM     11  C   UNL     1       7.806   5.655  19.376  0.00  0.00    +0.000 C 
ATOM     12  O   UNL     1       6.848   4.748  18.827  0.00  0.00    +0.000 OA
ENDBRANCH   5  12
ENDBRANCH   1  10
BRANCH   2  13
ATOM     13  C   UNL     1       2.428   6.201  19.346  0.00  0.00    +0.000 A 
ATOM     14  C   UNL     1       1.798   5.738  20.501  0.00  0.00    +0.000 A 
ATOM     15  C   UNL     1       1.273   6.867  21.149  0.00  0.00    +0.000 A 
ATOM     16  N   UNL     1       1.499   7.983  20.465  0.00  0.00    +0.000 NA
ATOM     17  N   UNL     1       2.139   7.558  19.352  0.00  0.00    +0.000 N 
ATOM     18  C   UNL     1       2.400   8.534  18.314  0.00  0.00    +0.000 C 
BRANCH  14  19
ATOM     19  N   UNL     1       1.646   4.405  20.977  0.00  0.00    +0.000 N 
ATOM     20  O   UNL     1       0.798   3.703  20.419  0.00  0.00    +0.000 OA
ATOM     21  O   UNL     1       2.376   4.067  21.913  0.00  0.00    +0.000 OA
ENDBRANCH  14  19
ENDBRANCH   2  13
TORSDOF 4
ENDMDL
MODEL 9
REMARK VINA RESULT:      -6.5      3.501      5.994
REMARK  Name = 
REMARK  6 active torsions:
REMARK  status: ('A' for Active; 'I' for Inactive)
REMARK    1  A    between atoms: C_1  and  O_2
REMARK    2  A    between atoms: O_2  and  C_3
REMARK    3  A    between atoms: C_8  and  N_9
REMARK    4  A    between atoms: C_10  and  C_12
REMARK    5  A    between atoms: C_13  and  N_14
REMARK    6  A    between atoms: N_19  and  C_20
REMARK                            x       y       z     vdW  Elec       q    Type
REMARK                         _______ _______ _______ _____ _____    ______ ____
ROOT
ATOM      1  N   UNL     1       4.060   4.861  17.857  0.00  0.00    +0.000 N 
ATOM      2  C   UNL     1       5.416   4.666  18.028  0.00  0.00    +0.000 C 
ATOM      3  O   UNL     1       5.874   4.124  19.033  0.00  0.00    +0.000 OA
ATOM      4  H   UNL     1       3.679   5.081  16.942  0.00  0.00    +0.000 HD
ENDROOT
BRANCH   1  10
ATOM      5  C   UNL     1       2.399   3.358  18.787  0.00  0.00    +0.000 A 
ATOM      6  C   UNL     1       1.392   3.083  19.717  0.00  0.00    +0.000 A 
ATOM      7  C   UNL     1       1.042   4.034  20.678  0.00  0.00    +0.000 A 
ATOM      8  C   UNL     1       1.693   5.265  20.711  0.00  0.00    +0.000 A 
ATOM      9  C   UNL     1       2.706   5.544  19.793  0.00  0.00    +0.000 A 
ATOM     10  C   UNL     1       3.065   4.599  18.829  0.00  0.00    +0.000 A 
BRANCH   5  12
ATOM     11  C   UNL     1       3.605   1.382  18.295  0.00  0.00    +0.000 C 
ATOM     12  O   UNL     1       2.813   2.472  17.821  0.00  0.00    +0.000 OA
ENDBRANCH   5  12
ENDBRANCH   1  10
BRANCH   2  13
ATOM     13  C   UNL     1       6.300   5.090  16.954  0.00  0.00    +0.000 A 
ATOM     14  C   UNL     1       7.238   6.112  16.813  0.00  0.00    +0.000 A 
ATOM     15  C   UNL     1       7.808   5.959  15.540  0.00  0.00    +0.000 A 
ATOM     16  N   UNL     1       7.267   4.945  14.872  0.00  0.00    +0.000 NA
ATOM     17  N   UNL     1       6.318   4.473  15.711  0.00  0.00    +0.000 N 
ATOM     18  C   UNL     1       5.435   3.439  15.211  0.00  0.00    +0.000 C 
BRANCH  14  19
ATOM     19  N   UNL     1       7.581   7.156  17.718  0.00  0.00    +0.000 N 
ATOM     20  O   UNL     1       7.356   8.313  17.351  0.00  0.00    +0.000 OA
ATOM     21  O   UNL     1       8.081   6.813  18.793  0.00  0.00    +0.000 OA
ENDBRANCH  14  19
ENDBRANCH   2  13
TORSDOF 4
ENDMDL
