MODEL 1
REMARK VINA RESULT:      -6.3      0.000      0.000
REMARK  Name = 
REMARK  6 active torsions:
REMARK  status: ('A' for Active; 'I' for Inactive)
REMARK    1  A    between atoms: C_1  and  N_2
REMARK    2  A    between atoms: N_2  and  C_3
REMARK    3  A    between atoms: N_2  and  N_4
REMARK    4  A    between atoms: C_5  and  S_6
REMARK    5  A    between atoms: N_7  and  C_8
REMARK    6  A    between atoms: C_12  and  C_13
REMARK                            x       y       z     vdW  Elec       q    Type
REMARK                         _______ _______ _______ _____ _____    ______ ____
ROOT
ATOM      1  C   UNL     1       5.312   4.351  17.580  0.00  0.00    +0.000 A 
ATOM      2  C   UNL     1       5.079   5.723  17.742  0.00  0.00    +0.000 A 
ATOM      3  C   UNL     1       5.117   6.598  16.654  0.00  0.00    +0.000 A 
ATOM      4  C   UNL     1       5.395   6.117  15.379  0.00  0.00    +0.000 A 
ATOM      5  C   UNL     1       5.630   4.750  15.179  0.00  0.00    +0.000 A 
ATOM      6  C   UNL     1       5.569   3.889  16.286  0.00  0.00    +0.000 A 
ENDROOT
BRANCH   1   9
ATOM      7  N   UNL     1       2.866   3.291  18.893  0.00  0.00    +0.000 NA
ATOM      8  C   UNL     1       4.076   3.015  19.290  0.00  0.00    +0.000 C 
ATOM      9  N   UNL     1       5.216   3.497  18.690  0.00  0.00    +0.000 N 
ATOM     10  H   UNL     1       6.058   3.385  19.235  0.00  0.00    +0.000 HD
BRANCH   7  12
ATOM     11  C   UNL     1       1.199   4.057  20.331  0.00  0.00    +0.000 C 
ATOM     12  N   UNL     1       1.758   2.909  19.590  0.00  0.00    +0.000 N 
ATOM     13  C   UNL     1       0.674   2.267  18.832  0.00  0.00    +0.000 C 
ENDBRANCH   7  12
BRANCH   8  14
ATOM     14  S   UNL     1       4.478   2.014  20.677  0.00  0.00    +0.000 S 
ATOM     15  H   UNL     1       3.328   2.242  21.322  0.00  0.00    +0.000 HD
ENDBRANCH   8  14
ENDBRANCH   1   9
BRANCH   5  16
ATOM     16  C   UNL     1       5.949   4.196  13.815  0.00  0.00    +0.000 C 
ATOM     17  F   UNL     1       6.892   4.915  13.139  0.00  0.00    +0.000 F 
ATOM     18  F   UNL     1       6.431   2.922  13.870  0.00  0.00    +0.000 F 
ATOM     19  F   UNL     1       4.863   4.147  12.993  0.00  0.00    +0.000 F 
ENDBRANCH   5  16
TORSDOF 4
ENDMDL
MODEL 2
REMARK VINA RESULT:      -6.3      1.996      2.332
REMARK  Name = 
REMARK  6 active torsions:
REMARK  status: ('A' for Active; 'I' for Inactive)
REMARK    1  A    between atoms: C_1  and  N_2
REMARK    2  A    between atoms: N_2  and  C_3
REMARK    3  A    between atoms: N_2  and  N_4
REMARK    4  A    between atoms: C_5  and  S_6
REMARK    5  A    between atoms: N_7  and  C_8
REMARK    6  A    between atoms: C_12  and  C_13
REMARK                            x       y       z     vdW  Elec       q    Type
REMARK                         _______ _______ _______ _____ _____    ______ ____
ROOT
ATOM      1  C   UNL     1       5.186   5.508  18.429  0.00  0.00    +0.000 A 
ATOM      2  C   UNL     1       6.402   5.364  19.110  0.00  0.00    +0.000 A 
ATOM      3  C   UNL     1       7.564   4.971  18.444  0.00  0.00    +0.000 A 
ATOM      4  C   UNL     1       7.532   4.707  17.078  0.00  0.00    +0.000 A 
ATOM      5  C   UNL     1       6.335   4.842  16.364  0.00  0.00    +0.000 A 
ATOM      6  C   UNL     1       5.184   5.256  17.054  0.00  0.00    +0.000 A 
ENDROOT
BRANCH   1   9
ATOM      7  N   UNL     1       3.058   3.889  19.725  0.00  0.00    +0.000 NA
ATOM      8  C   UNL     1       3.071   5.192  19.718  0.00  0.00    +0.000 C 
ATOM      9  N   UNL     1       4.051   5.953  19.124  0.00  0.00    +0.000 N 
ATOM     10  H   UNL     1       3.813   6.926  19.004  0.00  0.00    +0.000 HD
BRANCH   7  12
ATOM     11  C   UNL     1       1.686   2.057  19.280  0.00  0.00    +0.000 C 
ATOM     12  N   UNL     1       2.005   3.165  20.202  0.00  0.00    +0.000 N 
ATOM     13  C   UNL     1       2.123   2.624  21.564  0.00  0.00    +0.000 C 
ENDBRANCH   7  12
BRANCH   8  14
ATOM     14  S   UNL     1       1.831   6.215  20.428  0.00  0.00    +0.000 S 
ATOM     15  H   UNL     1       0.819   5.391  20.133  0.00  0.00    +0.000 HD
ENDBRANCH   8  14
ENDBRANCH   1   9
BRANCH   5  16
ATOM     16  C   UNL     1       6.259   4.551  14.888  0.00  0.00    +0.000 C 
ATOM     17  F   UNL     1       7.322   5.033  14.180  0.00  0.00    +0.000 F 
ATOM     18  F   UNL     1       6.221   3.214  14.623  0.00  0.00    +0.000 F 
ATOM     19  F   UNL     1       5.152   5.079  14.296  0.00  0.00    +0.000 F 
ENDBRANCH   5  16
TORSDOF 4
ENDMDL
MODEL 3
REMARK VINA RESULT:      -6.2      5.711      6.728
REMARK  Name = 
REMARK  6 active torsions:
REMARK  status: ('A' for Active; 'I' for Inactive)
REMARK    1  A    between atoms: C_1  and  N_2
REMARK    2  A    between atoms: N_2  and  C_3
REMARK    3  A    between atoms: N_2  and  N_4
REMARK    4  A    between atoms: C_5  and  S_6
REMARK    5  A    between atoms: N_7  and  C_8
REMARK    6  A    between atoms: C_12  and  C_13
REMARK                            x       y       z     vdW  Elec       q    Type
REMARK                         _______ _______ _______ _____ _____    ______ ____
ROOT
ATOM      1  C   UNL     1       2.582   7.297  19.036  0.00  0.00    +0.000 A 
ATOM      2  C   UNL     1       2.420   8.135  17.926  0.00  0.00    +0.000 A 
ATOM      3  C   UNL     1       1.592   9.258  17.979  0.00  0.00    +0.000 A 
ATOM      4  C   UNL     1       0.903   9.564  19.148  0.00  0.00    +0.000 A 
ATOM      5  C   UNL     1       1.043   8.750  20.280  0.00  0.00    +0.000 A 
ATOM      6  C   UNL     1       1.895   7.636  20.205  0.00  0.00    +0.000 A 
ENDROOT
BRANCH   1   9
ATOM      7  N   UNL     1       1.981   4.409  19.392  0.00  0.00    +0.000 NA
ATOM      8  C   UNL     1       3.170   4.871  19.127  0.00  0.00    +0.000 C 
ATOM      9  N   UNL     1       3.461   6.205  18.958  0.00  0.00    +0.000 N 
ATOM     10  H   UNL     1       4.445   6.428  18.984  0.00  0.00    +0.000 HD
BRANCH   7  12
ATOM     11  C   UNL     1       1.279   2.963  21.081  0.00  0.00    +0.000 C 
ATOM     12  N   UNL     1       1.750   3.097  19.688  0.00  0.00    +0.000 N 
ATOM     13  C   UNL     1       0.831   2.360  18.808  0.00  0.00    +0.000 C 
ENDBRANCH   7  12
BRANCH   8  14
ATOM     14  S   UNL     1       4.621   3.893  18.974  0.00  0.00    +0.000 S 
ATOM     15  H   UNL     1       5.231   4.724  18.120  0.00  0.00    +0.000 HD
ENDBRANCH   8  14
ENDBRANCH   1   9
BRANCH   5  16
ATOM     16  C   UNL     1       0.301   9.041  21.558  0.00  0.00    +0.000 C 
ATOM     17  F   UNL     1       1.092   9.007  22.670  0.00  0.00    +0.000 F 
ATOM     18  F   UNL     1      -0.272  10.279  21.557  0.00  0.00    +0.000 F 
ATOM     19  F   UNL     1      -0.712   8.163  21.798  0.00  0.00    +0.000 F 
ENDBRANCH   5  16
TORSDOF 4
ENDMDL
MODEL 4
REMARK VINA RESULT:      -6.0      4.530      6.527
REMARK  Name = 
REMARK  6 active torsions:
REMARK  status: ('A' for Active; 'I' for Inactive)
REMARK    1  A    between atoms: C_1  and  N_2
REMARK    2  A    between atoms: N_2  and  C_3
REMARK    3  A    between atoms: N_2  and  N_4
REMARK    4  A    between atoms: C_5  and  S_6
REMARK    5  A    between atoms: N_7  and  C_8
REMARK    6  A    between atoms: C_12  and  C_13
REMARK                            x       y       z     vdW  Elec       q    Type
REMARK                         _______ _______ _______ _____ _____    ______ ____
ROOT
ATOM      1  C   UNL     1       3.099   5.225  18.418  0.00  0.00    +0.000 A 
ATOM      2  C   UNL     1       2.591   6.425  18.930  0.00  0.00    +0.000 A 
ATOM      3  C   UNL     1       1.866   6.456  20.123  0.00  0.00    +0.000 A 
ATOM      4  C   UNL     1       1.630   5.280  20.828  0.00  0.00    +0.000 A 
ATOM      5  C   UNL     1       2.125   4.061  20.347  0.00  0.00    +0.000 A 
ATOM      6  C   UNL     1       2.866   4.060  19.154  0.00  0.00    +0.000 A 
ENDROOT
BRANCH   1   9
ATOM      7  N   UNL     1       6.014   5.714  18.114  0.00  0.00    +0.000 NA
ATOM      8  C   UNL     1       5.215   5.473  17.114  0.00  0.00    +0.000 C 
ATOM      9  N   UNL     1       3.864   5.242  17.241  0.00  0.00    +0.000 N 
ATOM     10  H   UNL     1       3.345   5.296  16.377  0.00  0.00    +0.000 HD
BRANCH   7  12
ATOM     11  C   UNL     1       7.415   7.503  17.593  0.00  0.00    +0.000 C 
ATOM     12  N   UNL     1       7.319   6.072  17.944  0.00  0.00    +0.000 N 
ATOM     13  C   UNL     1       8.243   5.799  19.054  0.00  0.00    +0.000 C 
ENDBRANCH   7  12
BRANCH   8  14
ATOM     14  S   UNL     1       5.697   5.433  15.425  0.00  0.00    +0.000 S 
ATOM     15  H   UNL     1       5.877   4.108  15.388  0.00  0.00    +0.000 HD
ENDBRANCH   8  14
ENDBRANCH   1   9
BRANCH   5  16
ATOM     16  C   UNL     1       1.876   2.766  21.076  0.00  0.00    +0.000 C 
ATOM     17  F   UNL     1       0.826   2.821  21.945  0.00  0.00    +0.000 F 
ATOM     18  F   UNL     1       1.594   1.737  20.227  0.00  0.00    +0.000 F 
ATOM     19  F   UNL     1       2.946   2.356  21.814  0.00  0.00    +0.000 F 
ENDBRANCH   5  16
TORSDOF 4
ENDMDL
MODEL 5
REMARK VINA RESULT:      -6.0      5.272      6.429
REMARK  Name = 
REMARK  6 active torsions:
REMARK  status: ('A' for Active; 'I' for Inactive)
REMARK    1  A    between atoms: C_1  and  N_2
REMARK    2  A    between atoms: N_2  and  C_3
REMARK    3  A    between atoms: N_2  and  N_4
REMARK    4  A    between atoms: C_5  and  S_6
REMARK    5  A    between atoms: N_7  and  C_8
REMARK    6  A    between atoms: C_12  and  C_13
REMARK                            x       y       z     vdW  Elec       q    Type
REMARK                         _______ _______ _______ _____ _____    ______ ____
ROOT
ATOM      1  C   UNL     1       2.159   6.212  20.019  0.00  0.00    +0.000 A 
ATOM      2  C   UNL     1       2.887   6.578  18.879  0.00  0.00    +0.000 A 
ATOM      3  C   UNL     1       3.152   5.660  17.862  0.00  0.00    +0.000 A 
ATOM      4  C   UNL     1       2.697   4.349  17.966  0.00  0.00    +0.000 A 
ATOM      5  C   UNL     1       1.964   3.947  19.091  0.00  0.00    +0.000 A 
ATOM      6  C   UNL     1       1.697   4.895  20.092  0.00  0.00    +0.000 A 
ENDROOT
BRANCH   1   9
ATOM      7  N   UNL     1       0.951   8.903  19.663  0.00  0.00    +0.000 NA
ATOM      8  C   UNL     1       1.313   8.421  20.818  0.00  0.00    +0.000 C 
ATOM      9  N   UNL     1       1.872   7.176  20.996  0.00  0.00    +0.000 N 
ATOM     10  H   UNL     1       2.303   7.034  21.898  0.00  0.00    +0.000 HD
BRANCH   7  12
ATOM     11  C   UNL     1       1.456  10.926  18.621  0.00  0.00    +0.000 C 
ATOM     12  N   UNL     1       0.527  10.189  19.501  0.00  0.00    +0.000 N 
ATOM     13  C   UNL     1      -0.844  10.390  19.011  0.00  0.00    +0.000 C 
ENDBRANCH   7  12
BRANCH   8  14
ATOM     14  S   UNL     1       1.194   9.276  22.348  0.00  0.00    +0.000 S 
ATOM     15  H   UNL     1      -0.091   9.616  22.190  0.00  0.00    +0.000 HD
ENDBRANCH   8  14
ENDBRANCH   1   9
BRANCH   5  16
ATOM     16  C   UNL     1       1.469   2.533  19.246  0.00  0.00    +0.000 C 
ATOM     17  F   UNL     1       0.260   2.309  18.653  0.00  0.00    +0.000 F 
ATOM     18  F   UNL     1       2.320   1.621  18.695  0.00  0.00    +0.000 F 
ATOM     19  F   UNL     1       1.317   2.161  20.547  0.00  0.00    +0.000 F 
ENDBRANCH   5  16
TORSDOF 4
ENDMDL
MODEL 6
REMARK VINA RESULT:      -6.0      4.424      6.326
REMARK  Name = 
REMARK  6 active torsions:
REMARK  status: ('A' for Active; 'I' for Inactive)
REMARK    1  A    between atoms: C_1  and  N_2
REMARK    2  A    between atoms: N_2  and  C_3
REMARK    3  A    between atoms: N_2  and  N_4
REMARK    4  A    between atoms: C_5  and  S_6
REMARK    5  A    between atoms: N_7  and  C_8
REMARK    6  A    between atoms: C_12  and  C_13
REMARK                            x       y       z     vdW  Elec       q    Type
REMARK                         _______ _______ _______ _____ _____    ______ ____
ROOT
ATOM      1  C   UNL     1       2.805   5.834  18.474  0.00  0.00    +0.000 A 
ATOM      2  C   UNL     1       2.516   6.852  19.392  0.00  0.00    +0.000 A 
ATOM      3  C   UNL     1       1.806   6.589  20.565  0.00  0.00    +0.000 A 
ATOM      4  C   UNL     1       1.365   5.299  20.842  0.00  0.00    +0.000 A 
ATOM      5  C   UNL     1       1.639   4.256  19.948  0.00  0.00    +0.000 A 
ATOM      6  C   UNL     1       2.369   4.543  18.783  0.00  0.00    +0.000 A 
ENDROOT
BRANCH   1   9
ATOM      7  N   UNL     1       5.740   5.588  18.086  0.00  0.00    +0.000 NA
ATOM      8  C   UNL     1       4.923   6.013  17.163  0.00  0.00    +0.000 C 
ATOM      9  N   UNL     1       3.563   6.129  17.330  0.00  0.00    +0.000 N 
ATOM     10  H   UNL     1       3.097   6.676  16.621  0.00  0.00    +0.000 HD
BRANCH   7  12
ATOM     11  C   UNL     1       7.747   5.908  19.228  0.00  0.00    +0.000 C 
ATOM     12  N   UNL     1       7.096   5.613  17.936  0.00  0.00    +0.000 N 
ATOM     13  C   UNL     1       7.731   4.423  17.351  0.00  0.00    +0.000 C 
ENDBRANCH   7  12
BRANCH   8  14
ATOM     14  S   UNL     1       5.403   6.548  15.560  0.00  0.00    +0.000 S 
ATOM     15  H   UNL     1       5.732   7.786  15.945  0.00  0.00    +0.000 HD
ENDBRANCH   8  14
ENDBRANCH   1   9
BRANCH   5  16
ATOM     16  C   UNL     1       1.164   2.849  20.208  0.00  0.00    +0.000 C 
ATOM     17  F   UNL     1       2.101   1.896  19.931  0.00  0.00    +0.000 F 
ATOM     18  F   UNL     1       0.815   2.650  21.511  0.00  0.00    +0.000 F 
ATOM     19  F   UNL     1       0.067   2.513  19.473  0.00  0.00    +0.000 F 
ENDBRANCH   5  16
TORSDOF 4
ENDMDL
MODEL 7
REMARK VINA RESULT:      -6.0      5.447      6.619
REMARK  Name = 
REMARK  6 active torsions:
REMARK  status: ('A' for Active; 'I' for Inactive)
REMARK    1  A    between atoms: C_1  and  N_2
REMARK    2  A    between atoms: N_2  and  C_3
REMARK    3  A    between atoms: N_2  and  N_4
REMARK    4  A    between atoms: C_5  and  S_6
REMARK    5  A    between atoms: N_7  and  C_8
REMARK    6  A    between atoms: C_12  and  C_13
REMARK                            x       y       z     vdW  Elec       q    Type
REMARK                         _______ _______ _______ _____ _____    ______ ____
ROOT
ATOM      1  C   UNL     1       2.042   6.324  20.177  0.00  0.00    +0.000 A 
ATOM      2  C   UNL     1       2.729   6.650  19.001  0.00  0.00    +0.000 A 
ATOM      3  C   UNL     1       2.949   5.699  18.003  0.00  0.00    +0.000 A 
ATOM      4  C   UNL     1       2.488   4.396  18.164  0.00  0.00    +0.000 A 
ATOM      5  C   UNL     1       1.794   4.035  19.326  0.00  0.00    +0.000 A 
ATOM      6  C   UNL     1       1.571   5.015  20.307  0.00  0.00    +0.000 A 
ENDROOT
BRANCH   1   9
ATOM      7  N   UNL     1       0.827   9.008  19.787  0.00  0.00    +0.000 NA
ATOM      8  C   UNL     1       1.236   8.562  20.941  0.00  0.00    +0.000 C 
ATOM      9  N   UNL     1       1.798   7.321  21.135  0.00  0.00    +0.000 N 
ATOM     10  H   UNL     1       2.266   7.205  22.022  0.00  0.00    +0.000 HD
BRANCH   7  12
ATOM     11  C   UNL     1       1.336  11.018  18.722  0.00  0.00    +0.000 C 
ATOM     12  N   UNL     1       0.401  10.290  19.603  0.00  0.00    +0.000 N 
ATOM     13  C   UNL     1      -0.966  10.479  19.096  0.00  0.00    +0.000 C 
ENDBRANCH   7  12
BRANCH   8  14
ATOM     14  S   UNL     1       1.184   9.465  22.448  0.00  0.00    +0.000 S 
ATOM     15  H   UNL     1       1.506   8.420  23.219  0.00  0.00    +0.000 HD
ENDBRANCH   8  14
ENDBRANCH   1   9
BRANCH   5  16
ATOM     16  C   UNL     1       1.293   2.631  19.542  0.00  0.00    +0.000 C 
ATOM     17  F   UNL     1       2.240   1.673  19.322  0.00  0.00    +0.000 F 
ATOM     18  F   UNL     1       0.854   2.424  20.817  0.00  0.00    +0.000 F 
ATOM     19  F   UNL     1       0.246   2.309  18.732  0.00  0.00    +0.000 F 
ENDBRANCH   5  16
TORSDOF 4
ENDMDL
MODEL 8
REMARK VINA RESULT:      -6.0      4.296      6.291
REMARK  Name = 
REMARK  6 active torsions:
REMARK  status: ('A' for Active; 'I' for Inactive)
REMARK    1  A    between atoms: C_1  and  N_2
REMARK    2  A    between atoms: N_2  and  C_3
REMARK    3  A    between atoms: N_2  and  N_4
REMARK    4  A    between atoms: C_5  and  S_6
REMARK    5  A    between atoms: N_7  and  C_8
REMARK    6  A    between atoms: C_12  and  C_13
REMARK                            x       y       z     vdW  Elec       q    Type
REMARK                         _______ _______ _______ _____ _____    ______ ____
ROOT
ATOM      1  C   UNL     1       3.926   3.261  17.669  0.00  0.00    +0.000 A 
ATOM      2  C   UNL     1       3.523   1.927  17.814  0.00  0.00    +0.000 A 
ATOM      3  C   UNL     1       2.569   1.557  18.764  0.00  0.00    +0.000 A 
ATOM      4  C   UNL     1       2.001   2.517  19.595  0.00  0.00    +0.000 A 
ATOM      5  C   UNL     1       2.378   3.861  19.477  0.00  0.00    +0.000 A 
ATOM      6  C   UNL     1       3.326   4.210  18.502  0.00  0.00    +0.000 A 
ENDROOT
BRANCH   1   9
ATOM      7  N   UNL     1       6.396   4.894  17.912  0.00  0.00    +0.000 NA
ATOM      8  C   UNL     1       5.991   4.360  16.794  0.00  0.00    +0.000 C 
ATOM      9  N   UNL     1       4.851   3.600  16.669  0.00  0.00    +0.000 N 
ATOM     10  H   UNL     1       4.549   3.448  15.718  0.00  0.00    +0.000 HD
BRANCH   7  12
ATOM     11  C   UNL     1       7.057   7.090  17.494  0.00  0.00    +0.000 C 
ATOM     12  N   UNL     1       7.454   5.752  17.976  0.00  0.00    +0.000 N 
ATOM     13  C   UNL     1       8.122   5.901  19.277  0.00  0.00    +0.000 C 
ENDBRANCH   7  12
BRANCH   8  14
ATOM     14  S   UNL     1       6.795   4.537  15.242  0.00  0.00    +0.000 S 
ATOM     15  H   UNL     1       6.520   3.295  14.827  0.00  0.00    +0.000 HD
ENDBRANCH   8  14
ENDBRANCH   1   9
BRANCH   5  16
ATOM     16  C   UNL     1       1.795   4.925  20.369  0.00  0.00    +0.000 C 
ATOM     17  F   UNL     1       1.932   6.190  19.875  0.00  0.00    +0.000 F 
ATOM     18  F   UNL     1       0.457   4.757  20.575  0.00  0.00    +0.000 F 
ATOM     19  F   UNL     1       2.361   4.950  21.608  0.00  0.00    +0.000 F 
ENDBRANCH   5  16
TORSDOF 4
ENDMDL
MODEL 9
REMARK VINA RESULT:      -6.0      4.426      6.484
REMARK  Name = 
REMARK  6 active torsions:
REMARK  status: ('A' for Active; 'I' for Inactive)
REMARK    1  A    between atoms: C_1  and  N_2
REMARK    2  A    between atoms: N_2  and  C_3
REMARK    3  A    between atoms: N_2  and  N_4
REMARK    4  A    between atoms: C_5  and  S_6
REMARK    5  A    between atoms: N_7  and  C_8
REMARK    6  A    between atoms: C_12  and  C_13
REMARK                            x       y       z     vdW  Elec       q    Type
REMARK                         _______ _______ _______ _____ _____    ______ ____
ROOT
ATOM      1  C   UNL     1       4.336   3.062  18.790  0.00  0.00    +0.000 A 
ATOM      2  C   UNL     1       3.772   2.163  17.876  0.00  0.00    +0.000 A 
ATOM      3  C   UNL     1       2.463   1.702  18.027  0.00  0.00    +0.000 A 
ATOM      4  C   UNL     1       1.690   2.128  19.102  0.00  0.00    +0.000 A 
ATOM      5  C   UNL     1       2.221   3.030  20.035  0.00  0.00    +0.000 A 
ATOM      6  C   UNL     1       3.534   3.492  19.851  0.00  0.00    +0.000 A 
ENDROOT
BRANCH   1   9
ATOM      7  N   UNL     1       5.301   4.922  16.683  0.00  0.00    +0.000 NA
ATOM      8  C   UNL     1       6.073   4.401  17.594  0.00  0.00    +0.000 C 
ATOM      9  N   UNL     1       5.638   3.541  18.576  0.00  0.00    +0.000 N 
ATOM     10  H   UNL     1       6.374   3.049  19.061  0.00  0.00    +0.000 HD
BRANCH   7  12
ATOM     11  C   UNL     1       5.882   4.831  14.427  0.00  0.00    +0.000 C 
ATOM     12  N   UNL     1       5.784   5.662  15.644  0.00  0.00    +0.000 N 
ATOM     13  C   UNL     1       5.069   6.902  15.309  0.00  0.00    +0.000 C 
ENDBRANCH   7  12
BRANCH   8  14
ATOM     14  S   UNL     1       7.805   4.665  17.719  0.00  0.00    +0.000 S 
ATOM     15  H   UNL     1       8.017   3.646  18.560  0.00  0.00    +0.000 HD
ENDBRANCH   8  14
ENDBRANCH   1   9
BRANCH   5  16
ATOM     16  C   UNL     1       1.419   3.502  21.220  0.00  0.00    +0.000 C 
ATOM     17  F   UNL     1       2.174   4.095  22.190  0.00  0.00    +0.000 F 
ATOM     18  F   UNL     1       0.477   4.426  20.876  0.00  0.00    +0.000 F 
ATOM     19  F   UNL     1       0.743   2.496  21.840  0.00  0.00    +0.000 F 
ENDBRANCH   5  16
TORSDOF 4
ENDMDL
