MODEL 1
REMARK VINA RESULT:      -8.6      0.000      0.000
REMARK  Name = 
REMARK  6 active torsions:
REMARK  status: ('A' for Active; 'I' for Inactive)
REMARK    1  A    between atoms: C_1  and  C_2
REMARK    2  A    between atoms: C_5  and  O_6
REMARK    3  A    between atoms: O_6  and  C_7
REMARK    4  A    between atoms: C_7  and  C_8
REMARK    5  A    between atoms: N_10  and  N_11
REMARK    6  A    between atoms: C_12  and  C_14
REMARK                            x       y       z     vdW  Elec       q    Type
REMARK                         _______ _______ _______ _____ _____    ______ ____
ROOT
ATOM      1  N   UNL     1       4.486   6.505  18.362  0.00  0.00    +0.000 N 
ATOM      2  C   UNL     1       3.126   6.306  18.366  0.00  0.00    +0.000 C 
ATOM      3  O   UNL     1       2.618   5.301  17.864  0.00  0.00    +0.000 OA
ATOM      4  H   UNL     1       4.921   7.404  18.572  0.00  0.00    +0.000 HD
ENDROOT
BRANCH   2   5
ATOM      5  C   UNL     1       2.273   7.344  19.002  0.00  0.00    +0.000 A 
ATOM      6  C   UNL     1       1.932   7.146  20.350  0.00  0.00    +0.000 A 
ATOM      7  C   UNL     1       1.288   8.148  21.067  0.00  0.00    +0.000 A 
ATOM      8  C   UNL     1       0.995   9.349  20.426  0.00  0.00    +0.000 A 
ATOM      9  C   UNL     1       0.666  10.549  21.225  0.00  0.00    +0.000 A 
ATOM     10  O   UNL     1       0.376  10.475  22.413  0.00  0.00    +0.000 OA
ATOM     11  N   UNL     1       0.741  11.708  20.507  0.00  0.00    +0.000 N 
ATOM     12  C   UNL     1       0.521  11.710  19.147  0.00  0.00    +0.000 A 
ATOM     13  N   UNL     1       0.743  10.693  18.382  0.00  0.00    +0.000 NA
ATOM     14  C   UNL     1       1.197   9.525  19.046  0.00  0.00    +0.000 A 
ATOM     15  C   UNL     1       1.872   8.521  18.342  0.00  0.00    +0.000 A 
ATOM     16  C   UNL     1      -0.031  13.055  18.756  0.00  0.00    +0.000 C 
ATOM     17  C   UNL     1      -0.242  13.747  20.113  0.00  0.00    +0.000 C 
ATOM     18  C   UNL     1       0.733  13.044  21.030  0.00  0.00    +0.000 C 
ENDBRANCH   2   5
BRANCH   1  21
ATOM     19  C   UNL     1       6.598   5.920  17.436  0.00  0.00    +0.000 C 
ATOM     20  O   UNL     1       7.115   6.935  17.907  0.00  0.00    +0.000 OA
ATOM     21  N   UNL     1       5.288   5.586  17.662  0.00  0.00    +0.000 N 
ATOM     22  H   UNL     1       4.786   4.878  17.124  0.00  0.00    +0.000 HD
BRANCH  19  23
ATOM     23  C   UNL     1       7.379   4.921  16.579  0.00  0.00    +0.000 C 
BRANCH  23  24
ATOM     24  O   UNL     1       7.546   5.490  15.285  0.00  0.00    +0.000 OA
BRANCH  24  29
ATOM     25  C   UNL     1       4.824   2.714  11.146  0.00  0.00    +0.000 C 
ATOM     26  C   UNL     1       5.566   3.429  12.236  0.00  0.00    +0.000 A 
ATOM     27  C   UNL     1       5.000   3.605  13.502  0.00  0.00    +0.000 A 
ATOM     28  C   UNL     1       5.699   4.292  14.498  0.00  0.00    +0.000 A 
ATOM     29  C   UNL     1       6.976   4.801  14.250  0.00  0.00    +0.000 A 
ATOM     30  C   UNL     1       7.544   4.633  12.988  0.00  0.00    +0.000 A 
ATOM     31  C   UNL     1       6.841   3.951  11.987  0.00  0.00    +0.000 A 
ENDBRANCH  24  29
ENDBRANCH  23  24
ENDBRANCH  19  23
ENDBRANCH   1  21
TORSDOF 5
ENDMDL
MODEL 2
REMARK VINA RESULT:      -8.5      4.061     10.689
REMARK  Name = 
REMARK  6 active torsions:
REMARK  status: ('A' for Active; 'I' for Inactive)
REMARK    1  A    between atoms: C_1  and  C_2
REMARK    2  A    between atoms: C_5  and  O_6
REMARK    3  A    between atoms: O_6  and  C_7
REMARK    4  A    between atoms: C_7  and  C_8
REMARK    5  A    between atoms: N_10  and  N_11
REMARK    6  A    between atoms: C_12  and  C_14
REMARK                            x       y       z     vdW  Elec       q    Type
REMARK                         _______ _______ _______ _____ _____    ______ ____
ROOT
ATOM      1  N   UNL     1      -0.273   9.811  17.703  0.00  0.00    +0.000 N 
ATOM      2  C   UNL     1       0.543   9.727  18.805  0.00  0.00    +0.000 C 
ATOM      3  O   UNL     1       0.408  10.483  19.770  0.00  0.00    +0.000 OA
ATOM      4  H   UNL     1      -0.062   9.354  16.814  0.00  0.00    +0.000 HD
ENDROOT
BRANCH   2   5
ATOM      5  C   UNL     1       1.603   8.684  18.809  0.00  0.00    +0.000 A 
ATOM      6  C   UNL     1       1.641   7.821  19.917  0.00  0.00    +0.000 A 
ATOM      7  C   UNL     1       2.483   6.715  19.918  0.00  0.00    +0.000 A 
ATOM      8  C   UNL     1       3.280   6.477  18.801  0.00  0.00    +0.000 A 
ATOM      9  C   UNL     1       3.889   5.145  18.602  0.00  0.00    +0.000 A 
ATOM     10  O   UNL     1       3.949   4.320  19.504  0.00  0.00    +0.000 OA
ATOM     11  N   UNL     1       4.344   4.949  17.328  0.00  0.00    +0.000 N 
ATOM     12  C   UNL     1       4.755   6.012  16.556  0.00  0.00    +0.000 A 
ATOM     13  N   UNL     1       4.304   7.215  16.691  0.00  0.00    +0.000 NA
ATOM     14  C   UNL     1       3.367   7.395  17.740  0.00  0.00    +0.000 A 
ATOM     15  C   UNL     1       2.494   8.489  17.737  0.00  0.00    +0.000 A 
ATOM     16  C   UNL     1       5.804   5.524  15.592  0.00  0.00    +0.000 C 
ATOM     17  C   UNL     1       6.039   4.073  16.048  0.00  0.00    +0.000 C 
ATOM     18  C   UNL     1       4.749   3.702  16.745  0.00  0.00    +0.000 C 
ENDBRANCH   2   5
BRANCH   1  21
ATOM     19  C   UNL     1      -2.533  10.550  17.636  0.00  0.00    +0.000 C 
ATOM     20  O   UNL     1      -2.942   9.396  17.780  0.00  0.00    +0.000 OA
ATOM     21  N   UNL     1      -1.199  10.866  17.644  0.00  0.00    +0.000 N 
ATOM     22  H   UNL     1      -0.831  11.763  17.323  0.00  0.00    +0.000 HD
BRANCH  19  23
ATOM     23  C   UNL     1      -3.478  11.741  17.465  0.00  0.00    +0.000 C 
BRANCH  23  24
ATOM     24  O   UNL     1      -4.808  11.239  17.390  0.00  0.00    +0.000 OA
BRANCH  24  29
ATOM     25  C   UNL     1      -7.746  11.931  22.200  0.00  0.00    +0.000 C 
ATOM     26  C   UNL     1      -6.967  11.720  20.935  0.00  0.00    +0.000 A 
ATOM     27  C   UNL     1      -5.853  12.509  20.632  0.00  0.00    +0.000 A 
ATOM     28  C   UNL     1      -5.152  12.310  19.439  0.00  0.00    +0.000 A 
ATOM     29  C   UNL     1      -5.543  11.314  18.541  0.00  0.00    +0.000 A 
ATOM     30  C   UNL     1      -6.655  10.527  18.836  0.00  0.00    +0.000 A 
ATOM     31  C   UNL     1      -7.362  10.731  20.027  0.00  0.00    +0.000 A 
ENDBRANCH  24  29
ENDBRANCH  23  24
ENDBRANCH  19  23
ENDBRANCH   1  21
TORSDOF 5
ENDMDL
MODEL 3
REMARK VINA RESULT:      -8.5      3.060      4.634
REMARK  Name = 
REMARK  6 active torsions:
REMARK  status: ('A' for Active; 'I' for Inactive)
REMARK    1  A    between atoms: C_1  and  C_2
REMARK    2  A    between atoms: C_5  and  O_6
REMARK    3  A    between atoms: O_6  and  C_7
REMARK    4  A    between atoms: C_7  and  C_8
REMARK    5  A    between atoms: N_10  and  N_11
REMARK    6  A    between atoms: C_12  and  C_14
REMARK                            x       y       z     vdW  Elec       q    Type
REMARK                         _______ _______ _______ _____ _____    ______ ____
ROOT
ATOM      1  N   UNL     1       1.768   6.956  21.002  0.00  0.00    +0.000 N 
ATOM      2  C   UNL     1       1.746   7.897  20.001  0.00  0.00    +0.000 C 
ATOM      3  O   UNL     1       2.289   7.697  18.911  0.00  0.00    +0.000 OA
ATOM      4  H   UNL     1       1.520   7.163  21.970  0.00  0.00    +0.000 HD
ENDROOT
BRANCH   2   5
ATOM      5  C   UNL     1       1.037   9.178  20.264  0.00  0.00    +0.000 A 
ATOM      6  C   UNL     1       1.032  10.126  19.228  0.00  0.00    +0.000 A 
ATOM      7  C   UNL     1       0.249  11.270  19.326  0.00  0.00    +0.000 A 
ATOM      8  C   UNL     1      -0.532  11.453  20.464  0.00  0.00    +0.000 A 
ATOM      9  C   UNL     1      -1.639  12.433  20.447  0.00  0.00    +0.000 A 
ATOM     10  O   UNL     1      -1.737  13.284  19.572  0.00  0.00    +0.000 OA
ATOM     11  N   UNL     1      -2.518  12.266  21.479  0.00  0.00    +0.000 N 
ATOM     12  C   UNL     1      -2.105  11.721  22.675  0.00  0.00    +0.000 A 
ATOM     13  N   UNL     1      -1.123  10.889  22.784  0.00  0.00    +0.000 NA
ATOM     14  C   UNL     1      -0.443  10.596  21.574  0.00  0.00    +0.000 A 
ATOM     15  C   UNL     1       0.327   9.433  21.453  0.00  0.00    +0.000 A 
ATOM     16  C   UNL     1      -2.965  12.281  23.776  0.00  0.00    +0.000 C 
ATOM     17  C   UNL     1      -3.808  13.342  23.047  0.00  0.00    +0.000 C 
ATOM     18  C   UNL     1      -3.812  12.872  21.610  0.00  0.00    +0.000 C 
ENDBRANCH   2   5
BRANCH   1  21
ATOM     19  C   UNL     1       1.866   4.618  20.577  0.00  0.00    +0.000 C 
ATOM     20  O   UNL     1       0.641   4.564  20.445  0.00  0.00    +0.000 OA
ATOM     21  N   UNL     1       2.533   5.794  20.801  0.00  0.00    +0.000 N 
ATOM     22  H   UNL     1       3.503   5.840  21.117  0.00  0.00    +0.000 HD
BRANCH  19  23
ATOM     23  C   UNL     1       2.759   3.380  20.471  0.00  0.00    +0.000 C 
BRANCH  23  24
ATOM     24  O   UNL     1       2.845   3.017  19.097  0.00  0.00    +0.000 OA
BRANCH  24  29
ATOM     25  C   UNL     1       6.997   5.266  15.943  0.00  0.00    +0.000 C 
ATOM     26  C   UNL     1       5.920   4.653  16.789  0.00  0.00    +0.000 A 
ATOM     27  C   UNL     1       4.731   4.188  16.219  0.00  0.00    +0.000 A 
ATOM     28  C   UNL     1       3.730   3.639  17.025  0.00  0.00    +0.000 A 
ATOM     29  C   UNL     1       3.908   3.533  18.407  0.00  0.00    +0.000 A 
ATOM     30  C   UNL     1       5.089   3.999  18.981  0.00  0.00    +0.000 A 
ATOM     31  C   UNL     1       6.089   4.557  18.175  0.00  0.00    +0.000 A 
ENDBRANCH  24  29
ENDBRANCH  23  24
ENDBRANCH  19  23
ENDBRANCH   1  21
TORSDOF 5
ENDMDL
MODEL 4
REMARK VINA RESULT:      -8.5      2.381      3.886
REMARK  Name = 
REMARK  6 active torsions:
REMARK  status: ('A' for Active; 'I' for Inactive)
REMARK    1  A    between atoms: C_1  and  C_2
REMARK    2  A    between atoms: C_5  and  O_6
REMARK    3  A    between atoms: O_6  and  C_7
REMARK    4  A    between atoms: C_7  and  C_8
REMARK    5  A    between atoms: N_10  and  N_11
REMARK    6  A    between atoms: C_12  and  C_14
REMARK                            x       y       z     vdW  Elec       q    Type
REMARK                         _______ _______ _______ _____ _____    ______ ____
ROOT
ATOM      1  N   UNL     1       2.212   7.314  20.076  0.00  0.00    +0.000 N 
ATOM      2  C   UNL     1       2.001   8.192  19.040  0.00  0.00    +0.000 C 
ATOM      3  O   UNL     1       2.514   8.022  17.932  0.00  0.00    +0.000 OA
ATOM      4  H   UNL     1       1.984   7.529  21.047  0.00  0.00    +0.000 HD
ENDROOT
BRANCH   2   5
ATOM      5  C   UNL     1       1.122   9.365  19.291  0.00  0.00    +0.000 A 
ATOM      6  C   UNL     1       0.286   9.769  18.237  0.00  0.00    +0.000 A 
ATOM      7  C   UNL     1      -0.688  10.740  18.444  0.00  0.00    +0.000 A 
ATOM      8  C   UNL     1      -0.819  11.298  19.713  0.00  0.00    +0.000 A 
ATOM      9  C   UNL     1      -2.052  12.033  20.069  0.00  0.00    +0.000 A 
ATOM     10  O   UNL     1      -2.850  12.407  19.219  0.00  0.00    +0.000 OA
ATOM     11  N   UNL     1      -2.195  12.220  21.415  0.00  0.00    +0.000 N 
ATOM     12  C   UNL     1      -1.091  12.295  22.236  0.00  0.00    +0.000 A 
ATOM     13  N   UNL     1       0.036  11.717  21.980  0.00  0.00    +0.000 NA
ATOM     14  C   UNL     1       0.090  11.017  20.747  0.00  0.00    +0.000 A 
ATOM     15  C   UNL     1       1.047  10.018  20.536  0.00  0.00    +0.000 A 
ATOM     16  C   UNL     1      -1.434  13.164  23.416  0.00  0.00    +0.000 C 
ATOM     17  C   UNL     1      -2.831  13.699  23.054  0.00  0.00    +0.000 C 
ATOM     18  C   UNL     1      -3.376  12.661  22.099  0.00  0.00    +0.000 C 
ENDBRANCH   2   5
BRANCH   1  21
ATOM     19  C   UNL     1       2.649   4.987  19.851  0.00  0.00    +0.000 C 
ATOM     20  O   UNL     1       1.444   4.730  19.887  0.00  0.00    +0.000 OA
ATOM     21  N   UNL     1       3.132   6.269  19.880  0.00  0.00    +0.000 N 
ATOM     22  H   UNL     1       4.111   6.499  20.061  0.00  0.00    +0.000 HD
BRANCH  19  23
ATOM     23  C   UNL     1       3.718   3.897  19.739  0.00  0.00    +0.000 C 
BRANCH  23  24
ATOM     24  O   UNL     1       4.971   4.534  19.512  0.00  0.00    +0.000 OA
BRANCH  24  29
ATOM     25  C   UNL     1       6.659   4.239  14.098  0.00  0.00    +0.000 C 
ATOM     26  C   UNL     1       6.235   4.299  15.536  0.00  0.00    +0.000 A 
ATOM     27  C   UNL     1       4.917   4.026  15.913  0.00  0.00    +0.000 A 
ATOM     28  C   UNL     1       4.536   4.107  17.256  0.00  0.00    +0.000 A 
ATOM     29  C   UNL     1       5.467   4.446  18.240  0.00  0.00    +0.000 A 
ATOM     30  C   UNL     1       6.781   4.725  17.870  0.00  0.00    +0.000 A 
ATOM     31  C   UNL     1       7.162   4.651  16.524  0.00  0.00    +0.000 A 
ENDBRANCH  24  29
ENDBRANCH  23  24
ENDBRANCH  19  23
ENDBRANCH   1  21
TORSDOF 5
ENDMDL
MODEL 5
REMARK VINA RESULT:      -8.4      3.098      4.068
REMARK  Name = 
REMARK  6 active torsions:
REMARK  status: ('A' for Active; 'I' for Inactive)
REMARK    1  A    between atoms: C_1  and  C_2
REMARK    2  A    between atoms: C_5  and  O_6
REMARK    3  A    between atoms: O_6  and  C_7
REMARK    4  A    between atoms: C_7  and  C_8
REMARK    5  A    between atoms: N_10  and  N_11
REMARK    6  A    between atoms: C_12  and  C_14
REMARK                            x       y       z     vdW  Elec       q    Type
REMARK                         _______ _______ _______ _____ _____    ______ ____
ROOT
ATOM      1  N   UNL     1       1.944   6.464  20.805  0.00  0.00    +0.000 N 
ATOM      2  C   UNL     1       1.893   7.618  20.060  0.00  0.00    +0.000 C 
ATOM      3  O   UNL     1       2.555   7.751  19.028  0.00  0.00    +0.000 OA
ATOM      4  H   UNL     1       1.583   6.397  21.758  0.00  0.00    +0.000 HD
ENDROOT
BRANCH   2   5
ATOM      5  C   UNL     1       1.006   8.713  20.532  0.00  0.00    +0.000 A 
ATOM      6  C   UNL     1       0.390   8.538  21.782  0.00  0.00    +0.000 A 
ATOM      7  C   UNL     1      -0.311   9.583  22.374  0.00  0.00    +0.000 A 
ATOM      8  C   UNL     1      -0.386  10.803  21.706  0.00  0.00    +0.000 A 
ATOM      9  C   UNL     1      -0.782  12.021  22.443  0.00  0.00    +0.000 A 
ATOM     10  O   UNL     1      -1.306  11.968  23.548  0.00  0.00    +0.000 OA
ATOM     11  N   UNL     1      -0.485  13.174  21.772  0.00  0.00    +0.000 N 
ATOM     12  C   UNL     1      -0.430  13.193  20.396  0.00  0.00    +0.000 A 
ATOM     13  N   UNL     1      -0.133  12.164  19.674  0.00  0.00    +0.000 NA
ATOM     14  C   UNL     1       0.097  10.965  20.396  0.00  0.00    +0.000 A 
ATOM     15  C   UNL     1       0.826   9.917  19.823  0.00  0.00    +0.000 A 
ATOM     16  C   UNL     1      -0.797  14.575  19.924  0.00  0.00    +0.000 C 
ATOM     17  C   UNL     1      -1.225  15.279  21.224  0.00  0.00    +0.000 C 
ATOM     18  C   UNL     1      -0.503  14.506  22.305  0.00  0.00    +0.000 C 
ENDBRANCH   2   5
BRANCH   1  21
ATOM     19  C   UNL     1       2.384   4.350  19.807  0.00  0.00    +0.000 C 
ATOM     20  O   UNL     1       1.201   4.229  19.480  0.00  0.00    +0.000 OA
ATOM     21  N   UNL     1       2.866   5.472  20.429  0.00  0.00    +0.000 N 
ATOM     22  H   UNL     1       3.776   5.513  20.890  0.00  0.00    +0.000 HD
BRANCH  19  23
ATOM     23  C   UNL     1       3.430   3.271  19.521  0.00  0.00    +0.000 C 
BRANCH  23  24
ATOM     24  O   UNL     1       3.892   3.451  18.187  0.00  0.00    +0.000 OA
BRANCH  24  29
ATOM     25  C   UNL     1       7.635   7.658  17.457  0.00  0.00    +0.000 C 
ATOM     26  C   UNL     1       6.625   6.567  17.654  0.00  0.00    +0.000 A 
ATOM     27  C   UNL     1       6.835   5.547  18.587  0.00  0.00    +0.000 A 
ATOM     28  C   UNL     1       5.891   4.527  18.742  0.00  0.00    +0.000 A 
ATOM     29  C   UNL     1       4.721   4.519  17.979  0.00  0.00    +0.000 A 
ATOM     30  C   UNL     1       4.509   5.530  17.044  0.00  0.00    +0.000 A 
ATOM     31  C   UNL     1       5.457   6.548  16.883  0.00  0.00    +0.000 A 
ENDBRANCH  24  29
ENDBRANCH  23  24
ENDBRANCH  19  23
ENDBRANCH   1  21
TORSDOF 5
ENDMDL
MODEL 6
REMARK VINA RESULT:      -8.4      6.246      8.114
REMARK  Name = 
REMARK  6 active torsions:
REMARK  status: ('A' for Active; 'I' for Inactive)
REMARK    1  A    between atoms: C_1  and  C_2
REMARK    2  A    between atoms: C_5  and  O_6
REMARK    3  A    between atoms: O_6  and  C_7
REMARK    4  A    between atoms: C_7  and  C_8
REMARK    5  A    between atoms: N_10  and  N_11
REMARK    6  A    between atoms: C_12  and  C_14
REMARK                            x       y       z     vdW  Elec       q    Type
REMARK                         _______ _______ _______ _____ _____    ______ ____
ROOT
ATOM      1  N   UNL     1       8.609   7.968  18.935  0.00  0.00    +0.000 N 
ATOM      2  C   UNL     1       8.501   9.240  18.426  0.00  0.00    +0.000 C 
ATOM      3  O   UNL     1       7.759   9.495  17.474  0.00  0.00    +0.000 OA
ATOM      4  H   UNL     1       9.355   7.680  19.570  0.00  0.00    +0.000 HD
ENDROOT
BRANCH   2   5
ATOM      5  C   UNL     1       9.307  10.315  19.062  0.00  0.00    +0.000 A 
ATOM      6  C   UNL     1      10.485  10.700  18.403  0.00  0.00    +0.000 A 
ATOM      7  C   UNL     1      11.202  11.811  18.834  0.00  0.00    +0.000 A 
ATOM      8  C   UNL     1      10.725  12.534  19.925  0.00  0.00    +0.000 A 
ATOM      9  C   UNL     1      11.226  13.903  20.176  0.00  0.00    +0.000 A 
ATOM     10  O   UNL     1      12.234  14.333  19.630  0.00  0.00    +0.000 OA
ATOM     11  N   UNL     1      10.443  14.609  21.045  0.00  0.00    +0.000 N 
ATOM     12  C   UNL     1       9.703  13.962  22.010  0.00  0.00    +0.000 A 
ATOM     13  N   UNL     1       9.261  12.754  21.889  0.00  0.00    +0.000 NA
ATOM     14  C   UNL     1       9.630  12.094  20.689  0.00  0.00    +0.000 A 
ATOM     15  C   UNL     1       8.901  10.992  20.228  0.00  0.00    +0.000 A 
ATOM     16  C   UNL     1       9.545  14.887  23.188  0.00  0.00    +0.000 C 
ATOM     17  C   UNL     1      10.441  16.079  22.810  0.00  0.00    +0.000 C 
ATOM     18  C   UNL     1      10.501  16.019  21.301  0.00  0.00    +0.000 C 
ENDBRANCH   2   5
BRANCH   1  21
ATOM     19  C   UNL     1       7.662   5.786  18.971  0.00  0.00    +0.000 C 
ATOM     20  O   UNL     1       7.883   5.682  20.180  0.00  0.00    +0.000 OA
ATOM     21  N   UNL     1       7.940   6.928  18.266  0.00  0.00    +0.000 N 
ATOM     22  H   UNL     1       7.962   6.969  17.246  0.00  0.00    +0.000 HD
BRANCH  19  23
ATOM     23  C   UNL     1       7.027   4.660  18.152  0.00  0.00    +0.000 C 
BRANCH  23  24
ATOM     24  O   UNL     1       5.898   5.197  17.470  0.00  0.00    +0.000 OA
BRANCH  24  29
ATOM     25  C   UNL     1       1.035   4.006  20.150  0.00  0.00    +0.000 C 
ATOM     26  C   UNL     1       2.306   4.321  19.416  0.00  0.00    +0.000 A 
ATOM     27  C   UNL     1       3.460   3.556  19.611  0.00  0.00    +0.000 A 
ATOM     28  C   UNL     1       4.641   3.877  18.933  0.00  0.00    +0.000 A 
ATOM     29  C   UNL     1       4.680   4.953  18.044  0.00  0.00    +0.000 A 
ATOM     30  C   UNL     1       3.534   5.721  17.849  0.00  0.00    +0.000 A 
ATOM     31  C   UNL     1       2.353   5.406  18.533  0.00  0.00    +0.000 A 
ENDBRANCH  24  29
ENDBRANCH  23  24
ENDBRANCH  19  23
ENDBRANCH   1  21
TORSDOF 5
ENDMDL
MODEL 7
REMARK VINA RESULT:      -8.3      2.653      3.940
REMARK  Name = 
REMARK  6 active torsions:
REMARK  status: ('A' for Active; 'I' for Inactive)
REMARK    1  A    between atoms: C_1  and  C_2
REMARK    2  A    between atoms: C_5  and  O_6
REMARK    3  A    between atoms: O_6  and  C_7
REMARK    4  A    between atoms: C_7  and  C_8
REMARK    5  A    between atoms: N_10  and  N_11
REMARK    6  A    between atoms: C_12  and  C_14
REMARK                            x       y       z     vdW  Elec       q    Type
REMARK                         _______ _______ _______ _____ _____    ______ ____
ROOT
ATOM      1  N   UNL     1       2.611   6.441  18.408  0.00  0.00    +0.000 N 
ATOM      2  C   UNL     1       2.376   7.791  18.305  0.00  0.00    +0.000 C 
ATOM      3  O   UNL     1       2.887   8.471  17.412  0.00  0.00    +0.000 OA
ATOM      4  H   UNL     1       2.382   5.895  19.240  0.00  0.00    +0.000 HD
ENDROOT
BRANCH   2   5
ATOM      5  C   UNL     1       1.473   8.419  19.306  0.00  0.00    +0.000 A 
ATOM      6  C   UNL     1       1.553   7.938  20.623  0.00  0.00    +0.000 A 
ATOM      7  C   UNL     1       0.875   8.584  21.650  0.00  0.00    +0.000 A 
ATOM      8  C   UNL     1       0.123   9.718  21.348  0.00  0.00    +0.000 A 
ATOM      9  C   UNL     1      -0.292  10.634  22.432  0.00  0.00    +0.000 A 
ATOM     10  O   UNL     1      -0.238  10.309  23.611  0.00  0.00    +0.000 OA
ATOM     11  N   UNL     1      -0.710  11.852  21.972  0.00  0.00    +0.000 N 
ATOM     12  C   UNL     1      -1.263  11.979  20.717  0.00  0.00    +0.000 A 
ATOM     13  N   UNL     1      -0.986  11.196  19.727  0.00  0.00    +0.000 NA
ATOM     14  C   UNL     1      -0.088  10.140  20.025  0.00  0.00    +0.000 A 
ATOM     15  C   UNL     1       0.622   9.499  19.003  0.00  0.00    +0.000 A 
ATOM     16  C   UNL     1      -2.229  13.133  20.738  0.00  0.00    +0.000 C 
ATOM     17  C   UNL     1      -2.259  13.530  22.224  0.00  0.00    +0.000 C 
ATOM     18  C   UNL     1      -0.933  13.033  22.754  0.00  0.00    +0.000 C 
ENDBRANCH   2   5
BRANCH   1  21
ATOM     19  C   UNL     1       4.246   4.767  17.978  0.00  0.00    +0.000 C 
ATOM     20  O   UNL     1       4.004   4.218  19.055  0.00  0.00    +0.000 OA
ATOM     21  N   UNL     1       3.552   5.864  17.538  0.00  0.00    +0.000 N 
ATOM     22  H   UNL     1       3.863   6.455  16.765  0.00  0.00    +0.000 HD
BRANCH  19  23
ATOM     23  C   UNL     1       5.324   4.258  17.019  0.00  0.00    +0.000 C 
BRANCH  23  24
ATOM     24  O   UNL     1       6.566   4.261  17.715  0.00  0.00    +0.000 OA
BRANCH  24  29
ATOM     25  C   UNL     1       8.668   9.505  18.292  0.00  0.00    +0.000 C 
ATOM     26  C   UNL     1       8.140   8.108  18.144  0.00  0.00    +0.000 A 
ATOM     27  C   UNL     1       7.384   7.736  17.028  0.00  0.00    +0.000 A 
ATOM     28  C   UNL     1       6.883   6.435  16.918  0.00  0.00    +0.000 A 
ATOM     29  C   UNL     1       7.141   5.487  17.910  0.00  0.00    +0.000 A 
ATOM     30  C   UNL     1       7.889   5.854  19.027  0.00  0.00    +0.000 A 
ATOM     31  C   UNL     1       8.385   7.158  19.142  0.00  0.00    +0.000 A 
ENDBRANCH  24  29
ENDBRANCH  23  24
ENDBRANCH  19  23
ENDBRANCH   1  21
TORSDOF 5
ENDMDL
MODEL 8
REMARK VINA RESULT:      -8.3      6.224      8.020
REMARK  Name = 
REMARK  6 active torsions:
REMARK  status: ('A' for Active; 'I' for Inactive)
REMARK    1  A    between atoms: C_1  and  C_2
REMARK    2  A    between atoms: C_5  and  O_6
REMARK    3  A    between atoms: O_6  and  C_7
REMARK    4  A    between atoms: C_7  and  C_8
REMARK    5  A    between atoms: N_10  and  N_11
REMARK    6  A    between atoms: C_12  and  C_14
REMARK                            x       y       z     vdW  Elec       q    Type
REMARK                         _______ _______ _______ _____ _____    ______ ____
ROOT
ATOM      1  N   UNL     1       7.615   8.222  17.179  0.00  0.00    +0.000 N 
ATOM      2  C   UNL     1       8.387   8.831  18.140  0.00  0.00    +0.000 C 
ATOM      3  O   UNL     1       8.830   8.206  19.106  0.00  0.00    +0.000 OA
ATOM      4  H   UNL     1       7.065   8.739  16.493  0.00  0.00    +0.000 HD
ENDROOT
BRANCH   2   5
ATOM      5  C   UNL     1       8.683  10.279  17.980  0.00  0.00    +0.000 A 
ATOM      6  C   UNL     1       7.703  11.062  17.348  0.00  0.00    +0.000 A 
ATOM      7  C   UNL     1       7.822  12.447  17.315  0.00  0.00    +0.000 A 
ATOM      8  C   UNL     1       8.925  13.040  17.923  0.00  0.00    +0.000 A 
ATOM      9  C   UNL     1       8.904  14.484  18.239  0.00  0.00    +0.000 A 
ATOM     10  O   UNL     1       8.073  15.240  17.752  0.00  0.00    +0.000 OA
ATOM     11  N   UNL     1       9.877  14.853  19.124  0.00  0.00    +0.000 N 
ATOM     12  C   UNL     1      11.061  14.153  19.201  0.00  0.00    +0.000 A 
ATOM     13  N   UNL     1      11.175  12.901  18.906  0.00  0.00    +0.000 NA
ATOM     14  C   UNL     1       9.989  12.279  18.438  0.00  0.00    +0.000 A 
ATOM     15  C   UNL     1       9.845  10.888  18.492  0.00  0.00    +0.000 A 
ATOM     16  C   UNL     1      12.144  15.097  19.649  0.00  0.00    +0.000 C 
ATOM     17  C   UNL     1      11.432  16.461  19.651  0.00  0.00    +0.000 C 
ATOM     18  C   UNL     1       9.973  16.103  19.821  0.00  0.00    +0.000 C 
ENDBRANCH   2   5
BRANCH   1  21
ATOM     19  C   UNL     1       6.114   6.429  16.743  0.00  0.00    +0.000 C 
ATOM     20  O   UNL     1       5.494   7.113  15.925  0.00  0.00    +0.000 OA
ATOM     21  N   UNL     1       7.237   6.884  17.385  0.00  0.00    +0.000 N 
ATOM     22  H   UNL     1       7.641   6.428  18.205  0.00  0.00    +0.000 HD
BRANCH  19  23
ATOM     23  C   UNL     1       5.706   4.997  17.095  0.00  0.00    +0.000 C 
BRANCH  23  24
ATOM     24  O   UNL     1       4.329   4.841  16.767  0.00  0.00    +0.000 OA
BRANCH  24  29
ATOM     25  C   UNL     1       1.318   2.823  21.139  0.00  0.00    +0.000 C 
ATOM     26  C   UNL     1       2.096   3.342  19.965  0.00  0.00    +0.000 A 
ATOM     27  C   UNL     1       3.486   3.201  19.900  0.00  0.00    +0.000 A 
ATOM     28  C   UNL     1       4.195   3.709  18.807  0.00  0.00    +0.000 A 
ATOM     29  C   UNL     1       3.528   4.350  17.761  0.00  0.00    +0.000 A 
ATOM     30  C   UNL     1       2.143   4.497  17.823  0.00  0.00    +0.000 A 
ATOM     31  C   UNL     1       1.433   3.995  18.920  0.00  0.00    +0.000 A 
ENDBRANCH  24  29
ENDBRANCH  23  24
ENDBRANCH  19  23
ENDBRANCH   1  21
TORSDOF 5
ENDMDL
MODEL 9
REMARK VINA RESULT:      -8.2      3.200      4.404
REMARK  Name = 
REMARK  6 active torsions:
REMARK  status: ('A' for Active; 'I' for Inactive)
REMARK    1  A    between atoms: C_1  and  C_2
REMARK    2  A    between atoms: C_5  and  O_6
REMARK    3  A    between atoms: O_6  and  C_7
REMARK    4  A    between atoms: C_7  and  C_8
REMARK    5  A    between atoms: N_10  and  N_11
REMARK    6  A    between atoms: C_12  and  C_14
REMARK                            x       y       z     vdW  Elec       q    Type
REMARK                         _______ _______ _______ _____ _____    ______ ____
ROOT
ATOM      1  N   UNL     1       2.090   6.996  20.250  0.00  0.00    +0.000 N 
ATOM      2  C   UNL     1       2.125   7.957  19.268  0.00  0.00    +0.000 C 
ATOM      3  O   UNL     1       2.860   7.849  18.283  0.00  0.00    +0.000 OA
ATOM      4  H   UNL     1       1.663   7.146  21.165  0.00  0.00    +0.000 HD
ENDROOT
BRANCH   2   5
ATOM      5  C   UNL     1       1.239   9.141  19.421  0.00  0.00    +0.000 A 
ATOM      6  C   UNL     1       0.403   9.454  18.337  0.00  0.00    +0.000 A 
ATOM      7  C   UNL     1      -0.576  10.433  18.462  0.00  0.00    +0.000 A 
ATOM      8  C   UNL     1      -0.714  11.091  19.682  0.00  0.00    +0.000 A 
ATOM      9  C   UNL     1      -1.951  11.845  19.975  0.00  0.00    +0.000 A 
ATOM     10  O   UNL     1      -2.749  12.145  19.097  0.00  0.00    +0.000 OA
ATOM     11  N   UNL     1      -2.098  12.139  21.301  0.00  0.00    +0.000 N 
ATOM     12  C   UNL     1      -0.997  12.286  22.116  0.00  0.00    +0.000 A 
ATOM     13  N   UNL     1       0.134  11.695  21.910  0.00  0.00    +0.000 NA
ATOM     14  C   UNL     1       0.194  10.900  20.738  0.00  0.00    +0.000 A 
ATOM     15  C   UNL     1       1.157   9.891  20.610  0.00  0.00    +0.000 A 
ATOM     16  C   UNL     1      -1.347  13.246  23.221  0.00  0.00    +0.000 C 
ATOM     17  C   UNL     1      -2.746  13.742  22.815  0.00  0.00    +0.000 C 
ATOM     18  C   UNL     1      -3.283  12.627  21.946  0.00  0.00    +0.000 C 
ENDBRANCH   2   5
BRANCH   1  21
ATOM     19  C   UNL     1       2.590   4.770  19.576  0.00  0.00    +0.000 C 
ATOM     20  O   UNL     1       1.490   4.661  19.028  0.00  0.00    +0.000 OA
ATOM     21  N   UNL     1       3.007   5.933  20.169  0.00  0.00    +0.000 N 
ATOM     22  H   UNL     1       3.808   5.988  20.800  0.00  0.00    +0.000 HD
BRANCH  19  23
ATOM     23  C   UNL     1       3.604   3.625  19.617  0.00  0.00    +0.000 C 
BRANCH  23  24
ATOM     24  O   UNL     1       4.285   3.598  18.367  0.00  0.00    +0.000 OA
BRANCH  24  29
ATOM     25  C   UNL     1       7.905   7.874  17.441  0.00  0.00    +0.000 C 
ATOM     26  C   UNL     1       6.926   6.763  17.684  0.00  0.00    +0.000 A 
ATOM     27  C   UNL     1       7.072   5.896  18.772  0.00  0.00    +0.000 A 
ATOM     28  C   UNL     1       6.161   4.855  18.970  0.00  0.00    +0.000 A 
ATOM     29  C   UNL     1       5.087   4.673  18.097  0.00  0.00    +0.000 A 
ATOM     30  C   UNL     1       4.939   5.531  17.008  0.00  0.00    +0.000 A 
ATOM     31  C   UNL     1       5.855   6.570  16.804  0.00  0.00    +0.000 A 
ENDBRANCH  24  29
ENDBRANCH  23  24
ENDBRANCH  19  23
ENDBRANCH   1  21
TORSDOF 5
ENDMDL
