MODEL 1
REMARK VINA RESULT:      -8.1      0.000      0.000
REMARK  Name = 
REMARK  5 active torsions:
REMARK  status: ('A' for Active; 'I' for Inactive)
REMARK    1  A    between atoms: C_1  and  O_2
REMARK    2  A    between atoms: O_2  and  C_3
REMARK    3  A    between atoms: C_10  and  C_11
REMARK    4  A    between atoms: C_11  and  C_12
REMARK    5  A    between atoms: C_12  and  N_13
REMARK                            x       y       z     vdW  Elec       q    Type
REMARK                         _______ _______ _______ _____ _____    ______ ____
ROOT
ATOM      1  C   UNL     1       2.251   7.680  18.921  0.00  0.00    +0.000 A 
ATOM      2  C   UNL     1       1.819   7.659  20.241  0.00  0.00    +0.000 A 
ATOM      3  C   UNL     1       1.551   6.438  20.859  0.00  0.00    +0.000 A 
ATOM      4  C   UNL     1       1.725   5.224  20.180  0.00  0.00    +0.000 A 
ATOM      5  C   UNL     1       1.431   4.022  20.836  0.00  0.00    +0.000 A 
ATOM      6  C   UNL     1       1.594   2.801  20.193  0.00  0.00    +0.000 A 
ATOM      7  C   UNL     1       2.073   2.767  18.886  0.00  0.00    +0.000 A 
ATOM      8  C   UNL     1       2.381   3.953  18.191  0.00  0.00    +0.000 A 
ATOM      9  C   UNL     1       2.184   5.215  18.835  0.00  0.00    +0.000 A 
ATOM     10  C   UNL     1       2.405   6.474  18.227  0.00  0.00    +0.000 A 
ENDROOT
BRANCH   1  12
ATOM     11  C   UNL     1       1.512   9.812  18.189  0.00  0.00    +0.000 C 
ATOM     12  O   UNL     1       2.521   8.807  18.194  0.00  0.00    +0.000 OA
ENDBRANCH   1  12
BRANCH   8  13
ATOM     13  C   UNL     1       2.912   3.805  16.769  0.00  0.00    +0.000 C 
BRANCH  13  14
ATOM     14  C   UNL     1       4.424   3.546  16.706  0.00  0.00    +0.000 C 
BRANCH  14  15
ATOM     15  N   UNL     1       5.234   4.579  17.342  0.00  0.00    +0.000 N 
ATOM     16  C   UNL     1       5.818   4.446  18.565  0.00  0.00    +0.000 C 
ATOM     17  O   UNL     1       5.646   3.560  19.381  0.00  0.00    +0.000 OA
ATOM     18  C   UNL     1       6.765   5.564  18.715  0.00  0.00    +0.000 C 
ATOM     19 CL   UNL     1       7.769   5.750  20.066  0.00  0.00    +0.000 Cl
ATOM     20  C   UNL     1       6.722   6.286  17.603  0.00  0.00    +0.000 C 
ATOM     21 CL   UNL     1       7.657   7.631  17.175  0.00  0.00    +0.000 Cl
ATOM     22  C   UNL     1       5.750   5.657  16.693  0.00  0.00    +0.000 C 
ATOM     23  O   UNL     1       5.508   6.025  15.557  0.00  0.00    +0.000 OA
ENDBRANCH  14  15
ENDBRANCH  13  14
ENDBRANCH   8  13
TORSDOF 4
ENDMDL
MODEL 2
REMARK VINA RESULT:      -7.7      3.700      6.452
REMARK  Name = 
REMARK  5 active torsions:
REMARK  status: ('A' for Active; 'I' for Inactive)
REMARK    1  A    between atoms: C_1  and  O_2
REMARK    2  A    between atoms: O_2  and  C_3
REMARK    3  A    between atoms: C_10  and  C_11
REMARK    4  A    between atoms: C_11  and  C_12
REMARK    5  A    between atoms: C_12  and  N_13
REMARK                            x       y       z     vdW  Elec       q    Type
REMARK                         _______ _______ _______ _____ _____    ______ ____
ROOT
ATOM      1  C   UNL     1       6.713   6.240  16.856  0.00  0.00    +0.000 A 
ATOM      2  C   UNL     1       6.734   4.867  16.651  0.00  0.00    +0.000 A 
ATOM      3  C   UNL     1       5.573   4.122  16.858  0.00  0.00    +0.000 A 
ATOM      4  C   UNL     1       4.375   4.734  17.253  0.00  0.00    +0.000 A 
ATOM      5  C   UNL     1       3.237   3.945  17.462  0.00  0.00    +0.000 A 
ATOM      6  C   UNL     1       2.033   4.519  17.852  0.00  0.00    +0.000 A 
ATOM      7  C   UNL     1       1.949   5.899  18.020  0.00  0.00    +0.000 A 
ATOM      8  C   UNL     1       3.070   6.728  17.820  0.00  0.00    +0.000 A 
ATOM      9  C   UNL     1       4.320   6.140  17.450  0.00  0.00    +0.000 A 
ATOM     10  C   UNL     1       5.528   6.857  17.273  0.00  0.00    +0.000 A 
ENDROOT
BRANCH   1  12
ATOM     11  C   UNL     1       7.898   8.127  17.670  0.00  0.00    +0.000 C 
ATOM     12  O   UNL     1       7.786   7.078  16.714  0.00  0.00    +0.000 OA
ENDBRANCH   1  12
BRANCH   8  13
ATOM     13  C   UNL     1       2.867   8.227  18.016  0.00  0.00    +0.000 C 
BRANCH  13  14
ATOM     14  C   UNL     1       1.407   8.615  18.293  0.00  0.00    +0.000 C 
BRANCH  14  15
ATOM     15  N   UNL     1       1.208   9.332  19.547  0.00  0.00    +0.000 N 
ATOM     16  C   UNL     1       0.856  10.645  19.628  0.00  0.00    +0.000 C 
ATOM     17  O   UNL     1       0.811  11.461  18.727  0.00  0.00    +0.000 OA
ATOM     18  C   UNL     1       0.477  10.905  21.027  0.00  0.00    +0.000 C 
ATOM     19 CL   UNL     1      -0.101  12.402  21.565  0.00  0.00    +0.000 Cl
ATOM     20  C   UNL     1       0.597   9.767  21.699  0.00  0.00    +0.000 C 
ATOM     21 CL   UNL     1       0.211   9.446  23.316  0.00  0.00    +0.000 Cl
ATOM     22  C   UNL     1       1.052   8.731  20.758  0.00  0.00    +0.000 C 
ATOM     23  O   UNL     1       1.205   7.553  21.026  0.00  0.00    +0.000 OA
ENDBRANCH  14  15
ENDBRANCH  13  14
ENDBRANCH   8  13
TORSDOF 4
ENDMDL
MODEL 3
REMARK VINA RESULT:      -7.5      3.737      6.496
REMARK  Name = 
REMARK  5 active torsions:
REMARK  status: ('A' for Active; 'I' for Inactive)
REMARK    1  A    between atoms: C_1  and  O_2
REMARK    2  A    between atoms: O_2  and  C_3
REMARK    3  A    between atoms: C_10  and  C_11
REMARK    4  A    between atoms: C_11  and  C_12
REMARK    5  A    between atoms: C_12  and  N_13
REMARK                            x       y       z     vdW  Elec       q    Type
REMARK                         _______ _______ _______ _____ _____    ______ ____
ROOT
ATOM      1  C   UNL     1       6.682   6.165  16.644  0.00  0.00    +0.000 A 
ATOM      2  C   UNL     1       6.775   4.862  16.174  0.00  0.00    +0.000 A 
ATOM      3  C   UNL     1       5.690   3.998  16.320  0.00  0.00    +0.000 A 
ATOM      4  C   UNL     1       4.496   4.424  16.919  0.00  0.00    +0.000 A 
ATOM      5  C   UNL     1       3.436   3.519  17.056  0.00  0.00    +0.000 A 
ATOM      6  C   UNL     1       2.238   3.908  17.643  0.00  0.00    +0.000 A 
ATOM      7  C   UNL     1       2.078   5.219  18.083  0.00  0.00    +0.000 A 
ATOM      8  C   UNL     1       3.119   6.160  17.963  0.00  0.00    +0.000 A 
ATOM      9  C   UNL     1       4.366   5.758  17.391  0.00  0.00    +0.000 A 
ATOM     10  C   UNL     1       5.503   6.593  17.264  0.00  0.00    +0.000 A 
ENDROOT
BRANCH   1  12
ATOM     11  C   UNL     1       7.727   8.040  17.654  0.00  0.00    +0.000 C 
ATOM     12  O   UNL     1       7.680   7.100  16.586  0.00  0.00    +0.000 OA
ENDBRANCH   1  12
BRANCH   8  13
ATOM     13  C   UNL     1       2.837   7.573  18.464  0.00  0.00    +0.000 C 
BRANCH  13  14
ATOM     14  C   UNL     1       1.943   7.612  19.712  0.00  0.00    +0.000 C 
BRANCH  14  15
ATOM     15  N   UNL     1       1.335   8.911  19.970  0.00  0.00    +0.000 N 
ATOM     16  C   UNL     1       0.724   9.671  19.019  0.00  0.00    +0.000 C 
ATOM     17  O   UNL     1       0.721   9.497  17.815  0.00  0.00    +0.000 OA
ATOM     18  C   UNL     1       0.001  10.744  19.722  0.00  0.00    +0.000 C 
ATOM     19 CL   UNL     1      -0.963  11.885  18.925  0.00  0.00    +0.000 Cl
ATOM     20  C   UNL     1       0.188  10.575  21.025  0.00  0.00    +0.000 C 
ATOM     21 CL   UNL     1      -0.477  11.450  22.313  0.00  0.00    +0.000 Cl
ATOM     22  C   UNL     1       1.034   9.385  21.210  0.00  0.00    +0.000 C 
ATOM     23  O   UNL     1       1.351   8.905  22.284  0.00  0.00    +0.000 OA
ENDBRANCH  14  15
ENDBRANCH  13  14
ENDBRANCH   8  13
TORSDOF 4
ENDMDL
MODEL 4
REMARK VINA RESULT:      -7.4      1.272      1.508
REMARK  Name = 
REMARK  5 active torsions:
REMARK  status: ('A' for Active; 'I' for Inactive)
REMARK    1  A    between atoms: C_1  and  O_2
REMARK    2  A    between atoms: O_2  and  C_3
REMARK    3  A    between atoms: C_10  and  C_11
REMARK    4  A    between atoms: C_11  and  C_12
REMARK    5  A    between atoms: C_12  and  N_13
REMARK                            x       y       z     vdW  Elec       q    Type
REMARK                         _______ _______ _______ _____ _____    ______ ____
ROOT
ATOM      1  C   UNL     1       2.354   7.405  18.791  0.00  0.00    +0.000 A 
ATOM      2  C   UNL     1       1.897   7.548  20.095  0.00  0.00    +0.000 A 
ATOM      3  C   UNL     1       1.560   6.414  20.833  0.00  0.00    +0.000 A 
ATOM      4  C   UNL     1       1.687   5.127  20.292  0.00  0.00    +0.000 A 
ATOM      5  C   UNL     1       1.324   4.018  21.066  0.00  0.00    +0.000 A 
ATOM      6  C   UNL     1       1.440   2.728  20.562  0.00  0.00    +0.000 A 
ATOM      7  C   UNL     1       1.941   2.531  19.279  0.00  0.00    +0.000 A 
ATOM      8  C   UNL     1       2.319   3.619  18.468  0.00  0.00    +0.000 A 
ATOM      9  C   UNL     1       2.171   4.951  18.968  0.00  0.00    +0.000 A 
ATOM     10  C   UNL     1       2.463   6.126  18.234  0.00  0.00    +0.000 A 
ENDROOT
BRANCH   1  12
ATOM     11  C   UNL     1       1.804   9.546  17.930  0.00  0.00    +0.000 C 
ATOM     12  O   UNL     1       2.692   8.434  17.954  0.00  0.00    +0.000 OA
ENDBRANCH   1  12
BRANCH   8  13
ATOM     13  C   UNL     1       2.869   3.294  17.083  0.00  0.00    +0.000 C 
BRANCH  13  14
ATOM     14  C   UNL     1       4.369   2.964  17.084  0.00  0.00    +0.000 C 
BRANCH  14  15
ATOM     15  N   UNL     1       5.221   4.057  16.630  0.00  0.00    +0.000 N 
ATOM     16  C   UNL     1       5.786   4.979  17.458  0.00  0.00    +0.000 C 
ATOM     17  O   UNL     1       5.561   5.155  18.641  0.00  0.00    +0.000 OA
ATOM     18  C   UNL     1       6.784   5.717  16.666  0.00  0.00    +0.000 C 
ATOM     19 CL   UNL     1       7.782   6.917  17.322  0.00  0.00    +0.000 Cl
ATOM     20  C   UNL     1       6.788   5.208  15.440  0.00  0.00    +0.000 C 
ATOM     21 CL   UNL     1       7.792   5.597  14.134  0.00  0.00    +0.000 Cl
ATOM     22  C   UNL     1       5.796   4.121  15.399  0.00  0.00    +0.000 C 
ATOM     23  O   UNL     1       5.584   3.396  14.443  0.00  0.00    +0.000 OA
ENDBRANCH  14  15
ENDBRANCH  13  14
ENDBRANCH   8  13
TORSDOF 4
ENDMDL
MODEL 5
REMARK VINA RESULT:      -7.4      0.837      2.127
REMARK  Name = 
REMARK  5 active torsions:
REMARK  status: ('A' for Active; 'I' for Inactive)
REMARK    1  A    between atoms: C_1  and  O_2
REMARK    2  A    between atoms: O_2  and  C_3
REMARK    3  A    between atoms: C_10  and  C_11
REMARK    4  A    between atoms: C_11  and  C_12
REMARK    5  A    between atoms: C_12  and  N_13
REMARK                            x       y       z     vdW  Elec       q    Type
REMARK                         _______ _______ _______ _____ _____    ______ ____
ROOT
ATOM      1  C   UNL     1       2.068   6.791  19.619  0.00  0.00    +0.000 A 
ATOM      2  C   UNL     1       1.519   6.214  20.757  0.00  0.00    +0.000 A 
ATOM      3  C   UNL     1       1.384   4.828  20.829  0.00  0.00    +0.000 A 
ATOM      4  C   UNL     1       1.808   3.999  19.780  0.00  0.00    +0.000 A 
ATOM      5  C   UNL     1       1.641   2.613  19.891  0.00  0.00    +0.000 A 
ATOM      6  C   UNL     1       2.052   1.762  18.871  0.00  0.00    +0.000 A 
ATOM      7  C   UNL     1       2.656   2.290  17.733  0.00  0.00    +0.000 A 
ATOM      8  C   UNL     1       2.842   3.678  17.583  0.00  0.00    +0.000 A 
ATOM      9  C   UNL     1       2.392   4.562  18.613  0.00  0.00    +0.000 A 
ATOM     10  C   UNL     1       2.473   5.974  18.558  0.00  0.00    +0.000 A 
ENDROOT
BRANCH   1  12
ATOM     11  C   UNL     1       1.973   8.607  18.095  0.00  0.00    +0.000 C 
ATOM     12  O   UNL     1       2.231   8.135  19.413  0.00  0.00    +0.000 OA
ENDBRANCH   1  12
BRANCH   8  13
ATOM     13  C   UNL     1       3.526   4.151  16.305  0.00  0.00    +0.000 C 
BRANCH  13  14
ATOM     14  C   UNL     1       4.972   3.653  16.164  0.00  0.00    +0.000 C 
BRANCH  14  15
ATOM     15  N   UNL     1       5.959   4.486  16.840  0.00  0.00    +0.000 N 
ATOM     16  C   UNL     1       6.465   5.640  16.325  0.00  0.00    +0.000 C 
ATOM     17  O   UNL     1       6.325   6.078  15.197  0.00  0.00    +0.000 OA
ATOM     18  C   UNL     1       7.191   6.318  17.412  0.00  0.00    +0.000 C 
ATOM     19 CL   UNL     1       7.922   7.834  17.232  0.00  0.00    +0.000 Cl
ATOM     20  C   UNL     1       7.076   5.573  18.504  0.00  0.00    +0.000 C 
ATOM     21 CL   UNL     1       7.626   5.898  20.072  0.00  0.00    +0.000 Cl
ATOM     22  C   UNL     1       6.268   4.391  18.162  0.00  0.00    +0.000 C 
ATOM     23  O   UNL     1       5.914   3.528  18.946  0.00  0.00    +0.000 OA
ENDBRANCH  14  15
ENDBRANCH  13  14
ENDBRANCH   8  13
TORSDOF 4
ENDMDL
MODEL 6
REMARK VINA RESULT:      -7.3      1.278      2.057
REMARK  Name = 
REMARK  5 active torsions:
REMARK  status: ('A' for Active; 'I' for Inactive)
REMARK    1  A    between atoms: C_1  and  O_2
REMARK    2  A    between atoms: O_2  and  C_3
REMARK    3  A    between atoms: C_10  and  C_11
REMARK    4  A    between atoms: C_11  and  C_12
REMARK    5  A    between atoms: C_12  and  N_13
REMARK                            x       y       z     vdW  Elec       q    Type
REMARK                         _______ _______ _______ _____ _____    ______ ____
ROOT
ATOM      1  C   UNL     1       2.355   7.640  18.619  0.00  0.00    +0.000 A 
ATOM      2  C   UNL     1       1.875   7.815  19.910  0.00  0.00    +0.000 A 
ATOM      3  C   UNL     1       1.573   6.699  20.690  0.00  0.00    +0.000 A 
ATOM      4  C   UNL     1       1.760   5.397  20.202  0.00  0.00    +0.000 A 
ATOM      5  C   UNL     1       1.431   4.306  21.015  0.00  0.00    +0.000 A 
ATOM      6  C   UNL     1       1.605   3.003  20.563  0.00  0.00    +0.000 A 
ATOM      7  C   UNL     1       2.132   2.776  19.295  0.00  0.00    +0.000 A 
ATOM      8  C   UNL     1       2.477   3.847  18.446  0.00  0.00    +0.000 A 
ATOM      9  C   UNL     1       2.269   5.189  18.891  0.00  0.00    +0.000 A 
ATOM     10  C   UNL     1       2.523   6.346  18.115  0.00  0.00    +0.000 A 
ENDROOT
BRANCH   1  12
ATOM     11  C   UNL     1       1.974   9.880  17.935  0.00  0.00    +0.000 C 
ATOM     12  O   UNL     1       2.663   8.648  17.746  0.00  0.00    +0.000 OA
ENDBRANCH   1  12
BRANCH   8  13
ATOM     13  C   UNL     1       3.059   3.490  17.082  0.00  0.00    +0.000 C 
BRANCH  13  14
ATOM     14  C   UNL     1       4.456   2.858  17.161  0.00  0.00    +0.000 C 
BRANCH  14  15
ATOM     15  N   UNL     1       5.540   3.758  16.788  0.00  0.00    +0.000 N 
ATOM     16  C   UNL     1       6.003   3.911  15.516  0.00  0.00    +0.000 C 
ATOM     17  O   UNL     1       5.729   3.241  14.538  0.00  0.00    +0.000 OA
ATOM     18  C   UNL     1       6.878   5.096  15.514  0.00  0.00    +0.000 C 
ATOM     19 CL   UNL     1       7.614   5.699  14.114  0.00  0.00    +0.000 Cl
ATOM     20  C   UNL     1       6.887   5.597  16.742  0.00  0.00    +0.000 C 
ATOM     21 CL   UNL     1       7.642   7.003  17.308  0.00  0.00    +0.000 Cl
ATOM     22  C   UNL     1       6.015   4.758  17.580  0.00  0.00    +0.000 C 
ATOM     23  O   UNL     1       5.746   4.968  18.749  0.00  0.00    +0.000 OA
ENDBRANCH  14  15
ENDBRANCH  13  14
ENDBRANCH   8  13
TORSDOF 4
ENDMDL
MODEL 7
REMARK VINA RESULT:      -7.2      3.603      6.130
REMARK  Name = 
REMARK  5 active torsions:
REMARK  status: ('A' for Active; 'I' for Inactive)
REMARK    1  A    between atoms: C_1  and  O_2
REMARK    2  A    between atoms: O_2  and  C_3
REMARK    3  A    between atoms: C_10  and  C_11
REMARK    4  A    between atoms: C_11  and  C_12
REMARK    5  A    between atoms: C_12  and  N_13
REMARK                            x       y       z     vdW  Elec       q    Type
REMARK                         _______ _______ _______ _____ _____    ______ ____
ROOT
ATOM      1  C   UNL     1       6.562   5.922  16.575  0.00  0.00    +0.000 A 
ATOM      2  C   UNL     1       6.636   4.590  16.190  0.00  0.00    +0.000 A 
ATOM      3  C   UNL     1       5.536   3.755  16.382  0.00  0.00    +0.000 A 
ATOM      4  C   UNL     1       4.345   4.238  16.943  0.00  0.00    +0.000 A 
ATOM      5  C   UNL     1       3.269   3.361  17.129  0.00  0.00    +0.000 A 
ATOM      6  C   UNL     1       2.074   3.805  17.681  0.00  0.00    +0.000 A 
ATOM      7  C   UNL     1       1.933   5.144  18.035  0.00  0.00    +0.000 A 
ATOM      8  C   UNL     1       2.990   6.059  17.864  0.00  0.00    +0.000 A 
ATOM      9  C   UNL     1       4.234   5.601  17.328  0.00  0.00    +0.000 A 
ATOM     10  C   UNL     1       5.385   6.407  17.157  0.00  0.00    +0.000 A 
ENDROOT
BRANCH   1  12
ATOM     11  C   UNL     1       7.698   7.774  17.529  0.00  0.00    +0.000 C 
ATOM     12  O   UNL     1       7.576   6.835  16.466  0.00  0.00    +0.000 OA
ENDBRANCH   1  12
BRANCH   8  13
ATOM     13  C   UNL     1       2.728   7.506  18.271  0.00  0.00    +0.000 C 
BRANCH  13  14
ATOM     14  C   UNL     1       2.122   7.644  19.675  0.00  0.00    +0.000 C 
BRANCH  14  15
ATOM     15  N   UNL     1       1.296   8.833  19.854  0.00  0.00    +0.000 N 
ATOM     16  C   UNL     1       0.783   9.234  21.050  0.00  0.00    +0.000 C 
ATOM     17  O   UNL     1       0.777   8.621  22.101  0.00  0.00    +0.000 OA
ATOM     18  C   UNL     1       0.269  10.601  20.863  0.00  0.00    +0.000 C 
ATOM     19 CL   UNL     1      -0.395  11.519  22.121  0.00  0.00    +0.000 Cl
ATOM     20  C   UNL     1       0.504  10.956  19.607  0.00  0.00    +0.000 C 
ATOM     21 CL   UNL     1       0.215  12.445  18.854  0.00  0.00    +0.000 Cl
ATOM     22  C   UNL     1       1.184   9.834  18.939  0.00  0.00    +0.000 C 
ATOM     23  O   UNL     1       1.602   9.843  17.795  0.00  0.00    +0.000 OA
ENDBRANCH  14  15
ENDBRANCH  13  14
ENDBRANCH   8  13
TORSDOF 4
ENDMDL
MODEL 8
REMARK VINA RESULT:      -7.1      3.592      6.332
REMARK  Name = 
REMARK  5 active torsions:
REMARK  status: ('A' for Active; 'I' for Inactive)
REMARK    1  A    between atoms: C_1  and  O_2
REMARK    2  A    between atoms: O_2  and  C_3
REMARK    3  A    between atoms: C_10  and  C_11
REMARK    4  A    between atoms: C_11  and  C_12
REMARK    5  A    between atoms: C_12  and  N_13
REMARK                            x       y       z     vdW  Elec       q    Type
REMARK                         _______ _______ _______ _____ _____    ______ ____
ROOT
ATOM      1  C   UNL     1       6.472   5.893  16.612  0.00  0.00    +0.000 A 
ATOM      2  C   UNL     1       6.448   4.648  15.997  0.00  0.00    +0.000 A 
ATOM      3  C   UNL     1       5.334   3.824  16.155  0.00  0.00    +0.000 A 
ATOM      4  C   UNL     1       4.226   4.234  16.910  0.00  0.00    +0.000 A 
ATOM      5  C   UNL     1       3.134   3.368  17.052  0.00  0.00    +0.000 A 
ATOM      6  C   UNL     1       2.019   3.743  17.792  0.00  0.00    +0.000 A 
ATOM      7  C   UNL     1       1.974   5.002  18.384  0.00  0.00    +0.000 A 
ATOM      8  C   UNL     1       3.051   5.903  18.265  0.00  0.00    +0.000 A 
ATOM      9  C   UNL     1       4.215   5.511  17.533  0.00  0.00    +0.000 A 
ATOM     10  C   UNL     1       5.381   6.301  17.387  0.00  0.00    +0.000 A 
ENDROOT
BRANCH   1  12
ATOM     11  C   UNL     1       7.674   7.633  17.688  0.00  0.00    +0.000 C 
ATOM     12  O   UNL     1       7.512   6.782  16.558  0.00  0.00    +0.000 OA
ENDBRANCH   1  12
BRANCH   8  13
ATOM     13  C   UNL     1       2.897   7.261  18.941  0.00  0.00    +0.000 C 
BRANCH  13  14
ATOM     14  C   UNL     1       1.806   8.137  18.307  0.00  0.00    +0.000 C 
BRANCH  14  15
ATOM     15  N   UNL     1       1.538   9.374  19.032  0.00  0.00    +0.000 N 
ATOM     16  C   UNL     1       1.689  10.619  18.502  0.00  0.00    +0.000 C 
ATOM     17  O   UNL     1       2.207  10.919  17.442  0.00  0.00    +0.000 OA
ATOM     18  C   UNL     1       1.052  11.565  19.432  0.00  0.00    +0.000 C 
ATOM     19 CL   UNL     1       0.940  13.227  19.128  0.00  0.00    +0.000 Cl
ATOM     20  C   UNL     1       0.546  10.867  20.440  0.00  0.00    +0.000 C 
ATOM     21 CL   UNL     1      -0.374  11.413  21.752  0.00  0.00    +0.000 Cl
ATOM     22  C   UNL     1       0.833   9.444  20.194  0.00  0.00    +0.000 C 
ATOM     23  O   UNL     1       0.458   8.518  20.891  0.00  0.00    +0.000 OA
ENDBRANCH  14  15
ENDBRANCH  13  14
ENDBRANCH   8  13
TORSDOF 4
ENDMDL
MODEL 9
REMARK VINA RESULT:      -7.1      3.602      6.113
REMARK  Name = 
REMARK  5 active torsions:
REMARK  status: ('A' for Active; 'I' for Inactive)
REMARK    1  A    between atoms: C_1  and  O_2
REMARK    2  A    between atoms: O_2  and  C_3
REMARK    3  A    between atoms: C_10  and  C_11
REMARK    4  A    between atoms: C_11  and  C_12
REMARK    5  A    between atoms: C_12  and  N_13
REMARK                            x       y       z     vdW  Elec       q    Type
REMARK                         _______ _______ _______ _____ _____    ______ ____
ROOT
ATOM      1  C   UNL     1       6.567   6.061  16.609  0.00  0.00    +0.000 A 
ATOM      2  C   UNL     1       6.558   4.760  16.124  0.00  0.00    +0.000 A 
ATOM      3  C   UNL     1       5.421   3.970  16.293  0.00  0.00    +0.000 A 
ATOM      4  C   UNL     1       4.275   4.469  16.929  0.00  0.00    +0.000 A 
ATOM      5  C   UNL     1       3.161   3.636  17.088  0.00  0.00    +0.000 A 
ATOM      6  C   UNL     1       2.008   4.098  17.712  0.00  0.00    +0.000 A 
ATOM      7  C   UNL     1       1.950   5.412  18.169  0.00  0.00    +0.000 A 
ATOM      8  C   UNL     1       3.049   6.283  18.028  0.00  0.00    +0.000 A 
ATOM      9  C   UNL     1       4.250   5.804  17.417  0.00  0.00    +0.000 A 
ATOM     10  C   UNL     1       5.436   6.561  17.266  0.00  0.00    +0.000 A 
ENDROOT
BRANCH   1  12
ATOM     11  C   UNL     1       7.787   7.824  17.626  0.00  0.00    +0.000 C 
ATOM     12  O   UNL     1       7.624   6.927  16.532  0.00  0.00    +0.000 OA
ENDBRANCH   1  12
BRANCH   8  13
ATOM     13  C   UNL     1       2.877   7.705  18.549  0.00  0.00    +0.000 C 
BRANCH  13  14
ATOM     14  C   UNL     1       1.735   8.472  17.868  0.00  0.00    +0.000 C 
BRANCH  14  15
ATOM     15  N   UNL     1       1.339   9.693  18.559  0.00  0.00    +0.000 N 
ATOM     16  C   UNL     1       0.638   9.718  19.726  0.00  0.00    +0.000 C 
ATOM     17  O   UNL     1       0.095   8.785  20.289  0.00  0.00    +0.000 OA
ATOM     18  C   UNL     1       0.694  11.098  20.236  0.00  0.00    +0.000 C 
ATOM     19 CL   UNL     1       0.010  11.567  21.712  0.00  0.00    +0.000 Cl
ATOM     20  C   UNL     1       1.420  11.815  19.388  0.00  0.00    +0.000 C 
ATOM     21 CL   UNL     1       1.896  13.435  19.508  0.00  0.00    +0.000 Cl
ATOM     22  C   UNL     1       1.863  10.923  18.304  0.00  0.00    +0.000 C 
ATOM     23  O   UNL     1       2.600  11.240  17.388  0.00  0.00    +0.000 OA
ENDBRANCH  14  15
ENDBRANCH  13  14
ENDBRANCH   8  13
TORSDOF 4
ENDMDL
