MODEL 1
REMARK VINA RESULT:      -7.8      0.000      0.000
REMARK  Name = 
REMARK  12 active torsions:
REMARK  status: ('A' for Active; 'I' for Inactive)
REMARK    1  A    between atoms: C_1  and  C_2
REMARK    2  A    between atoms: C_2  and  O_3
REMARK    3  A    between atoms: O_3  and  C_4
REMARK    4  A    between atoms: C_4  and  C_6
REMARK    5  A    between atoms: C_14  and  C_15
REMARK    6  A    between atoms: C_15  and  O_16
REMARK    7  A    between atoms: O_16  and  C_17
REMARK    8  A    between atoms: C_17  and  C_19
REMARK    9  A    between atoms: C_19  and  N_20
REMARK   10  A    between atoms: C_21  and  C_23
REMARK   11  A    between atoms: C_28  and  O_29
REMARK   12  A    between atoms: O_29  and  C_30
REMARK                            x       y       z     vdW  Elec       q    Type
REMARK                         _______ _______ _______ _____ _____    ______ ____
ROOT
ATOM      1  O   UNL     1       3.554   7.376  18.328  0.00  0.00    +0.000 OA
ENDROOT
BRANCH   1   2
ATOM      2  C   UNL     1       2.408   7.996  18.699  0.00  0.00    +0.000 C 
ATOM      3  O   UNL     1       1.810   7.821  19.754  0.00  0.00    +0.000 OA
BRANCH   2   4
ATOM      4  C   UNL     1       2.006   9.019  17.646  0.00  0.00    +0.000 C 
BRANCH   4   5
ATOM      5  N   UNL     1       0.647   9.491  17.840  0.00  0.00    +0.000 N 
ATOM      6  C   UNL     1       0.407  10.683  18.503  0.00  0.00    +0.000 C 
ATOM      7  O   UNL     1       1.311  11.344  18.996  0.00  0.00    +0.000 OA
ATOM      8  H   UNL     1      -0.115   8.886  17.561  0.00  0.00    +0.000 HD
BRANCH   6   9
ATOM      9  C   UNL     1      -1.022  11.090  18.623  0.00  0.00    +0.000 A 
ATOM     10  C   UNL     1      -1.310  11.977  19.687  0.00  0.00    +0.000 A 
ATOM     11  C   UNL     1      -2.607  12.430  19.929  0.00  0.00    +0.000 A 
ATOM     12  C   UNL     1      -3.637  12.026  19.098  0.00  0.00    +0.000 A 
ATOM     13  C   UNL     1      -3.360  11.180  18.024  0.00  0.00    +0.000 A 
ATOM     14  C   UNL     1      -2.062  10.695  17.764  0.00  0.00    +0.000 A 
BRANCH  14  15
ATOM     15  O   UNL     1      -2.096   9.870  16.676  0.00  0.00    +0.000 OA
ATOM     16  C   UNL     1      -2.702  10.251  15.457  0.00  0.00    +0.000 C 
ENDBRANCH  14  15
ENDBRANCH   6   9
ENDBRANCH   4   5
ENDBRANCH   2   4
ENDBRANCH   1   2
BRANCH   1  17
ATOM     17  C   UNL     1       3.423   6.141  17.618  0.00  0.00    +0.000 C 
BRANCH  17  26
ATOM     18  C   UNL     1       5.007   4.310  18.466  0.00  0.00    +0.000 A 
ATOM     19  O   UNL     1       4.970   3.277  19.364  0.00  0.00    +0.000 OA
ATOM     20  C   UNL     1       3.745   3.288  19.950  0.00  0.00    +0.000 A 
ATOM     21  C   UNL     1       3.304   2.382  20.912  0.00  0.00    +0.000 A 
ATOM     22  C   UNL     1       1.996   2.552  21.377  0.00  0.00    +0.000 A 
ATOM     23  C   UNL     1       1.186   3.578  20.886  0.00  0.00    +0.000 A 
ATOM     24  C   UNL     1       1.658   4.471  19.913  0.00  0.00    +0.000 A 
ATOM     25  C   UNL     1       2.976   4.326  19.442  0.00  0.00    +0.000 A 
ATOM     26  C   UNL     1       3.797   4.992  18.483  0.00  0.00    +0.000 A 
BRANCH  18  27
ATOM     27  C   UNL     1       6.170   4.490  17.627  0.00  0.00    +0.000 C 
ATOM     28  O   UNL     1       6.172   4.466  16.405  0.00  0.00    +0.000 OA
BRANCH  27  29
ATOM     29  O   UNL     1       7.290   4.568  18.398  0.00  0.00    +0.000 OA
BRANCH  29  31
ATOM     30  C   UNL     1       7.850   6.874  18.281  0.00  0.00    +0.000 C 
ATOM     31  C   UNL     1       7.400   5.751  19.198  0.00  0.00    +0.000 C 
ENDBRANCH  29  31
ENDBRANCH  27  29
ENDBRANCH  18  27
ENDBRANCH  17  26
ENDBRANCH   1  17
TORSDOF 10
ENDMDL
MODEL 2
REMARK VINA RESULT:      -7.8      1.557      2.157
REMARK  Name = 
REMARK  12 active torsions:
REMARK  status: ('A' for Active; 'I' for Inactive)
REMARK    1  A    between atoms: C_1  and  C_2
REMARK    2  A    between atoms: C_2  and  O_3
REMARK    3  A    between atoms: O_3  and  C_4
REMARK    4  A    between atoms: C_4  and  C_6
REMARK    5  A    between atoms: C_14  and  C_15
REMARK    6  A    between atoms: C_15  and  O_16
REMARK    7  A    between atoms: O_16  and  C_17
REMARK    8  A    between atoms: C_17  and  C_19
REMARK    9  A    between atoms: C_19  and  N_20
REMARK   10  A    between atoms: C_21  and  C_23
REMARK   11  A    between atoms: C_28  and  O_29
REMARK   12  A    between atoms: O_29  and  C_30
REMARK                            x       y       z     vdW  Elec       q    Type
REMARK                         _______ _______ _______ _____ _____    ______ ____
ROOT
ATOM      1  O   UNL     1       3.670   7.182  17.929  0.00  0.00    +0.000 OA
ENDROOT
BRANCH   1   2
ATOM      2  C   UNL     1       2.660   8.068  18.105  0.00  0.00    +0.000 C 
ATOM      3  O   UNL     1       2.251   8.862  17.265  0.00  0.00    +0.000 OA
BRANCH   2   4
ATOM      4  C   UNL     1       2.036   7.878  19.479  0.00  0.00    +0.000 C 
BRANCH   4   5
ATOM      5  N   UNL     1       1.194   9.001  19.851  0.00  0.00    +0.000 N 
ATOM      6  C   UNL     1       0.464   8.971  21.029  0.00  0.00    +0.000 C 
ATOM      7  O   UNL     1       0.454   7.989  21.759  0.00  0.00    +0.000 OA
ATOM      8  H   UNL     1       1.085   9.758  19.190  0.00  0.00    +0.000 HD
BRANCH   6   9
ATOM      9  C   UNL     1      -0.345  10.185  21.330  0.00  0.00    +0.000 A 
ATOM     10  C   UNL     1      -0.645  10.388  22.698  0.00  0.00    +0.000 A 
ATOM     11  C   UNL     1      -1.408  11.476  23.125  0.00  0.00    +0.000 A 
ATOM     12  C   UNL     1      -1.864  12.394  22.197  0.00  0.00    +0.000 A 
ATOM     13  C   UNL     1      -1.545  12.226  20.850  0.00  0.00    +0.000 A 
ATOM     14  C   UNL     1      -0.789  11.129  20.387  0.00  0.00    +0.000 A 
BRANCH  14  15
ATOM     15  O   UNL     1      -0.660  11.207  19.030  0.00  0.00    +0.000 OA
ATOM     16  C   UNL     1      -0.861  12.413  18.320  0.00  0.00    +0.000 C 
ENDBRANCH  14  15
ENDBRANCH   6   9
ENDBRANCH   4   5
ENDBRANCH   2   4
ENDBRANCH   1   2
BRANCH   1  17
ATOM     17  C   UNL     1       3.317   5.880  17.454  0.00  0.00    +0.000 C 
BRANCH  17  26
ATOM     18  C   UNL     1       4.959   4.223  18.521  0.00  0.00    +0.000 A 
ATOM     19  O   UNL     1       4.941   3.273  19.506  0.00  0.00    +0.000 OA
ATOM     20  C   UNL     1       3.694   3.267  20.045  0.00  0.00    +0.000 A 
ATOM     21  C   UNL     1       3.263   2.426  21.068  0.00  0.00    +0.000 A 
ATOM     22  C   UNL     1       1.930   2.562  21.468  0.00  0.00    +0.000 A 
ATOM     23  C   UNL     1       1.087   3.492  20.858  0.00  0.00    +0.000 A 
ATOM     24  C   UNL     1       1.550   4.321  19.826  0.00  0.00    +0.000 A 
ATOM     25  C   UNL     1       2.892   4.210  19.417  0.00  0.00    +0.000 A 
ATOM     26  C   UNL     1       3.715   4.835  18.433  0.00  0.00    +0.000 A 
BRANCH  18  27
ATOM     27  C   UNL     1       6.145   4.394  17.711  0.00  0.00    +0.000 C 
ATOM     28  O   UNL     1       6.198   4.260  16.497  0.00  0.00    +0.000 OA
BRANCH  27  29
ATOM     29  O   UNL     1       7.226   4.607  18.512  0.00  0.00    +0.000 OA
BRANCH  29  31
ATOM     30  C   UNL     1       7.745   6.894  18.126  0.00  0.00    +0.000 C 
ATOM     31  C   UNL     1       7.266   5.886  19.156  0.00  0.00    +0.000 C 
ENDBRANCH  29  31
ENDBRANCH  27  29
ENDBRANCH  18  27
ENDBRANCH  17  26
ENDBRANCH   1  17
TORSDOF 10
ENDMDL
MODEL 3
REMARK VINA RESULT:      -7.7      1.694      2.447
REMARK  Name = 
REMARK  12 active torsions:
REMARK  status: ('A' for Active; 'I' for Inactive)
REMARK    1  A    between atoms: C_1  and  C_2
REMARK    2  A    between atoms: C_2  and  O_3
REMARK    3  A    between atoms: O_3  and  C_4
REMARK    4  A    between atoms: C_4  and  C_6
REMARK    5  A    between atoms: C_14  and  C_15
REMARK    6  A    between atoms: C_15  and  O_16
REMARK    7  A    between atoms: O_16  and  C_17
REMARK    8  A    between atoms: C_17  and  C_19
REMARK    9  A    between atoms: C_19  and  N_20
REMARK   10  A    between atoms: C_21  and  C_23
REMARK   11  A    between atoms: C_28  and  O_29
REMARK   12  A    between atoms: O_29  and  C_30
REMARK                            x       y       z     vdW  Elec       q    Type
REMARK                         _______ _______ _______ _____ _____    ______ ____
ROOT
ATOM      1  O   UNL     1       2.054   7.742  18.968  0.00  0.00    +0.000 OA
ENDROOT
BRANCH   1   2
ATOM      2  C   UNL     1       2.224   8.736  18.064  0.00  0.00    +0.000 C 
ATOM      3  O   UNL     1       2.745   8.618  16.960  0.00  0.00    +0.000 OA
BRANCH   2   4
ATOM      4  C   UNL     1       1.592  10.021  18.578  0.00  0.00    +0.000 C 
BRANCH   4   5
ATOM      5  N   UNL     1       0.325  10.300  17.928  0.00  0.00    +0.000 N 
ATOM      6  C   UNL     1      -0.855  10.285  18.654  0.00  0.00    +0.000 C 
ATOM      7  O   UNL     1      -0.882   9.982  19.840  0.00  0.00    +0.000 OA
ATOM      8  H   UNL     1       0.316  10.414  16.923  0.00  0.00    +0.000 HD
BRANCH   6   9
ATOM      9  C   UNL     1      -2.096  10.612  17.897  0.00  0.00    +0.000 A 
ATOM     10  C   UNL     1      -2.209   9.997  16.627  0.00  0.00    +0.000 A 
ATOM     11  C   UNL     1      -3.310  10.224  15.801  0.00  0.00    +0.000 A 
ATOM     12  C   UNL     1      -4.331  11.049  16.238  0.00  0.00    +0.000 A 
ATOM     13  C   UNL     1      -4.249  11.632  17.502  0.00  0.00    +0.000 A 
ATOM     14  C   UNL     1      -3.142  11.433  18.352  0.00  0.00    +0.000 A 
BRANCH  14  15
ATOM     15  O   UNL     1      -3.320  12.146  19.503  0.00  0.00    +0.000 OA
ATOM     16  C   UNL     1      -4.580  12.658  19.887  0.00  0.00    +0.000 C 
ENDBRANCH  14  15
ENDBRANCH   6   9
ENDBRANCH   4   5
ENDBRANCH   2   4
ENDBRANCH   1   2
BRANCH   1  17
ATOM     17  C   UNL     1       3.219   7.004  19.349  0.00  0.00    +0.000 C 
BRANCH  17  26
ATOM     18  C   UNL     1       4.081   5.348  17.590  0.00  0.00    +0.000 A 
ATOM     19  O   UNL     1       3.804   4.071  17.181  0.00  0.00    +0.000 OA
ATOM     20  C   UNL     1       2.809   3.596  17.973  0.00  0.00    +0.000 A 
ATOM     21  C   UNL     1       2.229   2.333  17.867  0.00  0.00    +0.000 A 
ATOM     22  C   UNL     1       1.200   2.042  18.767  0.00  0.00    +0.000 A 
ATOM     23  C   UNL     1       0.783   2.981  19.712  0.00  0.00    +0.000 A 
ATOM     24  C   UNL     1       1.384   4.245  19.790  0.00  0.00    +0.000 A 
ATOM     25  C   UNL     1       2.431   4.554  18.903  0.00  0.00    +0.000 A 
ATOM     26  C   UNL     1       3.260   5.689  18.658  0.00  0.00    +0.000 A 
BRANCH  18  27
ATOM     27  C   UNL     1       5.050   6.140  16.865  0.00  0.00    +0.000 C 
ATOM     28  O   UNL     1       5.049   6.329  15.658  0.00  0.00    +0.000 OA
BRANCH  27  29
ATOM     29  O   UNL     1       6.040   6.546  17.708  0.00  0.00    +0.000 OA
BRANCH  29  31
ATOM     30  C   UNL     1       7.774   5.775  19.139  0.00  0.00    +0.000 C 
ATOM     31  C   UNL     1       7.202   5.707  17.735  0.00  0.00    +0.000 C 
ENDBRANCH  29  31
ENDBRANCH  27  29
ENDBRANCH  18  27
ENDBRANCH  17  26
ENDBRANCH   1  17
TORSDOF 10
ENDMDL
MODEL 4
REMARK VINA RESULT:      -7.6      2.698      4.819
REMARK  Name = 
REMARK  12 active torsions:
REMARK  status: ('A' for Active; 'I' for Inactive)
REMARK    1  A    between atoms: C_1  and  C_2
REMARK    2  A    between atoms: C_2  and  O_3
REMARK    3  A    between atoms: O_3  and  C_4
REMARK    4  A    between atoms: C_4  and  C_6
REMARK    5  A    between atoms: C_14  and  C_15
REMARK    6  A    between atoms: C_15  and  O_16
REMARK    7  A    between atoms: O_16  and  C_17
REMARK    8  A    between atoms: C_17  and  C_19
REMARK    9  A    between atoms: C_19  and  N_20
REMARK   10  A    between atoms: C_21  and  C_23
REMARK   11  A    between atoms: C_28  and  O_29
REMARK   12  A    between atoms: O_29  and  C_30
REMARK                            x       y       z     vdW  Elec       q    Type
REMARK                         _______ _______ _______ _____ _____    ______ ____
ROOT
ATOM      1  O   UNL     1       3.617   4.702  16.957  0.00  0.00    +0.000 OA
ENDROOT
BRANCH   1   2
ATOM      2  C   UNL     1       3.539   5.373  18.131  0.00  0.00    +0.000 C 
ATOM      3  O   UNL     1       3.582   4.867  19.247  0.00  0.00    +0.000 OA
BRANCH   2   4
ATOM      4  C   UNL     1       3.474   6.870  17.871  0.00  0.00    +0.000 C 
BRANCH   4   5
ATOM      5  N   UNL     1       2.693   7.562  18.880  0.00  0.00    +0.000 N 
ATOM      6  C   UNL     1       1.916   8.657  18.537  0.00  0.00    +0.000 C 
ATOM      7  O   UNL     1       1.905   9.113  17.402  0.00  0.00    +0.000 OA
ATOM      8  H   UNL     1       2.802   7.282  19.846  0.00  0.00    +0.000 HD
BRANCH   6   9
ATOM      9  C   UNL     1       1.132   9.276  19.643  0.00  0.00    +0.000 A 
ATOM     10  C   UNL     1       0.988   8.479  20.803  0.00  0.00    +0.000 A 
ATOM     11  C   UNL     1       0.266   8.924  21.911  0.00  0.00    +0.000 A 
ATOM     12  C   UNL     1      -0.303  10.185  21.891  0.00  0.00    +0.000 A 
ATOM     13  C   UNL     1      -0.138  10.995  20.768  0.00  0.00    +0.000 A 
ATOM     14  C   UNL     1       0.573  10.566  19.628  0.00  0.00    +0.000 A 
BRANCH  14  15
ATOM     15  O   UNL     1       0.545  11.548  18.680  0.00  0.00    +0.000 OA
ATOM     16  C   UNL     1      -0.412  12.588  18.697  0.00  0.00    +0.000 C 
ENDBRANCH  14  15
ENDBRANCH   6   9
ENDBRANCH   4   5
ENDBRANCH   2   4
ENDBRANCH   1   2
BRANCH   1  17
ATOM     17  C   UNL     1       4.602   3.668  16.864  0.00  0.00    +0.000 C 
BRANCH  17  26
ATOM     18  C   UNL     1       6.889   4.776  16.512  0.00  0.00    +0.000 A 
ATOM     19  O   UNL     1       7.718   5.075  15.464  0.00  0.00    +0.000 OA
ATOM     20  C   UNL     1       7.126   4.617  14.331  0.00  0.00    +0.000 A 
ATOM     21  C   UNL     1       7.644   4.741  13.044  0.00  0.00    +0.000 A 
ATOM     22  C   UNL     1       6.868   4.220  12.005  0.00  0.00    +0.000 A 
ATOM     23  C   UNL     1       5.635   3.616  12.261  0.00  0.00    +0.000 A 
ATOM     24  C   UNL     1       5.138   3.511  13.568  0.00  0.00    +0.000 A 
ATOM     25  C   UNL     1       5.910   4.016  14.630  0.00  0.00    +0.000 A 
ATOM     26  C   UNL     1       5.760   4.114  16.046  0.00  0.00    +0.000 A 
BRANCH  18  27
ATOM     27  C   UNL     1       7.227   5.224  17.845  0.00  0.00    +0.000 C 
ATOM     28  O   UNL     1       6.840   4.709  18.884  0.00  0.00    +0.000 OA
BRANCH  27  29
ATOM     29  O   UNL     1       7.941   6.382  17.777  0.00  0.00    +0.000 OA
BRANCH  29  31
ATOM     30  C   UNL     1       8.070   8.754  17.841  0.00  0.00    +0.000 C 
ATOM     31  C   UNL     1       7.165   7.567  17.563  0.00  0.00    +0.000 C 
ENDBRANCH  29  31
ENDBRANCH  27  29
ENDBRANCH  18  27
ENDBRANCH  17  26
ENDBRANCH   1  17
TORSDOF 10
ENDMDL
MODEL 5
REMARK VINA RESULT:      -7.6      2.066      3.162
REMARK  Name = 
REMARK  12 active torsions:
REMARK  status: ('A' for Active; 'I' for Inactive)
REMARK    1  A    between atoms: C_1  and  C_2
REMARK    2  A    between atoms: C_2  and  O_3
REMARK    3  A    between atoms: O_3  and  C_4
REMARK    4  A    between atoms: C_4  and  C_6
REMARK    5  A    between atoms: C_14  and  C_15
REMARK    6  A    between atoms: C_15  and  O_16
REMARK    7  A    between atoms: O_16  and  C_17
REMARK    8  A    between atoms: C_17  and  C_19
REMARK    9  A    between atoms: C_19  and  N_20
REMARK   10  A    between atoms: C_21  and  C_23
REMARK   11  A    between atoms: C_28  and  O_29
REMARK   12  A    between atoms: O_29  and  C_30
REMARK                            x       y       z     vdW  Elec       q    Type
REMARK                         _______ _______ _______ _____ _____    ______ ____
ROOT
ATOM      1  O   UNL     1       2.843   7.425  17.467  0.00  0.00    +0.000 OA
ENDROOT
BRANCH   1   2
ATOM      2  C   UNL     1       2.277   8.097  18.499  0.00  0.00    +0.000 C 
ATOM      3  O   UNL     1       2.279   7.740  19.671  0.00  0.00    +0.000 OA
BRANCH   2   4
ATOM      4  C   UNL     1       1.705   9.419  18.007  0.00  0.00    +0.000 C 
BRANCH   4   5
ATOM      5  N   UNL     1       1.068  10.165  19.076  0.00  0.00    +0.000 N 
ATOM      6  C   UNL     1      -0.262  10.541  18.974  0.00  0.00    +0.000 C 
ATOM      7  O   UNL     1      -0.923  10.315  17.969  0.00  0.00    +0.000 OA
ATOM      8  H   UNL     1       1.640  10.478  19.850  0.00  0.00    +0.000 HD
BRANCH   6   9
ATOM      9  C   UNL     1      -0.826  11.278  20.139  0.00  0.00    +0.000 A 
ATOM     10  C   UNL     1      -1.976  12.055  19.863  0.00  0.00    +0.000 A 
ATOM     11  C   UNL     1      -2.603  12.811  20.855  0.00  0.00    +0.000 A 
ATOM     12  C   UNL     1      -2.107  12.784  22.146  0.00  0.00    +0.000 A 
ATOM     13  C   UNL     1      -0.996  11.994  22.440  0.00  0.00    +0.000 A 
ATOM     14  C   UNL     1      -0.333  11.233  21.455  0.00  0.00    +0.000 A 
BRANCH  14  15
ATOM     15  O   UNL     1       0.730  10.589  22.019  0.00  0.00    +0.000 OA
ATOM     16  C   UNL     1       0.612   9.312  22.614  0.00  0.00    +0.000 C 
ENDBRANCH  14  15
ENDBRANCH   6   9
ENDBRANCH   4   5
ENDBRANCH   2   4
ENDBRANCH   1   2
BRANCH   1  17
ATOM     17  C   UNL     1       4.173   6.936  17.663  0.00  0.00    +0.000 C 
BRANCH  17  26
ATOM     18  C   UNL     1       5.234   4.717  16.934  0.00  0.00    +0.000 A 
ATOM     19  O   UNL     1       4.905   3.388  16.938  0.00  0.00    +0.000 OA
ATOM     20  C   UNL     1       3.683   3.272  17.520  0.00  0.00    +0.000 A 
ATOM     21  C   UNL     1       2.987   2.079  17.701  0.00  0.00    +0.000 A 
ATOM     22  C   UNL     1       1.729   2.175  18.304  0.00  0.00    +0.000 A 
ATOM     23  C   UNL     1       1.210   3.412  18.692  0.00  0.00    +0.000 A 
ATOM     24  C   UNL     1       1.934   4.596  18.492  0.00  0.00    +0.000 A 
ATOM     25  C   UNL     1       3.208   4.520  17.899  0.00  0.00    +0.000 A 
ATOM     26  C   UNL     1       4.217   5.457  17.524  0.00  0.00    +0.000 A 
BRANCH  18  27
ATOM     27  C   UNL     1       6.456   5.151  16.293  0.00  0.00    +0.000 C 
ATOM     28  O   UNL     1       7.539   5.274  16.844  0.00  0.00    +0.000 OA
BRANCH  27  29
ATOM     29  O   UNL     1       6.197   5.524  15.008  0.00  0.00    +0.000 OA
BRANCH  29  31
ATOM     30  C   UNL     1       6.133   3.764  13.412  0.00  0.00    +0.000 C 
ATOM     31  C   UNL     1       6.988   4.867  14.010  0.00  0.00    +0.000 C 
ENDBRANCH  29  31
ENDBRANCH  27  29
ENDBRANCH  18  27
ENDBRANCH  17  26
ENDBRANCH   1  17
TORSDOF 10
ENDMDL
MODEL 6
REMARK VINA RESULT:      -7.6      2.214      4.277
REMARK  Name = 
REMARK  12 active torsions:
REMARK  status: ('A' for Active; 'I' for Inactive)
REMARK    1  A    between atoms: C_1  and  C_2
REMARK    2  A    between atoms: C_2  and  O_3
REMARK    3  A    between atoms: O_3  and  C_4
REMARK    4  A    between atoms: C_4  and  C_6
REMARK    5  A    between atoms: C_14  and  C_15
REMARK    6  A    between atoms: C_15  and  O_16
REMARK    7  A    between atoms: O_16  and  C_17
REMARK    8  A    between atoms: C_17  and  C_19
REMARK    9  A    between atoms: C_19  and  N_20
REMARK   10  A    between atoms: C_21  and  C_23
REMARK   11  A    between atoms: C_28  and  O_29
REMARK   12  A    between atoms: O_29  and  C_30
REMARK                            x       y       z     vdW  Elec       q    Type
REMARK                         _______ _______ _______ _____ _____    ______ ____
ROOT
ATOM      1  O   UNL     1       1.961   5.696  18.804  0.00  0.00    +0.000 OA
ENDROOT
BRANCH   1   2
ATOM      2  C   UNL     1       2.070   7.029  19.017  0.00  0.00    +0.000 C 
ATOM      3  O   UNL     1       2.274   7.876  18.155  0.00  0.00    +0.000 OA
BRANCH   2   4
ATOM      4  C   UNL     1       1.813   7.344  20.483  0.00  0.00    +0.000 C 
BRANCH   4   5
ATOM      5  N   UNL     1       1.299   8.689  20.667  0.00  0.00    +0.000 N 
ATOM      6  C   UNL     1       0.091   8.897  21.311  0.00  0.00    +0.000 C 
ATOM      7  O   UNL     1      -0.609   7.967  21.691  0.00  0.00    +0.000 OA
ATOM      8  H   UNL     1       1.799   9.457  20.235  0.00  0.00    +0.000 HD
BRANCH   6   9
ATOM      9  C   UNL     1      -0.331  10.317  21.472  0.00  0.00    +0.000 A 
ATOM     10  C   UNL     1      -0.838  10.656  22.749  0.00  0.00    +0.000 A 
ATOM     11  C   UNL     1      -1.286  11.946  23.038  0.00  0.00    +0.000 A 
ATOM     12  C   UNL     1      -1.210  12.927  22.066  0.00  0.00    +0.000 A 
ATOM     13  C   UNL     1      -0.679  12.615  20.815  0.00  0.00    +0.000 A 
ATOM     14  C   UNL     1      -0.234  11.317  20.489  0.00  0.00    +0.000 A 
BRANCH  14  15
ATOM     15  O   UNL     1       0.203  11.299  19.196  0.00  0.00    +0.000 OA
ATOM     16  C   UNL     1       1.484  11.768  18.825  0.00  0.00    +0.000 C 
ENDBRANCH  14  15
ENDBRANCH   6   9
ENDBRANCH   4   5
ENDBRANCH   2   4
ENDBRANCH   1   2
BRANCH   1  17
ATOM     17  C   UNL     1       2.750   5.140  17.748  0.00  0.00    +0.000 C 
BRANCH  17  26
ATOM     18  C   UNL     1       4.553   3.770  18.955  0.00  0.00    +0.000 A 
ATOM     19  O   UNL     1       5.886   3.884  19.244  0.00  0.00    +0.000 OA
ATOM     20  C   UNL     1       6.324   5.048  18.700  0.00  0.00    +0.000 A 
ATOM     21  C   UNL     1       7.624   5.539  18.786  0.00  0.00    +0.000 A 
ATOM     22  C   UNL     1       7.869   6.772  18.174  0.00  0.00    +0.000 A 
ATOM     23  C   UNL     1       6.849   7.465  17.520  0.00  0.00    +0.000 A 
ATOM     24  C   UNL     1       5.547   6.947  17.454  0.00  0.00    +0.000 A 
ATOM     25  C   UNL     1       5.283   5.701  18.052  0.00  0.00    +0.000 A 
ATOM     26  C   UNL     1       4.135   4.868  18.213  0.00  0.00    +0.000 A 
BRANCH  18  27
ATOM     27  C   UNL     1       3.795   2.658  19.486  0.00  0.00    +0.000 C 
ATOM     28  O   UNL     1       3.276   1.773  18.822  0.00  0.00    +0.000 OA
BRANCH  27  29
ATOM     29  O   UNL     1       3.638   2.806  20.831  0.00  0.00    +0.000 OA
BRANCH  29  31
ATOM     30  C   UNL     1       1.397   2.658  21.609  0.00  0.00    +0.000 C 
ATOM     31  C   UNL     1       2.519   3.608  21.231  0.00  0.00    +0.000 C 
ENDBRANCH  29  31
ENDBRANCH  27  29
ENDBRANCH  18  27
ENDBRANCH  17  26
ENDBRANCH   1  17
TORSDOF 10
ENDMDL
MODEL 7
REMARK VINA RESULT:      -7.5      1.968      2.589
REMARK  Name = 
REMARK  12 active torsions:
REMARK  status: ('A' for Active; 'I' for Inactive)
REMARK    1  A    between atoms: C_1  and  C_2
REMARK    2  A    between atoms: C_2  and  O_3
REMARK    3  A    between atoms: O_3  and  C_4
REMARK    4  A    between atoms: C_4  and  C_6
REMARK    5  A    between atoms: C_14  and  C_15
REMARK    6  A    between atoms: C_15  and  O_16
REMARK    7  A    between atoms: O_16  and  C_17
REMARK    8  A    between atoms: C_17  and  C_19
REMARK    9  A    between atoms: C_19  and  N_20
REMARK   10  A    between atoms: C_21  and  C_23
REMARK   11  A    between atoms: C_28  and  O_29
REMARK   12  A    between atoms: O_29  and  C_30
REMARK                            x       y       z     vdW  Elec       q    Type
REMARK                         _______ _______ _______ _____ _____    ______ ____
ROOT
ATOM      1  O   UNL     1       2.567   7.454  17.422  0.00  0.00    +0.000 OA
ENDROOT
BRANCH   1   2
ATOM      2  C   UNL     1       2.239   8.649  17.968  0.00  0.00    +0.000 C 
ATOM      3  O   UNL     1       2.223   9.724  17.379  0.00  0.00    +0.000 OA
BRANCH   2   4
ATOM      4  C   UNL     1       1.806   8.458  19.414  0.00  0.00    +0.000 C 
BRANCH   4   5
ATOM      5  N   UNL     1       0.894   9.501  19.848  0.00  0.00    +0.000 N 
ATOM      6  C   UNL     1       0.306   9.442  21.102  0.00  0.00    +0.000 C 
ATOM      7  O   UNL     1       0.482   8.493  21.855  0.00  0.00    +0.000 OA
ATOM      8  H   UNL     1       0.631  10.216  19.183  0.00  0.00    +0.000 HD
BRANCH   6   9
ATOM      9  C   UNL     1      -0.592  10.575  21.459  0.00  0.00    +0.000 A 
ATOM     10  C   UNL     1      -0.937  10.665  22.828  0.00  0.00    +0.000 A 
ATOM     11  C   UNL     1      -1.783  11.667  23.304  0.00  0.00    +0.000 A 
ATOM     12  C   UNL     1      -2.279  12.614  22.426  0.00  0.00    +0.000 A 
ATOM     13  C   UNL     1      -1.918  12.559  21.081  0.00  0.00    +0.000 A 
ATOM     14  C   UNL     1      -1.077  11.549  20.568  0.00  0.00    +0.000 A 
BRANCH  14  15
ATOM     15  O   UNL     1      -0.922  11.727  19.224  0.00  0.00    +0.000 OA
ATOM     16  C   UNL     1      -1.998  11.607  18.316  0.00  0.00    +0.000 C 
ENDBRANCH  14  15
ENDBRANCH   6   9
ENDBRANCH   4   5
ENDBRANCH   2   4
ENDBRANCH   1   2
BRANCH   1  17
ATOM     17  C   UNL     1       3.949   7.085  17.447  0.00  0.00    +0.000 C 
BRANCH  17  26
ATOM     18  C   UNL     1       5.136   4.938  16.696  0.00  0.00    +0.000 A 
ATOM     19  O   UNL     1       4.918   3.588  16.756  0.00  0.00    +0.000 OA
ATOM     20  C   UNL     1       3.754   3.392  17.426  0.00  0.00    +0.000 A 
ATOM     21  C   UNL     1       3.172   2.152  17.684  0.00  0.00    +0.000 A 
ATOM     22  C   UNL     1       1.956   2.165  18.373  0.00  0.00    +0.000 A 
ATOM     23  C   UNL     1       1.365   3.366  18.768  0.00  0.00    +0.000 A 
ATOM     24  C   UNL     1       1.973   4.599  18.488  0.00  0.00    +0.000 A 
ATOM     25  C   UNL     1       3.205   4.608  17.808  0.00  0.00    +0.000 A 
ATOM     26  C   UNL     1       4.105   5.611  17.340  0.00  0.00    +0.000 A 
BRANCH  18  27
ATOM     27  C   UNL     1       6.270   5.450  15.960  0.00  0.00    +0.000 C 
ATOM     28  O   UNL     1       6.399   5.419  14.745  0.00  0.00    +0.000 OA
BRANCH  27  29
ATOM     29  O   UNL     1       7.236   5.865  16.827  0.00  0.00    +0.000 OA
BRANCH  29  31
ATOM     30  C   UNL     1       7.754   5.718  19.141  0.00  0.00    +0.000 C 
ATOM     31  C   UNL     1       7.574   4.929  17.857  0.00  0.00    +0.000 C 
ENDBRANCH  29  31
ENDBRANCH  27  29
ENDBRANCH  18  27
ENDBRANCH  17  26
ENDBRANCH   1  17
TORSDOF 10
ENDMDL
MODEL 8
REMARK VINA RESULT:      -7.5      1.179      2.174
REMARK  Name = 
REMARK  12 active torsions:
REMARK  status: ('A' for Active; 'I' for Inactive)
REMARK    1  A    between atoms: C_1  and  C_2
REMARK    2  A    between atoms: C_2  and  O_3
REMARK    3  A    between atoms: O_3  and  C_4
REMARK    4  A    between atoms: C_4  and  C_6
REMARK    5  A    between atoms: C_14  and  C_15
REMARK    6  A    between atoms: C_15  and  O_16
REMARK    7  A    between atoms: O_16  and  C_17
REMARK    8  A    between atoms: C_17  and  C_19
REMARK    9  A    between atoms: C_19  and  N_20
REMARK   10  A    between atoms: C_21  and  C_23
REMARK   11  A    between atoms: C_28  and  O_29
REMARK   12  A    between atoms: O_29  and  C_30
REMARK                            x       y       z     vdW  Elec       q    Type
REMARK                         _______ _______ _______ _____ _____    ______ ____
ROOT
ATOM      1  O   UNL     1       2.513   7.050  18.066  0.00  0.00    +0.000 OA
ENDROOT
BRANCH   1   2
ATOM      2  C   UNL     1       2.105   8.109  18.806  0.00  0.00    +0.000 C 
ATOM      3  O   UNL     1       1.969   8.120  20.025  0.00  0.00    +0.000 OA
BRANCH   2   4
ATOM      4  C   UNL     1       1.920   9.327  17.913  0.00  0.00    +0.000 C 
BRANCH   4   5
ATOM      5  N   UNL     1       0.518   9.594  17.646  0.00  0.00    +0.000 N 
ATOM      6  C   UNL     1      -0.175  10.524  18.404  0.00  0.00    +0.000 C 
ATOM      7  O   UNL     1       0.341  11.102  19.352  0.00  0.00    +0.000 OA
ATOM      8  H   UNL     1       0.043   9.024  16.959  0.00  0.00    +0.000 HD
BRANCH   6   9
ATOM      9  C   UNL     1      -1.600  10.743  18.030  0.00  0.00    +0.000 A 
ATOM     10  C   UNL     1      -2.060   9.984  16.928  0.00  0.00    +0.000 A 
ATOM     11  C   UNL     1      -3.368  10.098  16.456  0.00  0.00    +0.000 A 
ATOM     12  C   UNL     1      -4.249  10.953  17.093  0.00  0.00    +0.000 A 
ATOM     13  C   UNL     1      -3.820  11.681  18.202  0.00  0.00    +0.000 A 
ATOM     14  C   UNL     1      -2.500  11.597  18.691  0.00  0.00    +0.000 A 
BRANCH  14  15
ATOM     15  O   UNL     1      -2.358  12.437  19.759  0.00  0.00    +0.000 OA
ATOM     16  C   UNL     1      -3.445  12.793  20.590  0.00  0.00    +0.000 C 
ENDBRANCH  14  15
ENDBRANCH   6   9
ENDBRANCH   4   5
ENDBRANCH   2   4
ENDBRANCH   1   2
BRANCH   1  17
ATOM     17  C   UNL     1       3.902   6.713  18.125  0.00  0.00    +0.000 C 
BRANCH  17  26
ATOM     18  C   UNL     1       5.257   4.629  18.761  0.00  0.00    +0.000 A 
ATOM     19  O   UNL     1       5.050   3.455  19.433  0.00  0.00    +0.000 OA
ATOM     20  C   UNL     1       3.769   3.461  19.883  0.00  0.00    +0.000 A 
ATOM     21  C   UNL     1       3.163   2.434  20.602  0.00  0.00    +0.000 A 
ATOM     22  C   UNL     1       1.824   2.625  20.955  0.00  0.00    +0.000 A 
ATOM     23  C   UNL     1       1.143   3.788  20.592  0.00  0.00    +0.000 A 
ATOM     24  C   UNL     1       1.780   4.803  19.863  0.00  0.00    +0.000 A 
ATOM     25  C   UNL     1       3.132   4.636  19.509  0.00  0.00    +0.000 A 
ATOM     26  C   UNL     1       4.099   5.397  18.786  0.00  0.00    +0.000 A 
BRANCH  18  27
ATOM     27  C   UNL     1       6.519   4.863  18.094  0.00  0.00    +0.000 C 
ATOM     28  O   UNL     1       7.621   4.771  18.613  0.00  0.00    +0.000 OA
BRANCH  27  29
ATOM     29  O   UNL     1       6.297   5.321  16.831  0.00  0.00    +0.000 OA
BRANCH  29  31
ATOM     30  C   UNL     1       6.008   3.872  14.970  0.00  0.00    +0.000 C 
ATOM     31  C   UNL     1       7.021   4.642  15.798  0.00  0.00    +0.000 C 
ENDBRANCH  29  31
ENDBRANCH  27  29
ENDBRANCH  18  27
ENDBRANCH  17  26
ENDBRANCH   1  17
TORSDOF 10
ENDMDL
MODEL 9
REMARK VINA RESULT:      -7.4      1.650      2.375
REMARK  Name = 
REMARK  12 active torsions:
REMARK  status: ('A' for Active; 'I' for Inactive)
REMARK    1  A    between atoms: C_1  and  C_2
REMARK    2  A    between atoms: C_2  and  O_3
REMARK    3  A    between atoms: O_3  and  C_4
REMARK    4  A    between atoms: C_4  and  C_6
REMARK    5  A    between atoms: C_14  and  C_15
REMARK    6  A    between atoms: C_15  and  O_16
REMARK    7  A    between atoms: O_16  and  C_17
REMARK    8  A    between atoms: C_17  and  C_19
REMARK    9  A    between atoms: C_19  and  N_20
REMARK   10  A    between atoms: C_21  and  C_23
REMARK   11  A    between atoms: C_28  and  O_29
REMARK   12  A    between atoms: O_29  and  C_30
REMARK                            x       y       z     vdW  Elec       q    Type
REMARK                         _______ _______ _______ _____ _____    ______ ____
ROOT
ATOM      1  O   UNL     1       2.196   7.303  19.275  0.00  0.00    +0.000 OA
ENDROOT
BRANCH   1   2
ATOM      2  C   UNL     1       1.711   8.525  19.602  0.00  0.00    +0.000 C 
ATOM      3  O   UNL     1       1.459   8.914  20.737  0.00  0.00    +0.000 OA
BRANCH   2   4
ATOM      4  C   UNL     1       1.601   9.392  18.357  0.00  0.00    +0.000 C 
BRANCH   4   5
ATOM      5  N   UNL     1       0.219   9.637  17.988  0.00  0.00    +0.000 N 
ATOM      6  C   UNL     1      -0.424  10.792  18.405  0.00  0.00    +0.000 C 
ATOM      7  O   UNL     1       0.119  11.606  19.139  0.00  0.00    +0.000 OA
ATOM      8  H   UNL     1      -0.284   8.908  17.500  0.00  0.00    +0.000 HD
BRANCH   6   9
ATOM      9  C   UNL     1      -1.832  10.959  17.948  0.00  0.00    +0.000 A 
ATOM     10  C   UNL     1      -2.114  10.451  16.657  0.00  0.00    +0.000 A 
ATOM     11  C   UNL     1      -3.387  10.552  16.094  0.00  0.00    +0.000 A 
ATOM     12  C   UNL     1      -4.408  11.139  16.820  0.00  0.00    +0.000 A 
ATOM     13  C   UNL     1      -4.153  11.611  18.107  0.00  0.00    +0.000 A 
ATOM     14  C   UNL     1      -2.874  11.536  18.696  0.00  0.00    +0.000 A 
BRANCH  14  15
ATOM     15  O   UNL     1      -2.913  12.099  19.939  0.00  0.00    +0.000 OA
ATOM     16  C   UNL     1      -2.590  13.456  20.165  0.00  0.00    +0.000 C 
ENDBRANCH  14  15
ENDBRANCH   6   9
ENDBRANCH   4   5
ENDBRANCH   2   4
ENDBRANCH   1   2
BRANCH   1  17
ATOM     17  C   UNL     1       3.123   7.243  18.187  0.00  0.00    +0.000 C 
BRANCH  17  26
ATOM     18  C   UNL     1       4.421   5.397  16.966  0.00  0.00    +0.000 A 
ATOM     19  O   UNL     1       4.354   4.037  16.825  0.00  0.00    +0.000 OA
ATOM     20  C   UNL     1       3.311   3.600  17.575  0.00  0.00    +0.000 A 
ATOM     21  C   UNL     1       2.899   2.274  17.686  0.00  0.00    +0.000 A 
ATOM     22  C   UNL     1       1.784   2.032  18.495  0.00  0.00    +0.000 A 
ATOM     23  C   UNL     1       1.127   3.077  19.146  0.00  0.00    +0.000 A 
ATOM     24  C   UNL     1       1.563   4.403  19.010  0.00  0.00    +0.000 A 
ATOM     25  C   UNL     1       2.691   4.667  18.211  0.00  0.00    +0.000 A 
ATOM     26  C   UNL     1       3.415   5.833  17.821  0.00  0.00    +0.000 A 
BRANCH  18  27
ATOM     27  C   UNL     1       5.394   6.151  16.206  0.00  0.00    +0.000 C 
ATOM     28  O   UNL     1       5.144   6.860  15.242  0.00  0.00    +0.000 OA
BRANCH  27  29
ATOM     29  O   UNL     1       6.650   5.860  16.645  0.00  0.00    +0.000 OA
BRANCH  29  31
ATOM     30  C   UNL     1       7.736   6.295  18.713  0.00  0.00    +0.000 C 
ATOM     31  C   UNL     1       7.292   6.899  17.394  0.00  0.00    +0.000 C 
ENDBRANCH  29  31
ENDBRANCH  27  29
ENDBRANCH  18  27
ENDBRANCH  17  26
ENDBRANCH   1  17
TORSDOF 10
ENDMDL
