MODEL 1
REMARK VINA RESULT:      -8.9      0.000      0.000
REMARK  Name = 
REMARK  8 active torsions:
REMARK  status: ('A' for Active; 'I' for Inactive)
REMARK    1  A    between atoms: C_1  and  C_2
REMARK    2  A    between atoms: C_2  and  C_3
REMARK    3  A    between atoms: C_2  and  C_4
REMARK    4  A    between atoms: C_7  and  N_8
REMARK    5  A    between atoms: C_9  and  C_11
REMARK    6  A    between atoms: C_11  and  N_12
REMARK    7  A    between atoms: C_13  and  C_15
REMARK    8  A    between atoms: C_15  and  N_16
REMARK                            x       y       z     vdW  Elec       q    Type
REMARK                         _______ _______ _______ _____ _____    ______ ____
ROOT
ATOM      1  N   UNL     1       7.033   6.554  17.454  0.00  0.00    +0.000 N 
ATOM      2  C   UNL     1       6.889   5.206  17.263  0.00  0.00    +0.000 C 
ATOM      3  O   UNL     1       7.537   4.409  17.953  0.00  0.00    +0.000 OA
ATOM      4  H   UNL     1       6.317   7.178  17.093  0.00  0.00    +0.000 HD
ENDROOT
BRANCH   1   5
ATOM      5  C   UNL     1       8.049   7.089  18.358  0.00  0.00    +0.000 C 
BRANCH   5   7
ATOM      6  N   UNL     1       9.149   9.106  19.230  0.00  0.00    +0.000 N 
ATOM      7  C   UNL     1       8.214   8.617  18.324  0.00  0.00    +0.000 C 
ATOM      8  O   UNL     1       7.575   9.278  17.514  0.00  0.00    +0.000 OA
ATOM      9  H   UNL     1       9.602   8.414  19.822  0.00  0.00    +0.000 HD
BRANCH   6  13
ATOM     10  C   UNL     1      10.059  13.216  19.951  0.00  0.00    +0.000 A 
ATOM     11  C   UNL     1      10.269  12.653  18.681  0.00  0.00    +0.000 A 
ATOM     12  C   UNL     1       9.996  11.294  18.428  0.00  0.00    +0.000 A 
ATOM     13  C   UNL     1       9.506  10.465  19.432  0.00  0.00    +0.000 A 
ATOM     14  C   UNL     1       9.331  11.012  20.712  0.00  0.00    +0.000 A 
ATOM     15  C   UNL     1       9.606  12.369  20.963  0.00  0.00    +0.000 A 
BRANCH  10  17
ATOM     16  C   UNL     1      11.619  15.123  19.583  0.00  0.00    +0.000 C 
ATOM     17  C   UNL     1      10.250  14.711  20.129  0.00  0.00    +0.000 C 
ATOM     18  C   UNL     1       9.148  15.576  19.507  0.00  0.00    +0.000 C 
ENDBRANCH  10  17
ENDBRANCH   6  13
ENDBRANCH   5   7
ENDBRANCH   1   5
BRANCH   2  19
ATOM     19  C   UNL     1       5.760   4.704  16.336  0.00  0.00    +0.000 C 
BRANCH  19  20
ATOM     20  N   UNL     1       4.400   4.475  16.861  0.00  0.00    +0.000 N 
ATOM     21  C   UNL     1       4.057   3.162  17.212  0.00  0.00    +0.000 A 
ATOM     22  C   UNL     1       2.740   2.919  17.368  0.00  0.00    +0.000 A 
ATOM     23  C   UNL     1       2.186   3.767  18.438  0.00  0.00    +0.000 A 
ATOM     24  C   UNL     1       1.212   3.286  19.317  0.00  0.00    +0.000 A 
ATOM     25  C   UNL     1       0.872   4.045  20.436  0.00  0.00    +0.000 A 
ATOM     26  C   UNL     1       1.497   5.277  20.663  0.00  0.00    +0.000 A 
ATOM     27  C   UNL     1       2.404   5.802  19.728  0.00  0.00    +0.000 A 
ATOM     28  C   UNL     1       2.730   5.057  18.593  0.00  0.00    +0.000 A 
ATOM     29  C   UNL     1       3.740   5.517  17.558  0.00  0.00    +0.000 A 
ATOM     30  O   UNL     1       3.985   6.708  17.387  0.00  0.00    +0.000 OA
ENDBRANCH  19  20
ENDBRANCH   2  19
TORSDOF 6
ENDMDL
MODEL 2
REMARK VINA RESULT:      -8.5      1.351      2.034
REMARK  Name = 
REMARK  8 active torsions:
REMARK  status: ('A' for Active; 'I' for Inactive)
REMARK    1  A    between atoms: C_1  and  C_2
REMARK    2  A    between atoms: C_2  and  C_3
REMARK    3  A    between atoms: C_2  and  C_4
REMARK    4  A    between atoms: C_7  and  N_8
REMARK    5  A    between atoms: C_9  and  C_11
REMARK    6  A    between atoms: C_11  and  N_12
REMARK    7  A    between atoms: C_13  and  C_15
REMARK    8  A    between atoms: C_15  and  N_16
REMARK                            x       y       z     vdW  Elec       q    Type
REMARK                         _______ _______ _______ _____ _____    ______ ____
ROOT
ATOM      1  N   UNL     1       6.972   6.817  18.158  0.00  0.00    +0.000 N 
ATOM      2  C   UNL     1       6.600   6.239  16.975  0.00  0.00    +0.000 C 
ATOM      3  O   UNL     1       7.436   6.068  16.078  0.00  0.00    +0.000 OA
ATOM      4  H   UNL     1       6.370   6.704  18.968  0.00  0.00    +0.000 HD
ENDROOT
BRANCH   1   5
ATOM      5  C   UNL     1       8.309   7.378  18.342  0.00  0.00    +0.000 C 
BRANCH   5   7
ATOM      6  N   UNL     1       9.281   9.409  19.327  0.00  0.00    +0.000 N 
ATOM      7  C   UNL     1       8.371   8.913  18.401  0.00  0.00    +0.000 C 
ATOM      8  O   UNL     1       7.680   9.578  17.637  0.00  0.00    +0.000 OA
ATOM      9  H   UNL     1       9.787   8.715  19.872  0.00  0.00    +0.000 HD
BRANCH   6  13
ATOM     10  C   UNL     1      10.239  13.508  20.049  0.00  0.00    +0.000 A 
ATOM     11  C   UNL     1       9.831  12.676  21.105  0.00  0.00    +0.000 A 
ATOM     12  C   UNL     1       9.490  11.327  20.885  0.00  0.00    +0.000 A 
ATOM     13  C   UNL     1       9.548  10.774  19.609  0.00  0.00    +0.000 A 
ATOM     14  C   UNL     1       9.917  11.611  18.544  0.00  0.00    +0.000 A 
ATOM     15  C   UNL     1      10.256  12.959  18.767  0.00  0.00    +0.000 A 
BRANCH  10  17
ATOM     16  C   UNL     1      10.189  15.887  19.311  0.00  0.00    +0.000 C 
ATOM     17  C   UNL     1      10.715  14.914  20.368  0.00  0.00    +0.000 C 
ATOM     18  C   UNL     1      10.354  15.409  21.773  0.00  0.00    +0.000 C 
ENDBRANCH  10  17
ENDBRANCH   6  13
ENDBRANCH   5   7
ENDBRANCH   1   5
BRANCH   2  19
ATOM     19  C   UNL     1       5.192   5.616  16.863  0.00  0.00    +0.000 C 
BRANCH  19  20
ATOM     20  N   UNL     1       4.326   5.491  18.052  0.00  0.00    +0.000 N 
ATOM     21  C   UNL     1       2.974   5.833  17.904  0.00  0.00    +0.000 A 
ATOM     22  C   UNL     1       2.289   6.031  19.048  0.00  0.00    +0.000 A 
ATOM     23  C   UNL     1       2.295   4.805  19.867  0.00  0.00    +0.000 A 
ATOM     24  C   UNL     1       1.174   4.418  20.606  0.00  0.00    +0.000 A 
ATOM     25  C   UNL     1       1.151   3.154  21.193  0.00  0.00    +0.000 A 
ATOM     26  C   UNL     1       2.246   2.294  21.047  0.00  0.00    +0.000 A 
ATOM     27  C   UNL     1       3.410   2.722  20.388  0.00  0.00    +0.000 A 
ATOM     28  C   UNL     1       3.448   3.997  19.818  0.00  0.00    +0.000 A 
ATOM     29  C   UNL     1       4.637   4.524  19.040  0.00  0.00    +0.000 A 
ATOM     30  O   UNL     1       5.772   4.097  19.235  0.00  0.00    +0.000 OA
ENDBRANCH  19  20
ENDBRANCH   2  19
TORSDOF 6
ENDMDL
MODEL 3
REMARK VINA RESULT:      -8.3      1.294      1.809
REMARK  Name = 
REMARK  8 active torsions:
REMARK  status: ('A' for Active; 'I' for Inactive)
REMARK    1  A    between atoms: C_1  and  C_2
REMARK    2  A    between atoms: C_2  and  C_3
REMARK    3  A    between atoms: C_2  and  C_4
REMARK    4  A    between atoms: C_7  and  N_8
REMARK    5  A    between atoms: C_9  and  C_11
REMARK    6  A    between atoms: C_11  and  N_12
REMARK    7  A    between atoms: C_13  and  C_15
REMARK    8  A    between atoms: C_15  and  N_16
REMARK                            x       y       z     vdW  Elec       q    Type
REMARK                         _______ _______ _______ _____ _____    ______ ____
ROOT
ATOM      1  N   UNL     1       7.023   6.354  18.223  0.00  0.00    +0.000 N 
ATOM      2  C   UNL     1       6.618   5.909  16.994  0.00  0.00    +0.000 C 
ATOM      3  O   UNL     1       7.401   5.938  16.035  0.00  0.00    +0.000 OA
ATOM      4  H   UNL     1       6.491   6.077  19.043  0.00  0.00    +0.000 HD
ENDROOT
BRANCH   1   5
ATOM      5  C   UNL     1       8.319   7.004  18.407  0.00  0.00    +0.000 C 
BRANCH   5   7
ATOM      6  N   UNL     1       9.169   9.167  19.206  0.00  0.00    +0.000 N 
ATOM      7  C   UNL     1       8.298   8.539  18.324  0.00  0.00    +0.000 C 
ATOM      8  O   UNL     1       7.581   9.091  17.497  0.00  0.00    +0.000 OA
ATOM      9  H   UNL     1       9.705   8.554  19.817  0.00  0.00    +0.000 HD
BRANCH   6  13
ATOM     10  C   UNL     1       9.599  13.371  19.819  0.00  0.00    +0.000 A 
ATOM     11  C   UNL     1       9.653  12.832  18.523  0.00  0.00    +0.000 A 
ATOM     12  C   UNL     1       9.535  11.446  18.300  0.00  0.00    +0.000 A 
ATOM     13  C   UNL     1       9.359  10.565  19.363  0.00  0.00    +0.000 A 
ATOM     14  C   UNL     1       9.343  11.093  20.663  0.00  0.00    +0.000 A 
ATOM     15  C   UNL     1       9.462  12.479  20.882  0.00  0.00    +0.000 A 
BRANCH  10  17
ATOM     16  C   UNL     1       9.310  15.239  21.442  0.00  0.00    +0.000 C 
ATOM     17  C   UNL     1       9.603  14.881  19.983  0.00  0.00    +0.000 C 
ATOM     18  C   UNL     1      10.887  15.573  19.513  0.00  0.00    +0.000 C 
ENDBRANCH  10  17
ENDBRANCH   6  13
ENDBRANCH   5   7
ENDBRANCH   1   5
BRANCH   2  19
ATOM     19  C   UNL     1       5.261   5.182  16.877  0.00  0.00    +0.000 C 
BRANCH  19  20
ATOM     20  N   UNL     1       4.324   5.147  18.018  0.00  0.00    +0.000 N 
ATOM     21  C   UNL     1       2.976   5.425  17.753  0.00  0.00    +0.000 A 
ATOM     22  C   UNL     1       2.212   5.713  18.826  0.00  0.00    +0.000 A 
ATOM     23  C   UNL     1       2.200   4.577  19.764  0.00  0.00    +0.000 A 
ATOM     24  C   UNL     1       1.045   4.227  20.468  0.00  0.00    +0.000 A 
ATOM     25  C   UNL     1       1.019   3.028  21.179  0.00  0.00    +0.000 A 
ATOM     26  C   UNL     1       2.145   2.196  21.189  0.00  0.00    +0.000 A 
ATOM     27  C   UNL     1       3.337   2.596  20.563  0.00  0.00    +0.000 A 
ATOM     28  C   UNL     1       3.376   3.807  19.869  0.00  0.00    +0.000 A 
ATOM     29  C   UNL     1       4.598   4.295  19.116  0.00  0.00    +0.000 A 
ATOM     30  O   UNL     1       5.729   3.929  19.423  0.00  0.00    +0.000 OA
ENDBRANCH  19  20
ENDBRANCH   2  19
TORSDOF 6
ENDMDL
MODEL 4
REMARK VINA RESULT:      -8.3      1.046      1.577
REMARK  Name = 
REMARK  8 active torsions:
REMARK  status: ('A' for Active; 'I' for Inactive)
REMARK    1  A    between atoms: C_1  and  C_2
REMARK    2  A    between atoms: C_2  and  C_3
REMARK    3  A    between atoms: C_2  and  C_4
REMARK    4  A    between atoms: C_7  and  N_8
REMARK    5  A    between atoms: C_9  and  C_11
REMARK    6  A    between atoms: C_11  and  N_12
REMARK    7  A    between atoms: C_13  and  C_15
REMARK    8  A    between atoms: C_15  and  N_16
REMARK                            x       y       z     vdW  Elec       q    Type
REMARK                         _______ _______ _______ _____ _____    ______ ____
ROOT
ATOM      1  N   UNL     1       6.686   5.142  17.858  0.00  0.00    +0.000 N 
ATOM      2  C   UNL     1       6.753   4.633  16.589  0.00  0.00    +0.000 C 
ATOM      3  O   UNL     1       7.816   4.682  15.956  0.00  0.00    +0.000 OA
ATOM      4  H   UNL     1       5.918   4.858  18.458  0.00  0.00    +0.000 HD
ENDROOT
BRANCH   1   5
ATOM      5  C   UNL     1       7.805   5.881  18.440  0.00  0.00    +0.000 C 
BRANCH   5   7
ATOM      6  N   UNL     1       8.675   8.120  18.954  0.00  0.00    +0.000 N 
ATOM      7  C   UNL     1       7.820   7.388  18.139  0.00  0.00    +0.000 C 
ATOM      8  O   UNL     1       7.143   7.829  17.218  0.00  0.00    +0.000 OA
ATOM      9  H   UNL     1       9.177   7.593  19.664  0.00  0.00    +0.000 HD
BRANCH   6  13
ATOM     10  C   UNL     1       9.375  12.323  18.653  0.00  0.00    +0.000 A 
ATOM     11  C   UNL     1       9.750  11.620  19.811  0.00  0.00    +0.000 A 
ATOM     12  C   UNL     1       9.508  10.238  19.940  0.00  0.00    +0.000 A 
ATOM     13  C   UNL     1       8.890   9.523  18.918  0.00  0.00    +0.000 A 
ATOM     14  C   UNL     1       8.480  10.226  17.775  0.00  0.00    +0.000 A 
ATOM     15  C   UNL     1       8.721  11.608  17.651  0.00  0.00    +0.000 A 
BRANCH  10  17
ATOM     16  C   UNL     1       8.540  14.628  18.216  0.00  0.00    +0.000 C 
ATOM     17  C   UNL     1       9.777  13.781  18.522  0.00  0.00    +0.000 C 
ATOM     18  C   UNL     1      10.526  14.351  19.731  0.00  0.00    +0.000 C 
ENDBRANCH  10  17
ENDBRANCH   6  13
ENDBRANCH   5   7
ENDBRANCH   1   5
BRANCH   2  19
ATOM     19  C   UNL     1       5.558   3.816  16.053  0.00  0.00    +0.000 C 
BRANCH  19  20
ATOM     20  N   UNL     1       4.248   3.862  16.732  0.00  0.00    +0.000 N 
ATOM     21  C   UNL     1       3.801   2.686  17.352  0.00  0.00    +0.000 A 
ATOM     22  C   UNL     1       2.492   2.649  17.668  0.00  0.00    +0.000 A 
ATOM     23  C   UNL     1       2.160   3.736  18.607  0.00  0.00    +0.000 A 
ATOM     24  C   UNL     1       1.243   3.548  19.644  0.00  0.00    +0.000 A 
ATOM     25  C   UNL     1       1.119   4.528  20.627  0.00  0.00    +0.000 A 
ATOM     26  C   UNL     1       1.901   5.688  20.563  0.00  0.00    +0.000 A 
ATOM     27  C   UNL     1       2.749   5.919  19.469  0.00  0.00    +0.000 A 
ATOM     28  C   UNL     1       2.860   4.951  18.468  0.00  0.00    +0.000 A 
ATOM     29  C   UNL     1       3.792   5.087  17.279  0.00  0.00    +0.000 A 
ATOM     30  O   UNL     1       4.148   6.187  16.867  0.00  0.00    +0.000 OA
ENDBRANCH  19  20
ENDBRANCH   2  19
TORSDOF 6
ENDMDL
MODEL 5
REMARK VINA RESULT:      -8.2      0.985      1.014
REMARK  Name = 
REMARK  8 active torsions:
REMARK  status: ('A' for Active; 'I' for Inactive)
REMARK    1  A    between atoms: C_1  and  C_2
REMARK    2  A    between atoms: C_2  and  C_3
REMARK    3  A    between atoms: C_2  and  C_4
REMARK    4  A    between atoms: C_7  and  N_8
REMARK    5  A    between atoms: C_9  and  C_11
REMARK    6  A    between atoms: C_11  and  N_12
REMARK    7  A    between atoms: C_13  and  C_15
REMARK    8  A    between atoms: C_15  and  N_16
REMARK                            x       y       z     vdW  Elec       q    Type
REMARK                         _______ _______ _______ _____ _____    ______ ____
ROOT
ATOM      1  N   UNL     1       6.773   5.487  17.815  0.00  0.00    +0.000 N 
ATOM      2  C   UNL     1       6.718   5.245  16.470  0.00  0.00    +0.000 C 
ATOM      3  O   UNL     1       7.679   5.538  15.746  0.00  0.00    +0.000 OA
ATOM      4  H   UNL     1       6.120   5.006  18.426  0.00  0.00    +0.000 HD
ENDROOT
BRANCH   1   5
ATOM      5  C   UNL     1       7.888   6.224  18.409  0.00  0.00    +0.000 C 
BRANCH   5   7
ATOM      6  N   UNL     1       8.786   8.449  18.939  0.00  0.00    +0.000 N 
ATOM      7  C   UNL     1       7.869   7.742  18.169  0.00  0.00    +0.000 C 
ATOM      8  O   UNL     1       7.115   8.214  17.326  0.00  0.00    +0.000 OA
ATOM      9  H   UNL     1       9.349   7.897  19.583  0.00  0.00    +0.000 HD
BRANCH   6  13
ATOM     10  C   UNL     1       9.304  12.684  19.121  0.00  0.00    +0.000 A 
ATOM     11  C   UNL     1       8.998  12.056  17.902  0.00  0.00    +0.000 A 
ATOM     12  C   UNL     1       8.844  10.659  17.816  0.00  0.00    +0.000 A 
ATOM     13  C   UNL     1       8.990   9.853  18.941  0.00  0.00    +0.000 A 
ATOM     14  C   UNL     1       9.334  10.470  20.154  0.00  0.00    +0.000 A 
ATOM     15  C   UNL     1       9.488  11.867  20.237  0.00  0.00    +0.000 A 
BRANCH  10  17
ATOM     16  C   UNL     1      10.779  14.691  19.151  0.00  0.00    +0.000 C 
ATOM     17  C   UNL     1       9.330  14.201  19.176  0.00  0.00    +0.000 C 
ATOM     18  C   UNL     1       8.514  14.896  18.081  0.00  0.00    +0.000 C 
ENDBRANCH  10  17
ENDBRANCH   6  13
ENDBRANCH   5   7
ENDBRANCH   1   5
BRANCH   2  19
ATOM     19  C   UNL     1       5.541   4.414  15.913  0.00  0.00    +0.000 C 
BRANCH  19  20
ATOM     20  N   UNL     1       4.248   4.367  16.624  0.00  0.00    +0.000 N 
ATOM     21  C   UNL     1       3.845   3.130  17.146  0.00  0.00    +0.000 A 
ATOM     22  C   UNL     1       2.545   3.032  17.489  0.00  0.00    +0.000 A 
ATOM     23  C   UNL     1       2.214   4.023  18.529  0.00  0.00    +0.000 A 
ATOM     24  C   UNL     1       1.328   3.719  19.567  0.00  0.00    +0.000 A 
ATOM     25  C   UNL     1       1.207   4.604  20.637  0.00  0.00    +0.000 A 
ATOM     26  C   UNL     1       1.961   5.784  20.659  0.00  0.00    +0.000 A 
ATOM     27  C   UNL     1       2.775   6.133  19.570  0.00  0.00    +0.000 A 
ATOM     28  C   UNL     1       2.882   5.262  18.483  0.00  0.00    +0.000 A 
ATOM     29  C   UNL     1       3.779   5.526  17.290  0.00  0.00    +0.000 A 
ATOM     30  O   UNL     1       4.100   6.668  16.970  0.00  0.00    +0.000 OA
ENDBRANCH  19  20
ENDBRANCH   2  19
TORSDOF 6
ENDMDL
MODEL 6
REMARK VINA RESULT:      -8.1      1.717      2.150
REMARK  Name = 
REMARK  8 active torsions:
REMARK  status: ('A' for Active; 'I' for Inactive)
REMARK    1  A    between atoms: C_1  and  C_2
REMARK    2  A    between atoms: C_2  and  C_3
REMARK    3  A    between atoms: C_2  and  C_4
REMARK    4  A    between atoms: C_7  and  N_8
REMARK    5  A    between atoms: C_9  and  C_11
REMARK    6  A    between atoms: C_11  and  N_12
REMARK    7  A    between atoms: C_13  and  C_15
REMARK    8  A    between atoms: C_15  and  N_16
REMARK                            x       y       z     vdW  Elec       q    Type
REMARK                         _______ _______ _______ _____ _____    ______ ____
ROOT
ATOM      1  N   UNL     1       6.972   6.692  18.196  0.00  0.00    +0.000 N 
ATOM      2  C   UNL     1       6.678   6.074  17.012  0.00  0.00    +0.000 C 
ATOM      3  O   UNL     1       7.525   6.024  16.110  0.00  0.00    +0.000 OA
ATOM      4  H   UNL     1       6.396   6.493  19.008  0.00  0.00    +0.000 HD
ENDROOT
BRANCH   1   5
ATOM      5  C   UNL     1       8.219   7.433  18.377  0.00  0.00    +0.000 C 
BRANCH   5   7
ATOM      6  N   UNL     1       9.202   9.684  18.462  0.00  0.00    +0.000 N 
ATOM      7  C   UNL     1       8.174   8.906  17.941  0.00  0.00    +0.000 C 
ATOM      8  O   UNL     1       7.302   9.282  17.166  0.00  0.00    +0.000 OA
ATOM      9  H   UNL     1       9.852   9.207  19.082  0.00  0.00    +0.000 HD
BRANCH   6  13
ATOM     10  C   UNL     1       9.981  13.851  17.945  0.00  0.00    +0.000 A 
ATOM     11  C   UNL     1       8.661  13.369  17.953  0.00  0.00    +0.000 A 
ATOM     12  C   UNL     1       8.383  11.996  18.101  0.00  0.00    +0.000 A 
ATOM     13  C   UNL     1       9.412  11.071  18.245  0.00  0.00    +0.000 A 
ATOM     14  C   UNL     1      10.733  11.541  18.199  0.00  0.00    +0.000 A 
ATOM     15  C   UNL     1      11.008  12.913  18.050  0.00  0.00    +0.000 A 
BRANCH  10  17
ATOM     16  C   UNL     1      11.178  15.697  16.777  0.00  0.00    +0.000 C 
ATOM     17  C   UNL     1      10.211  15.351  17.912  0.00  0.00    +0.000 C 
ATOM     18  C   UNL     1       8.936  16.193  17.798  0.00  0.00    +0.000 C 
ENDBRANCH  10  17
ENDBRANCH   6  13
ENDBRANCH   5   7
ENDBRANCH   1   5
BRANCH   2  19
ATOM     19  C   UNL     1       5.369   5.262  16.903  0.00  0.00    +0.000 C 
BRANCH  19  20
ATOM     20  N   UNL     1       4.416   5.214  18.030  0.00  0.00    +0.000 N 
ATOM     21  C   UNL     1       3.079   5.533  17.757  0.00  0.00    +0.000 A 
ATOM     22  C   UNL     1       2.308   5.804  18.829  0.00  0.00    +0.000 A 
ATOM     23  C   UNL     1       2.256   4.640  19.730  0.00  0.00    +0.000 A 
ATOM     24  C   UNL     1       1.083   4.295  20.408  0.00  0.00    +0.000 A 
ATOM     25  C   UNL     1       1.019   3.076  21.079  0.00  0.00    +0.000 A 
ATOM     26  C   UNL     1       2.125   2.216  21.077  0.00  0.00    +0.000 A 
ATOM     27  C   UNL     1       3.334   2.607  20.479  0.00  0.00    +0.000 A 
ATOM     28  C   UNL     1       3.411   3.839  19.825  0.00  0.00    +0.000 A 
ATOM     29  C   UNL     1       4.655   4.321  19.103  0.00  0.00    +0.000 A 
ATOM     30  O   UNL     1       5.772   3.917  19.413  0.00  0.00    +0.000 OA
ENDBRANCH  19  20
ENDBRANCH   2  19
TORSDOF 6
ENDMDL
MODEL 7
REMARK VINA RESULT:      -8.0      1.774      3.009
REMARK  Name = 
REMARK  8 active torsions:
REMARK  status: ('A' for Active; 'I' for Inactive)
REMARK    1  A    between atoms: C_1  and  C_2
REMARK    2  A    between atoms: C_2  and  C_3
REMARK    3  A    between atoms: C_2  and  C_4
REMARK    4  A    between atoms: C_7  and  N_8
REMARK    5  A    between atoms: C_9  and  C_11
REMARK    6  A    between atoms: C_11  and  N_12
REMARK    7  A    between atoms: C_13  and  C_15
REMARK    8  A    between atoms: C_15  and  N_16
REMARK                            x       y       z     vdW  Elec       q    Type
REMARK                         _______ _______ _______ _____ _____    ______ ____
ROOT
ATOM      1  N   UNL     1       7.896   8.839  17.813  0.00  0.00    +0.000 N 
ATOM      2  C   UNL     1       7.711   7.493  17.975  0.00  0.00    +0.000 C 
ATOM      3  O   UNL     1       8.273   6.897  18.903  0.00  0.00    +0.000 OA
ATOM      4  H   UNL     1       7.236   9.358  17.241  0.00  0.00    +0.000 HD
ENDROOT
BRANCH   1   5
ATOM      5  C   UNL     1       8.863   9.577  18.624  0.00  0.00    +0.000 C 
BRANCH   5   7
ATOM      6  N   UNL     1      10.211  11.629  18.722  0.00  0.00    +0.000 N 
ATOM      7  C   UNL     1       9.034  11.058  18.251  0.00  0.00    +0.000 C 
ATOM      8  O   UNL     1       8.186  11.612  17.561  0.00  0.00    +0.000 OA
ATOM      9  H   UNL     1      10.814  11.021  19.271  0.00  0.00    +0.000 HD
BRANCH   6  13
ATOM     10  C   UNL     1      11.299  15.716  18.131  0.00  0.00    +0.000 A 
ATOM     11  C   UNL     1      12.178  14.685  17.758  0.00  0.00    +0.000 A 
ATOM     12  C   UNL     1      11.847  13.331  17.964  0.00  0.00    +0.000 A 
ATOM     13  C   UNL     1      10.634  12.972  18.544  0.00  0.00    +0.000 A 
ATOM     14  C   UNL     1       9.770  13.999  18.954  0.00  0.00    +0.000 A 
ATOM     15  C   UNL     1      10.103  15.351  18.748  0.00  0.00    +0.000 A 
BRANCH  10  17
ATOM     16  C   UNL     1      10.404  17.878  17.278  0.00  0.00    +0.000 C 
ATOM     17  C   UNL     1      11.655  17.147  17.767  0.00  0.00    +0.000 C 
ATOM     18  C   UNL     1      12.333  17.943  18.887  0.00  0.00    +0.000 C 
ENDBRANCH  10  17
ENDBRANCH   6  13
ENDBRANCH   5   7
ENDBRANCH   1   5
BRANCH   2  19
ATOM     19  C   UNL     1       6.636   6.784  17.124  0.00  0.00    +0.000 C 
BRANCH  19  20
ATOM     20  N   UNL     1       5.425   6.222  17.755  0.00  0.00    +0.000 N 
ATOM     21  C   UNL     1       4.193   6.794  17.407  0.00  0.00    +0.000 A 
ATOM     22  C   UNL     1       3.159   6.504  18.221  0.00  0.00    +0.000 A 
ATOM     23  C   UNL     1       2.921   5.050  18.249  0.00  0.00    +0.000 A 
ATOM     24  C   UNL     1       1.627   4.525  18.306  0.00  0.00    +0.000 A 
ATOM     25  C   UNL     1       1.440   3.157  18.119  0.00  0.00    +0.000 A 
ATOM     26  C   UNL     1       2.542   2.324  17.886  0.00  0.00    +0.000 A 
ATOM     27  C   UNL     1       3.848   2.839  17.927  0.00  0.00    +0.000 A 
ATOM     28  C   UNL     1       4.043   4.205  18.138  0.00  0.00    +0.000 A 
ATOM     29  C   UNL     1       5.411   4.860  18.142  0.00  0.00    +0.000 A 
ATOM     30  O   UNL     1       6.425   4.224  18.419  0.00  0.00    +0.000 OA
ENDBRANCH  19  20
ENDBRANCH   2  19
TORSDOF 6
ENDMDL
MODEL 8
REMARK VINA RESULT:      -7.8      2.310     10.507
REMARK  Name = 
REMARK  8 active torsions:
REMARK  status: ('A' for Active; 'I' for Inactive)
REMARK    1  A    between atoms: C_1  and  C_2
REMARK    2  A    between atoms: C_2  and  C_3
REMARK    3  A    between atoms: C_2  and  C_4
REMARK    4  A    between atoms: C_7  and  N_8
REMARK    5  A    between atoms: C_9  and  C_11
REMARK    6  A    between atoms: C_11  and  N_12
REMARK    7  A    between atoms: C_13  and  C_15
REMARK    8  A    between atoms: C_15  and  N_16
REMARK                            x       y       z     vdW  Elec       q    Type
REMARK                         _______ _______ _______ _____ _____    ______ ____
ROOT
ATOM      1  N   UNL     1       8.819   9.343  18.777  0.00  0.00    +0.000 N 
ATOM      2  C   UNL     1       9.288  10.628  18.801  0.00  0.00    +0.000 C 
ATOM      3  O   UNL     1       9.027  11.402  17.871  0.00  0.00    +0.000 OA
ATOM      4  H   UNL     1       8.799   8.813  19.643  0.00  0.00    +0.000 HD
ENDROOT
BRANCH   1   5
ATOM      5  C   UNL     1       8.133   8.807  17.603  0.00  0.00    +0.000 C 
BRANCH   5   7
ATOM      6  N   UNL     1       6.214   7.359  17.094  0.00  0.00    +0.000 N 
ATOM      7  C   UNL     1       7.386   7.483  17.830  0.00  0.00    +0.000 C 
ATOM      8  O   UNL     1       7.864   6.637  18.578  0.00  0.00    +0.000 OA
ATOM      9  H   UNL     1       5.968   8.153  16.508  0.00  0.00    +0.000 HD
BRANCH   6  13
ATOM     10  C   UNL     1       3.464   4.099  17.316  0.00  0.00    +0.000 A 
ATOM     11  C   UNL     1       4.686   3.954  16.638  0.00  0.00    +0.000 A 
ATOM     12  C   UNL     1       5.598   5.023  16.534  0.00  0.00    +0.000 A 
ATOM     13  C   UNL     1       5.315   6.261  17.105  0.00  0.00    +0.000 A 
ATOM     14  C   UNL     1       4.079   6.423  17.750  0.00  0.00    +0.000 A 
ATOM     15  C   UNL     1       3.170   5.353  17.851  0.00  0.00    +0.000 A 
BRANCH  10  17
ATOM     16  C   UNL     1       3.413   1.730  18.085  0.00  0.00    +0.000 C 
ATOM     17  C   UNL     1       2.583   2.876  17.504  0.00  0.00    +0.000 C 
ATOM     18  C   UNL     1       1.332   3.113  18.357  0.00  0.00    +0.000 C 
ENDBRANCH  10  17
ENDBRANCH   6  13
ENDBRANCH   5   7
ENDBRANCH   1   5
BRANCH   2  19
ATOM     19  C   UNL     1       9.956  11.150  20.092  0.00  0.00    +0.000 C 
BRANCH  19  20
ATOM     20  N   UNL     1       9.335  12.238  20.874  0.00  0.00    +0.000 N 
ATOM     21  C   UNL     1       8.791  11.904  22.123  0.00  0.00    +0.000 A 
ATOM     22  C   UNL     1       7.953  12.812  22.661  0.00  0.00    +0.000 A 
ATOM     23  C   UNL     1       8.652  14.093  22.869  0.00  0.00    +0.000 A 
ATOM     24  C   UNL     1       8.399  14.887  23.992  0.00  0.00    +0.000 A 
ATOM     25  C   UNL     1       9.227  15.976  24.253  0.00  0.00    +0.000 A 
ATOM     26  C   UNL     1      10.291  16.271  23.392  0.00  0.00    +0.000 A 
ATOM     27  C   UNL     1      10.483  15.532  22.213  0.00  0.00    +0.000 A 
ATOM     28  C   UNL     1       9.641  14.453  21.933  0.00  0.00    +0.000 A 
ATOM     29  C   UNL     1       9.806  13.564  20.716  0.00  0.00    +0.000 A 
ATOM     30  O   UNL     1      10.353  13.971  19.694  0.00  0.00    +0.000 OA
ENDBRANCH  19  20
ENDBRANCH   2  19
TORSDOF 6
ENDMDL
MODEL 9
REMARK VINA RESULT:      -7.8      5.460      7.235
REMARK  Name = 
REMARK  8 active torsions:
REMARK  status: ('A' for Active; 'I' for Inactive)
REMARK    1  A    between atoms: C_1  and  C_2
REMARK    2  A    between atoms: C_2  and  C_3
REMARK    3  A    between atoms: C_2  and  C_4
REMARK    4  A    between atoms: C_7  and  N_8
REMARK    5  A    between atoms: C_9  and  C_11
REMARK    6  A    between atoms: C_11  and  N_12
REMARK    7  A    between atoms: C_13  and  C_15
REMARK    8  A    between atoms: C_15  and  N_16
REMARK                            x       y       z     vdW  Elec       q    Type
REMARK                         _______ _______ _______ _____ _____    ______ ____
ROOT
ATOM      1  N   UNL     1       3.672   6.531  17.183  0.00  0.00    +0.000 N 
ATOM      2  C   UNL     1       4.812   6.007  16.636  0.00  0.00    +0.000 C 
ATOM      3  O   UNL     1       5.731   6.757  16.281  0.00  0.00    +0.000 OA
ATOM      4  H   UNL     1       3.059   5.919  17.713  0.00  0.00    +0.000 HD
ENDROOT
BRANCH   1   5
ATOM      5  C   UNL     1       3.444   7.974  17.228  0.00  0.00    +0.000 C 
BRANCH   5   7
ATOM      6  N   UNL     1       1.737   9.624  17.858  0.00  0.00    +0.000 N 
ATOM      7  C   UNL     1       2.358   8.433  18.214  0.00  0.00    +0.000 C 
ATOM      8  O   UNL     1       2.088   7.737  19.186  0.00  0.00    +0.000 OA
ATOM      9  H   UNL     1       2.075  10.069  17.008  0.00  0.00    +0.000 HD
BRANCH   6  13
ATOM     10  C   UNL     1      -1.429  11.696  19.839  0.00  0.00    +0.000 A 
ATOM     11  C   UNL     1      -0.118  11.754  20.340  0.00  0.00    +0.000 A 
ATOM     12  C   UNL     1       0.937  11.061  19.715  0.00  0.00    +0.000 A 
ATOM     13  C   UNL     1       0.711  10.295  18.575  0.00  0.00    +0.000 A 
ATOM     14  C   UNL     1      -0.603  10.202  18.092  0.00  0.00    +0.000 A 
ATOM     15  C   UNL     1      -1.655  10.895  18.720  0.00  0.00    +0.000 A 
BRANCH  10  17
ATOM     16  C   UNL     1      -3.821  12.384  19.738  0.00  0.00    +0.000 C 
ATOM     17  C   UNL     1      -2.496  12.566  20.481  0.00  0.00    +0.000 C 
ATOM     18  C   UNL     1      -2.692  12.336  21.983  0.00  0.00    +0.000 C 
ENDBRANCH  10  17
ENDBRANCH   6  13
ENDBRANCH   5   7
ENDBRANCH   1   5
BRANCH   2  19
ATOM     19  C   UNL     1       5.017   4.477  16.669  0.00  0.00    +0.000 C 
BRANCH  19  20
ATOM     20  N   UNL     1       4.436   3.662  17.754  0.00  0.00    +0.000 N 
ATOM     21  C   UNL     1       5.049   3.735  19.013  0.00  0.00    +0.000 A 
ATOM     22  C   UNL     1       4.724   2.758  19.883  0.00  0.00    +0.000 A 
ATOM     23  C   UNL     1       3.275   2.772  20.152  0.00  0.00    +0.000 A 
ATOM     24  C   UNL     1       2.769   2.501  21.426  0.00  0.00    +0.000 A 
ATOM     25  C   UNL     1       1.419   2.730  21.683  0.00  0.00    +0.000 A 
ATOM     26  C   UNL     1       0.585   3.216  20.668  0.00  0.00    +0.000 A 
ATOM     27  C   UNL     1       1.074   3.394  19.364  0.00  0.00    +0.000 A 
ATOM     28  C   UNL     1       2.422   3.143  19.094  0.00  0.00    +0.000 A 
ATOM     29  C   UNL     1       3.052   3.360  17.733  0.00  0.00    +0.000 A 
ATOM     30  O   UNL     1       2.384   3.319  16.703  0.00  0.00    +0.000 OA
ENDBRANCH  19  20
ENDBRANCH   2  19
TORSDOF 6
ENDMDL
