MODEL 1
REMARK VINA RESULT:      -7.4      0.000      0.000
REMARK  Name = 
REMARK  1 active torsions:
REMARK  status: ('A' for Active; 'I' for Inactive)
REMARK    1  A    between atoms: C_8  and  C_9
REMARK                            x       y       z     vdW  Elec       q    Type
REMARK                         _______ _______ _______ _____ _____    ______ ____
ROOT
ATOM      1  N   UNL     1       7.745   5.314  14.559  0.00  0.00    +0.000 N 
ATOM      2  C   UNL     1       6.950   5.108  15.663  0.00  0.00    +0.000 A 
ATOM      3  N   UNL     1       7.481   5.338  16.861  0.00  0.00    +0.000 NA
ATOM      4  C   UNL     1       6.714   5.046  17.922  0.00  0.00    +0.000 A 
ATOM      5  N   UNL     1       7.336   5.170  19.176  0.00  0.00    +0.000 N 
ATOM      6  C   UNL     1       5.420   4.545  17.833  0.00  0.00    +0.000 A 
ATOM      7  N   UNL     1       4.658   4.235  18.927  0.00  0.00    +0.000 NA
ATOM      8  C   UNL     1       3.429   3.737  18.678  0.00  0.00    +0.000 A 
ATOM      9  C   UNL     1       2.978   3.603  17.378  0.00  0.00    +0.000 A 
ATOM     10  N   UNL     1       3.729   3.941  16.297  0.00  0.00    +0.000 NA
ATOM     11  C   UNL     1       4.966   4.400  16.515  0.00  0.00    +0.000 A 
ATOM     12  N   UNL     1       5.710   4.684  15.453  0.00  0.00    +0.000 NA
ATOM     13  H   UNL     1       8.503   5.953  14.744  0.00  0.00    +0.000 HD
ATOM     14  H   UNL     1       7.199   5.436  13.719  0.00  0.00    +0.000 HD
ATOM     15  H   UNL     1       8.210   5.676  19.084  0.00  0.00    +0.000 HD
ATOM     16  H   UNL     1       6.701   5.517  19.886  0.00  0.00    +0.000 HD
ENDROOT
BRANCH   8  17
ATOM     17  C   UNL     1       2.662   3.332  19.842  0.00  0.00    +0.000 A 
ATOM     18  C   UNL     1       1.360   3.541  20.253  0.00  0.00    +0.000 A 
ATOM     19  C   UNL     1       1.226   2.917  21.518  0.00  0.00    +0.000 A 
ATOM     20  C   UNL     1       2.452   2.359  21.799  0.00  0.00    +0.000 A 
ATOM     21  O   UNL     1       3.327   2.601  20.789  0.00  0.00    +0.000 OA
ENDBRANCH   8  17
TORSDOF 1
ENDMDL
MODEL 2
REMARK VINA RESULT:      -7.2      2.967      6.150
REMARK  Name = 
REMARK  1 active torsions:
REMARK  status: ('A' for Active; 'I' for Inactive)
REMARK    1  A    between atoms: C_8  and  C_9
REMARK                            x       y       z     vdW  Elec       q    Type
REMARK                         _______ _______ _______ _____ _____    ______ ____
ROOT
ATOM      1  N   UNL     1       2.563   5.028  21.141  0.00  0.00    +0.000 N 
ATOM      2  C   UNL     1       3.083   4.751  19.898  0.00  0.00    +0.000 A 
ATOM      3  N   UNL     1       3.151   3.476  19.524  0.00  0.00    +0.000 NA
ATOM      4  C   UNL     1       3.742   3.228  18.346  0.00  0.00    +0.000 A 
ATOM      5  N   UNL     1       3.923   1.872  18.028  0.00  0.00    +0.000 N 
ATOM      6  C   UNL     1       4.256   4.213  17.511  0.00  0.00    +0.000 A 
ATOM      7  N   UNL     1       4.873   3.941  16.319  0.00  0.00    +0.000 NA
ATOM      8  C   UNL     1       5.340   5.004  15.630  0.00  0.00    +0.000 A 
ATOM      9  C   UNL     1       5.149   6.287  16.109  0.00  0.00    +0.000 A 
ATOM     10  N   UNL     1       4.510   6.551  17.278  0.00  0.00    +0.000 NA
ATOM     11  C   UNL     1       4.072   5.514  18.000  0.00  0.00    +0.000 A 
ATOM     12  N   UNL     1       3.490   5.778  19.163  0.00  0.00    +0.000 NA
ATOM     13  H   UNL     1       1.963   4.291  21.481  0.00  0.00    +0.000 HD
ATOM     14  H   UNL     1       2.250   5.984  21.215  0.00  0.00    +0.000 HD
ATOM     15  H   UNL     1       3.375   1.290  18.653  0.00  0.00    +0.000 HD
ATOM     16  H   UNL     1       3.800   1.689  17.039  0.00  0.00    +0.000 HD
ENDROOT
BRANCH   8  17
ATOM     17  C   UNL     1       6.066   4.699  14.412  0.00  0.00    +0.000 A 
ATOM     18  C   UNL     1       5.906   3.761  13.409  0.00  0.00    +0.000 A 
ATOM     19  C   UNL     1       6.979   3.947  12.503  0.00  0.00    +0.000 A 
ATOM     20  C   UNL     1       7.725   4.990  13.002  0.00  0.00    +0.000 A 
ATOM     21  O   UNL     1       7.178   5.455  14.155  0.00  0.00    +0.000 OA
ENDBRANCH   8  17
TORSDOF 1
ENDMDL
MODEL 3
REMARK VINA RESULT:      -7.2      3.463      6.027
REMARK  Name = 
REMARK  1 active torsions:
REMARK  status: ('A' for Active; 'I' for Inactive)
REMARK    1  A    between atoms: C_8  and  C_9
REMARK                            x       y       z     vdW  Elec       q    Type
REMARK                         _______ _______ _______ _____ _____    ______ ____
ROOT
ATOM      1  N   UNL     1       7.747   5.681  19.884  0.00  0.00    +0.000 N 
ATOM      2  C   UNL     1       7.133   5.250  18.731  0.00  0.00    +0.000 A 
ATOM      3  N   UNL     1       6.069   4.461  18.854  0.00  0.00    +0.000 NA
ATOM      4  C   UNL     1       5.542   3.984  17.716  0.00  0.00    +0.000 A 
ATOM      5  N   UNL     1       4.505   3.049  17.869  0.00  0.00    +0.000 N 
ATOM      6  C   UNL     1       6.030   4.281  16.448  0.00  0.00    +0.000 A 
ATOM      7  N   UNL     1       5.492   3.771  15.298  0.00  0.00    +0.000 NA
ATOM      8  C   UNL     1       6.090   4.135  14.144  0.00  0.00    +0.000 A 
ATOM      9  C   UNL     1       7.158   5.013  14.156  0.00  0.00    +0.000 A 
ATOM     10  N   UNL     1       7.668   5.539  15.300  0.00  0.00    +0.000 NA
ATOM     11  C   UNL     1       7.119   5.163  16.460  0.00  0.00    +0.000 A 
ATOM     12  N   UNL     1       7.653   5.646  17.576  0.00  0.00    +0.000 NA
ATOM     13  H   UNL     1       7.129   5.661  20.681  0.00  0.00    +0.000 HD
ATOM     14  H   UNL     1       8.311   6.503  19.726  0.00  0.00    +0.000 HD
ATOM     15  H   UNL     1       4.172   3.050  18.827  0.00  0.00    +0.000 HD
ATOM     16  H   UNL     1       3.790   3.149  17.157  0.00  0.00    +0.000 HD
ENDROOT
BRANCH   8  17
ATOM     17  C   UNL     1       5.566   3.522  12.938  0.00  0.00    +0.000 A 
ATOM     18  C   UNL     1       4.432   3.724  12.174  0.00  0.00    +0.000 A 
ATOM     19  C   UNL     1       4.467   2.766  11.131  0.00  0.00    +0.000 A 
ATOM     20  C   UNL     1       5.622   2.043  11.316  0.00  0.00    +0.000 A 
ATOM     21  O   UNL     1       6.297   2.495  12.404  0.00  0.00    +0.000 OA
ENDBRANCH   8  17
TORSDOF 1
ENDMDL
MODEL 4
REMARK VINA RESULT:      -7.2      2.712      6.052
REMARK  Name = 
REMARK  1 active torsions:
REMARK  status: ('A' for Active; 'I' for Inactive)
REMARK    1  A    between atoms: C_8  and  C_9
REMARK                            x       y       z     vdW  Elec       q    Type
REMARK                         _______ _______ _______ _____ _____    ______ ____
ROOT
ATOM      1  N   UNL     1       2.118   3.349  21.871  0.00  0.00    +0.000 N 
ATOM      2  C   UNL     1       2.676   3.353  20.615  0.00  0.00    +0.000 A 
ATOM      3  N   UNL     1       2.899   2.177  20.032  0.00  0.00    +0.000 NA
ATOM      4  C   UNL     1       3.523   2.206  18.845  0.00  0.00    +0.000 A 
ATOM      5  N   UNL     1       3.868   0.955  18.308  0.00  0.00    +0.000 N 
ATOM      6  C   UNL     1       3.922   3.373  18.204  0.00  0.00    +0.000 A 
ATOM      7  N   UNL     1       4.575   3.383  17.000  0.00  0.00    +0.000 NA
ATOM      8  C   UNL     1       4.917   4.595  16.515  0.00  0.00    +0.000 A 
ATOM      9  C   UNL     1       4.570   5.746  17.198  0.00  0.00    +0.000 A 
ATOM     10  N   UNL     1       3.895   5.730  18.378  0.00  0.00    +0.000 NA
ATOM     11  C   UNL     1       3.580   4.540  18.900  0.00  0.00    +0.000 A 
ATOM     12  N   UNL     1       2.962   4.531  20.076  0.00  0.00    +0.000 NA
ATOM     13  H   UNL     1       1.607   2.500  22.065  0.00  0.00    +0.000 HD
ATOM     14  H   UNL     1       1.691   4.236  22.098  0.00  0.00    +0.000 HD
ATOM     15  H   UNL     1       3.389   0.214  18.809  0.00  0.00    +0.000 HD
ATOM     16  H   UNL     1       3.775   0.931  17.298  0.00  0.00    +0.000 HD
ENDROOT
BRANCH   8  17
ATOM     17  C   UNL     1       5.683   4.591  15.283  0.00  0.00    +0.000 A 
ATOM     18  C   UNL     1       5.559   3.924  14.078  0.00  0.00    +0.000 A 
ATOM     19  C   UNL     1       6.660   4.318  13.279  0.00  0.00    +0.000 A 
ATOM     20  C   UNL     1       7.385   5.207  14.039  0.00  0.00    +0.000 A 
ATOM     21  O   UNL     1       6.800   5.382  15.252  0.00  0.00    +0.000 OA
ENDBRANCH   8  17
TORSDOF 1
ENDMDL
MODEL 5
REMARK VINA RESULT:      -7.0      3.865      5.311
REMARK  Name = 
REMARK  1 active torsions:
REMARK  status: ('A' for Active; 'I' for Inactive)
REMARK    1  A    between atoms: C_8  and  C_9
REMARK                            x       y       z     vdW  Elec       q    Type
REMARK                         _______ _______ _______ _____ _____    ______ ____
ROOT
ATOM      1  N   UNL     1       3.926   0.762  18.300  0.00  0.00    +0.000 N 
ATOM      2  C   UNL     1       3.477   2.033  18.574  0.00  0.00    +0.000 A 
ATOM      3  N   UNL     1       2.407   2.158  19.355  0.00  0.00    +0.000 NA
ATOM      4  C   UNL     1       1.938   3.402  19.534  0.00  0.00    +0.000 A 
ATOM      5  N   UNL     1       0.734   3.502  20.251  0.00  0.00    +0.000 N 
ATOM      6  C   UNL     1       2.511   4.537  18.974  0.00  0.00    +0.000 A 
ATOM      7  N   UNL     1       2.008   5.798  19.152  0.00  0.00    +0.000 NA
ATOM      8  C   UNL     1       2.662   6.798  18.525  0.00  0.00    +0.000 A 
ATOM      9  C   UNL     1       3.802   6.534  17.788  0.00  0.00    +0.000 A 
ATOM     10  N   UNL     1       4.312   5.284  17.639  0.00  0.00    +0.000 NA
ATOM     11  C   UNL     1       3.660   4.270  18.218  0.00  0.00    +0.000 A 
ATOM     12  N   UNL     1       4.139   3.046  18.029  0.00  0.00    +0.000 NA
ATOM     13  H   UNL     1       3.635   0.092  18.996  0.00  0.00    +0.000 HD
ATOM     14  H   UNL     1       4.888   0.759  17.994  0.00  0.00    +0.000 HD
ATOM     15  H   UNL     1       0.526   2.621  20.710  0.00  0.00    +0.000 HD
ATOM     16  H   UNL     1       0.709   4.322  20.847  0.00  0.00    +0.000 HD
ENDROOT
BRANCH   8  17
ATOM     17  C   UNL     1       2.073   8.118  18.651  0.00  0.00    +0.000 A 
ATOM     18  C   UNL     1       1.943   9.197  17.797  0.00  0.00    +0.000 A 
ATOM     19  C   UNL     1       1.301  10.224  18.532  0.00  0.00    +0.000 A 
ATOM     20  C   UNL     1       1.072   9.708  19.787  0.00  0.00    +0.000 A 
ATOM     21  O   UNL     1       1.531   8.433  19.868  0.00  0.00    +0.000 OA
ENDBRANCH   8  17
TORSDOF 1
ENDMDL
MODEL 6
REMARK VINA RESULT:      -6.9      2.707      5.689
REMARK  Name = 
REMARK  1 active torsions:
REMARK  status: ('A' for Active; 'I' for Inactive)
REMARK    1  A    between atoms: C_8  and  C_9
REMARK                            x       y       z     vdW  Elec       q    Type
REMARK                         _______ _______ _______ _____ _____    ______ ____
ROOT
ATOM      1  N   UNL     1       0.473   1.819  18.621  0.00  0.00    +0.000 N 
ATOM      2  C   UNL     1       1.563   2.644  18.770  0.00  0.00    +0.000 A 
ATOM      3  N   UNL     1       1.582   3.463  19.819  0.00  0.00    +0.000 NA
ATOM      4  C   UNL     1       2.612   4.318  19.893  0.00  0.00    +0.000 A 
ATOM      5  N   UNL     1       2.549   5.261  20.932  0.00  0.00    +0.000 N 
ATOM      6  C   UNL     1       3.643   4.377  18.961  0.00  0.00    +0.000 A 
ATOM      7  N   UNL     1       4.678   5.270  19.042  0.00  0.00    +0.000 NA
ATOM      8  C   UNL     1       5.590   5.219  18.048  0.00  0.00    +0.000 A 
ATOM      9  C   UNL     1       5.481   4.275  17.045  0.00  0.00    +0.000 A 
ATOM     10  N   UNL     1       4.466   3.373  16.987  0.00  0.00    +0.000 NA
ATOM     11  C   UNL     1       3.527   3.427  17.937  0.00  0.00    +0.000 A 
ATOM     12  N   UNL     1       2.515   2.573  17.848  0.00  0.00    +0.000 NA
ATOM     13  H   UNL     1      -0.009   1.655  19.492  0.00  0.00    +0.000 HD
ATOM     14  H   UNL     1       0.675   1.032  18.022  0.00  0.00    +0.000 HD
ATOM     15  H   UNL     1       1.830   5.000  21.598  0.00  0.00    +0.000 HD
ATOM     16  H   UNL     1       3.461   5.459  21.327  0.00  0.00    +0.000 HD
ENDROOT
BRANCH   8  17
ATOM     17  C   UNL     1       6.636   6.224  18.098  0.00  0.00    +0.000 A 
ATOM     18  C   UNL     1       7.812   6.352  18.813  0.00  0.00    +0.000 A 
ATOM     19  C   UNL     1       8.381   7.595  18.444  0.00  0.00    +0.000 A 
ATOM     20  C   UNL     1       7.523   8.149  17.522  0.00  0.00    +0.000 A 
ATOM     21  O   UNL     1       6.466   7.325  17.302  0.00  0.00    +0.000 OA
ENDBRANCH   8  17
TORSDOF 1
ENDMDL
MODEL 7
REMARK VINA RESULT:      -6.8      2.608      5.875
REMARK  Name = 
REMARK  1 active torsions:
REMARK  status: ('A' for Active; 'I' for Inactive)
REMARK    1  A    between atoms: C_8  and  C_9
REMARK                            x       y       z     vdW  Elec       q    Type
REMARK                         _______ _______ _______ _____ _____    ______ ____
ROOT
ATOM      1  N   UNL     1       1.070   2.649  22.454  0.00  0.00    +0.000 N 
ATOM      2  C   UNL     1       1.940   2.755  21.394  0.00  0.00    +0.000 A 
ATOM      3  N   UNL     1       3.091   2.092  21.468  0.00  0.00    +0.000 NA
ATOM      4  C   UNL     1       3.958   2.282  20.462  0.00  0.00    +0.000 A 
ATOM      5  N   UNL     1       5.217   1.679  20.620  0.00  0.00    +0.000 N 
ATOM      6  C   UNL     1       3.711   3.102  19.368  0.00  0.00    +0.000 A 
ATOM      7  N   UNL     1       4.615   3.300  18.358  0.00  0.00    +0.000 NA
ATOM      8  C   UNL     1       4.239   4.144  17.374  0.00  0.00    +0.000 A 
ATOM      9  C   UNL     1       2.984   4.723  17.392  0.00  0.00    +0.000 A 
ATOM     10  N   UNL     1       2.080   4.500  18.382  0.00  0.00    +0.000 NA
ATOM     11  C   UNL     1       2.444   3.699  19.389  0.00  0.00    +0.000 A 
ATOM     12  N   UNL     1       1.573   3.522  20.376  0.00  0.00    +0.000 NA
ATOM     13  H   UNL     1       1.223   1.811  22.997  0.00  0.00    +0.000 HD
ATOM     14  H   UNL     1       0.127   2.895  22.194  0.00  0.00    +0.000 HD
ATOM     15  H   UNL     1       5.191   1.009  21.381  0.00  0.00    +0.000 HD
ATOM     16  H   UNL     1       5.589   1.332  19.743  0.00  0.00    +0.000 HD
ENDROOT
BRANCH   8  17
ATOM     17  C   UNL     1       5.235   4.412  16.354  0.00  0.00    +0.000 A 
ATOM     18  C   UNL     1       5.197   4.509  14.977  0.00  0.00    +0.000 A 
ATOM     19  C   UNL     1       6.525   4.749  14.547  0.00  0.00    +0.000 A 
ATOM     20  C   UNL     1       7.293   4.791  15.688  0.00  0.00    +0.000 A 
ATOM     21  O   UNL     1       6.522   4.592  16.788  0.00  0.00    +0.000 OA
ENDBRANCH   8  17
TORSDOF 1
ENDMDL
MODEL 8
REMARK VINA RESULT:      -6.8      3.768      5.342
REMARK  Name = 
REMARK  1 active torsions:
REMARK  status: ('A' for Active; 'I' for Inactive)
REMARK    1  A    between atoms: C_8  and  C_9
REMARK                            x       y       z     vdW  Elec       q    Type
REMARK                         _______ _______ _______ _____ _____    ______ ____
ROOT
ATOM      1  N   UNL     1       5.158   1.182  20.059  0.00  0.00    +0.000 N 
ATOM      2  C   UNL     1       4.482   2.379  20.042  0.00  0.00    +0.000 A 
ATOM      3  N   UNL     1       3.340   2.456  20.721  0.00  0.00    +0.000 NA
ATOM      4  C   UNL     1       2.657   3.605  20.617  0.00  0.00    +0.000 A 
ATOM      5  N   UNL     1       1.394   3.621  21.231  0.00  0.00    +0.000 N 
ATOM      6  C   UNL     1       3.082   4.697  19.869  0.00  0.00    +0.000 A 
ATOM      7  N   UNL     1       2.362   5.857  19.758  0.00  0.00    +0.000 NA
ATOM      8  C   UNL     1       2.896   6.820  18.976  0.00  0.00    +0.000 A 
ATOM      9  C   UNL     1       4.125   6.630  18.373  0.00  0.00    +0.000 A 
ATOM     10  N   UNL     1       4.847   5.487  18.511  0.00  0.00    +0.000 NA
ATOM     11  C   UNL     1       4.323   4.502  19.248  0.00  0.00    +0.000 A 
ATOM     12  N   UNL     1       5.013   3.372  19.339  0.00  0.00    +0.000 NA
ATOM     13  H   UNL     1       4.922   0.615  20.860  0.00  0.00    +0.000 HD
ATOM     14  H   UNL     1       6.131   1.294  19.813  0.00  0.00    +0.000 HD
ATOM     15  H   UNL     1       1.294   2.822  21.847  0.00  0.00    +0.000 HD
ATOM     16  H   UNL     1       1.179   4.522  21.644  0.00  0.00    +0.000 HD
ENDROOT
BRANCH   8  17
ATOM     17  C   UNL     1       2.086   8.011  18.798  0.00  0.00    +0.000 A 
ATOM     18  C   UNL     1       1.770   8.802  17.710  0.00  0.00    +0.000 A 
ATOM     19  C   UNL     1       0.961   9.859  18.196  0.00  0.00    +0.000 A 
ATOM     20  C   UNL     1       0.826   9.645  19.548  0.00  0.00    +0.000 A 
ATOM     21  O   UNL     1       1.500   8.527  19.923  0.00  0.00    +0.000 OA
ENDBRANCH   8  17
TORSDOF 1
ENDMDL
MODEL 9
REMARK VINA RESULT:      -6.7      2.517      6.177
REMARK  Name = 
REMARK  1 active torsions:
REMARK  status: ('A' for Active; 'I' for Inactive)
REMARK    1  A    between atoms: C_8  and  C_9
REMARK                            x       y       z     vdW  Elec       q    Type
REMARK                         _______ _______ _______ _____ _____    ______ ____
ROOT
ATOM      1  N   UNL     1       1.515   2.941  22.151  0.00  0.00    +0.000 N 
ATOM      2  C   UNL     1       2.107   3.143  20.926  0.00  0.00    +0.000 A 
ATOM      3  N   UNL     1       1.772   2.324  19.933  0.00  0.00    +0.000 NA
ATOM      4  C   UNL     1       2.428   2.487  18.774  0.00  0.00    +0.000 A 
ATOM      5  N   UNL     1       2.157   1.531  17.781  0.00  0.00    +0.000 N 
ATOM      6  C   UNL     1       3.402   3.456  18.561  0.00  0.00    +0.000 A 
ATOM      7  N   UNL     1       4.075   3.596  17.377  0.00  0.00    +0.000 NA
ATOM      8  C   UNL     1       5.009   4.570  17.332  0.00  0.00    +0.000 A 
ATOM      9  C   UNL     1       5.216   5.392  18.424  0.00  0.00    +0.000 A 
ATOM     10  N   UNL     1       4.524   5.266  19.586  0.00  0.00    +0.000 NA
ATOM     11  C   UNL     1       3.620   4.283  19.671  0.00  0.00    +0.000 A 
ATOM     12  N   UNL     1       2.981   4.137  20.825  0.00  0.00    +0.000 NA
ATOM     13  H   UNL     1       0.639   2.446  22.079  0.00  0.00    +0.000 HD
ATOM     14  H   UNL     1       1.563   3.765  22.733  0.00  0.00    +0.000 HD
ATOM     15  H   UNL     1       1.335   0.992  18.029  0.00  0.00    +0.000 HD
ATOM     16  H   UNL     1       2.150   1.936  16.851  0.00  0.00    +0.000 HD
ENDROOT
BRANCH   8  17
ATOM     17  C   UNL     1       5.775   4.655  16.102  0.00  0.00    +0.000 A 
ATOM     18  C   UNL     1       6.951   5.287  15.746  0.00  0.00    +0.000 A 
ATOM     19  C   UNL     1       7.156   5.023  14.370  0.00  0.00    +0.000 A 
ATOM     20  C   UNL     1       6.097   4.239  13.970  0.00  0.00    +0.000 A 
ATOM     21  O   UNL     1       5.258   4.007  15.012  0.00  0.00    +0.000 OA
ENDBRANCH   8  17
TORSDOF 1
ENDMDL
