MODEL 1
REMARK VINA RESULT:      -7.9      0.000      0.000
REMARK  Name = 
REMARK  3 active torsions:
REMARK  status: ('A' for Active; 'I' for Inactive)
REMARK    1  A    between atoms: C_2  and  C_4
REMARK    2  A    between atoms: N_10  and  C_11
REMARK    3  A    between atoms: C_11  and  C_12
REMARK                            x       y       z     vdW  Elec       q    Type
REMARK                         _______ _______ _______ _____ _____    ______ ____
ROOT
ATOM      1  C   UNL     1       1.999   4.405  20.209  0.00  0.00    +0.000 A 
ATOM      2  C   UNL     1       1.731   5.721  20.621  0.00  0.00    +0.000 A 
ATOM      3  C   UNL     1       2.217   6.791  19.891  0.00  0.00    +0.000 A 
ATOM      4  C   UNL     1       3.001   6.545  18.768  0.00  0.00    +0.000 A 
ATOM      5  C   UNL     1       3.312   5.220  18.353  0.00  0.00    +0.000 A 
ATOM      6  C   UNL     1       4.168   4.892  17.275  0.00  0.00    +0.000 A 
ATOM      7  N   UNL     1       4.760   5.881  16.479  0.00  0.00    +0.000 N 
ATOM      8  N   UNL     1       4.388   3.617  16.914  0.00  0.00    +0.000 NA
ATOM      9  C   UNL     1       3.791   2.666  17.622  0.00  0.00    +0.000 A 
ATOM     10  N   UNL     1       3.009   2.859  18.685  0.00  0.00    +0.000 NA
ATOM     11  C   UNL     1       2.774   4.130  19.068  0.00  0.00    +0.000 A 
ATOM     12  H   UNL     1       4.875   6.778  16.933  0.00  0.00    +0.000 HD
ENDROOT
BRANCH   1  14
ATOM     13  N   UNL     1       0.427   2.554  20.544  0.00  0.00    +0.000 N 
ATOM     14  C   UNL     1       1.428   3.324  21.065  0.00  0.00    +0.000 C 
ATOM     15  O   UNL     1       1.829   3.137  22.208  0.00  0.00    +0.000 OA
ATOM     16  H   UNL     1       0.142   1.738  21.067  0.00  0.00    +0.000 HD
ATOM     17  H   UNL     1       0.260   2.568  19.542  0.00  0.00    +0.000 HD
ENDBRANCH   1  14
BRANCH   7  18
ATOM     18  C   UNL     1       6.004   5.504  15.778  0.00  0.00    +0.000 C 
BRANCH  18  19
ATOM     19  C   UNL     1       7.249   5.858  16.615  0.00  0.00    +0.000 C 
ATOM     20  C   UNL     1       7.215   5.391  18.064  0.00  0.00    +0.000 C 
ATOM     21  C   UNL     1       8.085   6.413  18.752  0.00  0.00    +0.000 C 
ATOM     22  C   UNL     1       7.776   7.679  17.984  0.00  0.00    +0.000 C 
ATOM     23  O   UNL     1       7.428   7.291  16.652  0.00  0.00    +0.000 OA
ENDBRANCH  18  19
ENDBRANCH   7  18
TORSDOF 3
ENDMDL
MODEL 2
REMARK VINA RESULT:      -7.6      2.431      3.800
REMARK  Name = 
REMARK  3 active torsions:
REMARK  status: ('A' for Active; 'I' for Inactive)
REMARK    1  A    between atoms: C_2  and  C_4
REMARK    2  A    between atoms: N_10  and  C_11
REMARK    3  A    between atoms: C_11  and  C_12
REMARK                            x       y       z     vdW  Elec       q    Type
REMARK                         _______ _______ _______ _____ _____    ______ ____
ROOT
ATOM      1  C   UNL     1       2.823   3.659  19.839  0.00  0.00    +0.000 A 
ATOM      2  C   UNL     1       2.052   2.639  19.256  0.00  0.00    +0.000 A 
ATOM      3  C   UNL     1       2.461   2.048  18.074  0.00  0.00    +0.000 A 
ATOM      4  C   UNL     1       3.621   2.503  17.455  0.00  0.00    +0.000 A 
ATOM      5  C   UNL     1       4.398   3.557  18.011  0.00  0.00    +0.000 A 
ATOM      6  C   UNL     1       5.539   4.127  17.400  0.00  0.00    +0.000 A 
ATOM      7  N   UNL     1       6.036   3.651  16.180  0.00  0.00    +0.000 N 
ATOM      8  N   UNL     1       6.249   5.097  18.001  0.00  0.00    +0.000 NA
ATOM      9  C   UNL     1       5.826   5.524  19.184  0.00  0.00    +0.000 A 
ATOM     10  N   UNL     1       4.738   5.096  19.826  0.00  0.00    +0.000 NA
ATOM     11  C   UNL     1       4.009   4.124  19.243  0.00  0.00    +0.000 A 
ATOM     12  H   UNL     1       5.350   3.193  15.593  0.00  0.00    +0.000 HD
ENDROOT
BRANCH   1  14
ATOM     13  N   UNL     1       2.009   5.563  21.152  0.00  0.00    +0.000 N 
ATOM     14  C   UNL     1       2.296   4.228  21.115  0.00  0.00    +0.000 C 
ATOM     15  O   UNL     1       2.139   3.528  22.108  0.00  0.00    +0.000 OA
ATOM     16  H   UNL     1       1.522   5.916  21.964  0.00  0.00    +0.000 HD
ATOM     17  H   UNL     1       1.931   6.079  20.280  0.00  0.00    +0.000 HD
ENDBRANCH   1  14
BRANCH   7  18
ATOM     18  C   UNL     1       6.837   4.599  15.379  0.00  0.00    +0.000 C 
BRANCH  18  19
ATOM     19  C   UNL     1       6.316   4.691  13.933  0.00  0.00    +0.000 C 
ATOM     20  C   UNL     1       5.286   3.639  13.542  0.00  0.00    +0.000 C 
ATOM     21  C   UNL     1       5.510   3.505  12.056  0.00  0.00    +0.000 C 
ATOM     22  C   UNL     1       7.005   3.699  11.930  0.00  0.00    +0.000 C 
ATOM     23  O   UNL     1       7.412   4.555  13.002  0.00  0.00    +0.000 OA
ENDBRANCH  18  19
ENDBRANCH   7  18
TORSDOF 3
ENDMDL
MODEL 3
REMARK VINA RESULT:      -7.5      1.630      2.586
REMARK  Name = 
REMARK  3 active torsions:
REMARK  status: ('A' for Active; 'I' for Inactive)
REMARK    1  A    between atoms: C_2  and  C_4
REMARK    2  A    between atoms: N_10  and  C_11
REMARK    3  A    between atoms: C_11  and  C_12
REMARK                            x       y       z     vdW  Elec       q    Type
REMARK                         _______ _______ _______ _____ _____    ______ ____
ROOT
ATOM      1  C   UNL     1       2.147   4.432  20.142  0.00  0.00    +0.000 A 
ATOM      2  C   UNL     1       1.907   5.780  20.460  0.00  0.00    +0.000 A 
ATOM      3  C   UNL     1       2.446   6.785  19.676  0.00  0.00    +0.000 A 
ATOM      4  C   UNL     1       3.255   6.443  18.597  0.00  0.00    +0.000 A 
ATOM      5  C   UNL     1       3.538   5.086  18.280  0.00  0.00    +0.000 A 
ATOM      6  C   UNL     1       4.415   4.663  17.253  0.00  0.00    +0.000 A 
ATOM      7  N   UNL     1       5.061   5.580  16.413  0.00  0.00    +0.000 N 
ATOM      8  N   UNL     1       4.607   3.361  16.982  0.00  0.00    +0.000 NA
ATOM      9  C   UNL     1       3.961   2.477  17.732  0.00  0.00    +0.000 A 
ATOM     10  N   UNL     1       3.154   2.761  18.755  0.00  0.00    +0.000 NA
ATOM     11  C   UNL     1       2.946   4.060  19.047  0.00  0.00    +0.000 A 
ATOM     12  H   UNL     1       5.189   6.502  16.811  0.00  0.00    +0.000 HD
ENDROOT
BRANCH   1  14
ATOM     13  N   UNL     1       0.459   2.707  20.573  0.00  0.00    +0.000 N 
ATOM     14  C   UNL     1       1.518   3.426  21.048  0.00  0.00    +0.000 C 
ATOM     15  O   UNL     1       1.925   3.257  22.192  0.00  0.00    +0.000 OA
ATOM     16  H   UNL     1       0.128   1.934  21.132  0.00  0.00    +0.000 HD
ATOM     17  H   UNL     1       0.276   2.695  19.573  0.00  0.00    +0.000 HD
ENDBRANCH   1  14
BRANCH   7  18
ATOM     18  C   UNL     1       6.313   5.123  15.778  0.00  0.00    +0.000 C 
BRANCH  18  19
ATOM     19  C   UNL     1       6.179   5.079  14.244  0.00  0.00    +0.000 C 
ATOM     20  C   UNL     1       5.960   3.695  13.647  0.00  0.00    +0.000 C 
ATOM     21  C   UNL     1       6.567   3.837  12.273  0.00  0.00    +0.000 C 
ATOM     22  C   UNL     1       7.732   4.769  12.522  0.00  0.00    +0.000 C 
ATOM     23  O   UNL     1       7.376   5.605  13.628  0.00  0.00    +0.000 OA
ENDBRANCH  18  19
ENDBRANCH   7  18
TORSDOF 3
ENDMDL
MODEL 4
REMARK VINA RESULT:      -7.5      2.580      3.206
REMARK  Name = 
REMARK  3 active torsions:
REMARK  status: ('A' for Active; 'I' for Inactive)
REMARK    1  A    between atoms: C_2  and  C_4
REMARK    2  A    between atoms: N_10  and  C_11
REMARK    3  A    between atoms: C_11  and  C_12
REMARK                            x       y       z     vdW  Elec       q    Type
REMARK                         _______ _______ _______ _____ _____    ______ ____
ROOT
ATOM      1  C   UNL     1       1.519   8.268  20.012  0.00  0.00    +0.000 A 
ATOM      2  C   UNL     1       1.482   9.338  19.101  0.00  0.00    +0.000 A 
ATOM      3  C   UNL     1       2.072   9.210  17.856  0.00  0.00    +0.000 A 
ATOM      4  C   UNL     1       2.731   8.026  17.535  0.00  0.00    +0.000 A 
ATOM      5  C   UNL     1       2.808   6.945  18.456  0.00  0.00    +0.000 A 
ATOM      6  C   UNL     1       3.527   5.747  18.235  0.00  0.00    +0.000 A 
ATOM      7  N   UNL     1       4.206   5.507  17.033  0.00  0.00    +0.000 N 
ATOM      8  N   UNL     1       3.526   4.748  19.135  0.00  0.00    +0.000 NA
ATOM      9  C   UNL     1       2.842   4.935  20.257  0.00  0.00    +0.000 A 
ATOM     10  N   UNL     1       2.174   6.039  20.591  0.00  0.00    +0.000 NA
ATOM     11  C   UNL     1       2.162   7.056  19.706  0.00  0.00    +0.000 A 
ATOM     12  H   UNL     1       4.486   6.341  16.531  0.00  0.00    +0.000 HD
ENDROOT
BRANCH   1  14
ATOM     13  N   UNL     1       1.634   8.843  22.392  0.00  0.00    +0.000 N 
ATOM     14  C   UNL     1       0.851   8.507  21.325  0.00  0.00    +0.000 C 
ATOM     15  O   UNL     1      -0.362   8.390  21.454  0.00  0.00    +0.000 OA
ATOM     16  H   UNL     1       1.172   9.141  23.239  0.00  0.00    +0.000 HD
ATOM     17  H   UNL     1       2.590   9.150  22.229  0.00  0.00    +0.000 HD
ENDBRANCH   1  14
BRANCH   7  18
ATOM     18  C   UNL     1       5.326   4.547  17.090  0.00  0.00    +0.000 C 
BRANCH  18  19
ATOM     19  C   UNL     1       6.679   5.272  17.230  0.00  0.00    +0.000 C 
ATOM     20  C   UNL     1       7.120   5.559  18.659  0.00  0.00    +0.000 C 
ATOM     21  C   UNL     1       7.969   6.795  18.492  0.00  0.00    +0.000 C 
ATOM     22  C   UNL     1       7.262   7.532  17.376  0.00  0.00    +0.000 C 
ATOM     23  O   UNL     1       6.629   6.547  16.554  0.00  0.00    +0.000 OA
ENDBRANCH  18  19
ENDBRANCH   7  18
TORSDOF 3
ENDMDL
MODEL 5
REMARK VINA RESULT:      -7.4      1.872      6.038
REMARK  Name = 
REMARK  3 active torsions:
REMARK  status: ('A' for Active; 'I' for Inactive)
REMARK    1  A    between atoms: C_2  and  C_4
REMARK    2  A    between atoms: N_10  and  C_11
REMARK    3  A    between atoms: C_11  and  C_12
REMARK                            x       y       z     vdW  Elec       q    Type
REMARK                         _______ _______ _______ _____ _____    ______ ____
ROOT
ATOM      1  C   UNL     1       6.489   5.828  17.174  0.00  0.00    +0.000 A 
ATOM      2  C   UNL     1       7.045   4.805  16.387  0.00  0.00    +0.000 A 
ATOM      3  C   UNL     1       6.253   3.761  15.945  0.00  0.00    +0.000 A 
ATOM      4  C   UNL     1       4.913   3.720  16.320  0.00  0.00    +0.000 A 
ATOM      5  C   UNL     1       4.340   4.728  17.143  0.00  0.00    +0.000 A 
ATOM      6  C   UNL     1       3.012   4.712  17.632  0.00  0.00    +0.000 A 
ATOM      7  N   UNL     1       2.117   3.689  17.296  0.00  0.00    +0.000 N 
ATOM      8  N   UNL     1       2.523   5.718  18.377  0.00  0.00    +0.000 NA
ATOM      9  C   UNL     1       3.341   6.725  18.661  0.00  0.00    +0.000 A 
ATOM     10  N   UNL     1       4.621   6.818  18.297  0.00  0.00    +0.000 NA
ATOM     11  C   UNL     1       5.135   5.820  17.551  0.00  0.00    +0.000 A 
ATOM     12  H   UNL     1       2.552   2.810  17.045  0.00  0.00    +0.000 HD
ENDROOT
BRANCH   1  14
ATOM     13  N   UNL     1       8.062   6.775  18.799  0.00  0.00    +0.000 N 
ATOM     14  C   UNL     1       7.428   6.909  17.597  0.00  0.00    +0.000 C 
ATOM     15  O   UNL     1       7.616   7.899  16.899  0.00  0.00    +0.000 OA
ATOM     16  H   UNL     1       8.798   7.431  19.017  0.00  0.00    +0.000 HD
ATOM     17  H   UNL     1       8.072   5.867  19.256  0.00  0.00    +0.000 HD
ENDBRANCH   1  14
BRANCH   7  18
ATOM     18  C   UNL     1       1.001   3.454  18.235  0.00  0.00    +0.000 C 
BRANCH  18  19
ATOM     19  C   UNL     1       1.457   2.626  19.451  0.00  0.00    +0.000 C 
ATOM     20  C   UNL     1       1.306   3.314  20.802  0.00  0.00    +0.000 C 
ATOM     21  C   UNL     1       2.403   2.672  21.615  0.00  0.00    +0.000 C 
ATOM     22  C   UNL     1       3.494   2.463  20.588  0.00  0.00    +0.000 C 
ATOM     23  O   UNL     1       2.854   2.284  19.321  0.00  0.00    +0.000 OA
ENDBRANCH  18  19
ENDBRANCH   7  18
TORSDOF 3
ENDMDL
MODEL 6
REMARK VINA RESULT:      -7.2      3.072      4.722
REMARK  Name = 
REMARK  3 active torsions:
REMARK  status: ('A' for Active; 'I' for Inactive)
REMARK    1  A    between atoms: C_2  and  C_4
REMARK    2  A    between atoms: N_10  and  C_11
REMARK    3  A    between atoms: C_11  and  C_12
REMARK                            x       y       z     vdW  Elec       q    Type
REMARK                         _______ _______ _______ _____ _____    ______ ____
ROOT
ATOM      1  C   UNL     1       3.522   2.892  19.914  0.00  0.00    +0.000 A 
ATOM      2  C   UNL     1       2.582   2.853  20.958  0.00  0.00    +0.000 A 
ATOM      3  C   UNL     1       1.675   3.886  21.115  0.00  0.00    +0.000 A 
ATOM      4  C   UNL     1       1.733   4.976  20.251  0.00  0.00    +0.000 A 
ATOM      5  C   UNL     1       2.698   5.050  19.210  0.00  0.00    +0.000 A 
ATOM      6  C   UNL     1       2.872   6.158  18.348  0.00  0.00    +0.000 A 
ATOM      7  N   UNL     1       2.049   7.289  18.428  0.00  0.00    +0.000 N 
ATOM      8  N   UNL     1       3.781   6.146  17.358  0.00  0.00    +0.000 NA
ATOM      9  C   UNL     1       4.535   5.060  17.231  0.00  0.00    +0.000 A 
ATOM     10  N   UNL     1       4.492   3.984  18.017  0.00  0.00    +0.000 NA
ATOM     11  C   UNL     1       3.589   3.973  19.017  0.00  0.00    +0.000 A 
ATOM     12  H   UNL     1       1.626   7.442  19.335  0.00  0.00    +0.000 HD
ENDROOT
BRANCH   1  14
ATOM     13  N   UNL     1       4.329   0.882  18.765  0.00  0.00    +0.000 N 
ATOM     14  C   UNL     1       4.452   1.728  19.830  0.00  0.00    +0.000 C 
ATOM     15  O   UNL     1       5.294   1.521  20.697  0.00  0.00    +0.000 OA
ATOM     16  H   UNL     1       5.046   0.183  18.636  0.00  0.00    +0.000 HD
ATOM     17  H   UNL     1       3.792   1.180  17.955  0.00  0.00    +0.000 HD
ENDBRANCH   1  14
BRANCH   7  18
ATOM     18  C   UNL     1       2.612   8.552  17.911  0.00  0.00    +0.000 C 
BRANCH  18  19
ATOM     19  C   UNL     1       1.606   9.711  18.045  0.00  0.00    +0.000 C 
ATOM     20  C   UNL     1       2.219  11.105  18.096  0.00  0.00    +0.000 C 
ATOM     21  C   UNL     1       1.205  11.874  18.906  0.00  0.00    +0.000 C 
ATOM     22  C   UNL     1       0.717  10.836  19.893  0.00  0.00    +0.000 C 
ATOM     23  O   UNL     1       0.836   9.559  19.258  0.00  0.00    +0.000 OA
ENDBRANCH  18  19
ENDBRANCH   7  18
TORSDOF 3
ENDMDL
MODEL 7
REMARK VINA RESULT:      -7.2      2.971      4.913
REMARK  Name = 
REMARK  3 active torsions:
REMARK  status: ('A' for Active; 'I' for Inactive)
REMARK    1  A    between atoms: C_2  and  C_4
REMARK    2  A    between atoms: N_10  and  C_11
REMARK    3  A    between atoms: C_11  and  C_12
REMARK                            x       y       z     vdW  Elec       q    Type
REMARK                         _______ _______ _______ _____ _____    ______ ____
ROOT
ATOM      1  C   UNL     1       3.478   2.873  20.115  0.00  0.00    +0.000 A 
ATOM      2  C   UNL     1       2.464   2.767  21.082  0.00  0.00    +0.000 A 
ATOM      3  C   UNL     1       1.484   3.740  21.170  0.00  0.00    +0.000 A 
ATOM      4  C   UNL     1       1.539   4.837  20.316  0.00  0.00    +0.000 A 
ATOM      5  C   UNL     1       2.576   4.979  19.353  0.00  0.00    +0.000 A 
ATOM      6  C   UNL     1       2.746   6.102  18.509  0.00  0.00    +0.000 A 
ATOM      7  N   UNL     1       1.849   7.178  18.528  0.00  0.00    +0.000 N 
ATOM      8  N   UNL     1       3.728   6.154  17.594  0.00  0.00    +0.000 NA
ATOM      9  C   UNL     1       4.557   5.119  17.524  0.00  0.00    +0.000 A 
ATOM     10  N   UNL     1       4.521   4.037  18.301  0.00  0.00    +0.000 NA
ATOM     11  C   UNL     1       3.546   3.962  19.228  0.00  0.00    +0.000 A 
ATOM     12  H   UNL     1       1.348   7.298  19.399  0.00  0.00    +0.000 HD
ENDROOT
BRANCH   1  14
ATOM     13  N   UNL     1       4.469   0.900  19.049  0.00  0.00    +0.000 N 
ATOM     14  C   UNL     1       4.484   1.770  20.101  0.00  0.00    +0.000 C 
ATOM     15  O   UNL     1       5.292   1.634  21.013  0.00  0.00    +0.000 OA
ATOM     16  H   UNL     1       5.234   0.245  18.970  0.00  0.00    +0.000 HD
ATOM     17  H   UNL     1       3.956   1.147  18.207  0.00  0.00    +0.000 HD
ENDBRANCH   1  14
BRANCH   7  18
ATOM     18  C   UNL     1       2.369   8.478  18.059  0.00  0.00    +0.000 C 
BRANCH  18  19
ATOM     19  C   UNL     1       1.532   9.649  18.609  0.00  0.00    +0.000 C 
ATOM     20  C   UNL     1       0.953   9.438  20.002  0.00  0.00    +0.000 C 
ATOM     21  C   UNL     1      -0.291  10.292  19.967  0.00  0.00    +0.000 C 
ATOM     22  C   UNL     1      -0.754  10.139  18.535  0.00  0.00    +0.000 C 
ATOM     23  O   UNL     1       0.411   9.908  17.736  0.00  0.00    +0.000 OA
ENDBRANCH  18  19
ENDBRANCH   7  18
TORSDOF 3
ENDMDL
MODEL 8
REMARK VINA RESULT:      -7.1      3.102      4.845
REMARK  Name = 
REMARK  3 active torsions:
REMARK  status: ('A' for Active; 'I' for Inactive)
REMARK    1  A    between atoms: C_2  and  C_4
REMARK    2  A    between atoms: N_10  and  C_11
REMARK    3  A    between atoms: C_11  and  C_12
REMARK                            x       y       z     vdW  Elec       q    Type
REMARK                         _______ _______ _______ _____ _____    ______ ____
ROOT
ATOM      1  C   UNL     1       2.941   5.806  18.139  0.00  0.00    +0.000 A 
ATOM      2  C   UNL     1       2.085   4.692  18.091  0.00  0.00    +0.000 A 
ATOM      3  C   UNL     1       2.439   3.576  17.353  0.00  0.00    +0.000 A 
ATOM      4  C   UNL     1       3.630   3.587  16.635  0.00  0.00    +0.000 A 
ATOM      5  C   UNL     1       4.494   4.718  16.644  0.00  0.00    +0.000 A 
ATOM      6  C   UNL     1       5.677   4.835  15.877  0.00  0.00    +0.000 A 
ATOM      7  N   UNL     1       6.127   3.795  15.054  0.00  0.00    +0.000 N 
ATOM      8  N   UNL     1       6.468   5.918  15.963  0.00  0.00    +0.000 NA
ATOM      9  C   UNL     1       6.087   6.893  16.780  0.00  0.00    +0.000 A 
ATOM     10  N   UNL     1       4.970   6.910  17.508  0.00  0.00    +0.000 NA
ATOM     11  C   UNL     1       4.159   5.835  17.437  0.00  0.00    +0.000 A 
ATOM     12  H   UNL     1       5.402   3.163  14.734  0.00  0.00    +0.000 HD
ENDROOT
BRANCH   1  14
ATOM     13  N   UNL     1       2.371   8.179  18.365  0.00  0.00    +0.000 N 
ATOM     14  C   UNL     1       2.469   6.956  18.965  0.00  0.00    +0.000 C 
ATOM     15  O   UNL     1       2.191   6.818  20.150  0.00  0.00    +0.000 OA
ATOM     16  H   UNL     1       1.920   8.921  18.882  0.00  0.00    +0.000 HD
ATOM     17  H   UNL     1       2.388   8.238  17.351  0.00  0.00    +0.000 HD
ENDBRANCH   1  14
BRANCH   7  18
ATOM     18  C   UNL     1       7.001   4.177  13.926  0.00  0.00    +0.000 C 
BRANCH  18  19
ATOM     19  C   UNL     1       6.310   3.927  12.572  0.00  0.00    +0.000 C 
ATOM     20  C   UNL     1       4.802   3.727  12.636  0.00  0.00    +0.000 C 
ATOM     21  C   UNL     1       4.542   2.847  11.439  0.00  0.00    +0.000 C 
ATOM     22  C   UNL     1       5.779   1.977  11.396  0.00  0.00    +0.000 C 
ATOM     23  O   UNL     1       6.853   2.742  11.951  0.00  0.00    +0.000 OA
ENDBRANCH  18  19
ENDBRANCH   7  18
TORSDOF 3
ENDMDL
MODEL 9
REMARK VINA RESULT:      -7.1      4.460      6.615
REMARK  Name = 
REMARK  3 active torsions:
REMARK  status: ('A' for Active; 'I' for Inactive)
REMARK    1  A    between atoms: C_2  and  C_4
REMARK    2  A    between atoms: N_10  and  C_11
REMARK    3  A    between atoms: C_11  and  C_12
REMARK                            x       y       z     vdW  Elec       q    Type
REMARK                         _______ _______ _______ _____ _____    ______ ____
ROOT
ATOM      1  C   UNL     1      -0.070  10.669  20.619  0.00  0.00    +0.000 A 
ATOM      2  C   UNL     1      -0.344  10.376  21.966  0.00  0.00    +0.000 A 
ATOM      3  C   UNL     1       0.214   9.257  22.560  0.00  0.00    +0.000 A 
ATOM      4  C   UNL     1       1.015   8.413  21.798  0.00  0.00    +0.000 A 
ATOM      5  C   UNL     1       1.277   8.674  20.424  0.00  0.00    +0.000 A 
ATOM      6  C   UNL     1       2.010   7.822  19.566  0.00  0.00    +0.000 A 
ATOM      7  N   UNL     1       2.593   6.635  20.030  0.00  0.00    +0.000 N 
ATOM      8  N   UNL     1       2.252   8.150  18.285  0.00  0.00    +0.000 NA
ATOM      9  C   UNL     1       1.754   9.298  17.842  0.00  0.00    +0.000 A 
ATOM     10  N   UNL     1       1.008  10.149  18.546  0.00  0.00    +0.000 NA
ATOM     11  C   UNL     1       0.750   9.842  19.833  0.00  0.00    +0.000 A 
ATOM     12  H   UNL     1       2.147   6.235  20.846  0.00  0.00    +0.000 HD
ENDROOT
BRANCH   1  14
ATOM     13  N   UNL     1      -1.618  11.754  19.058  0.00  0.00    +0.000 N 
ATOM     14  C   UNL     1      -0.718  11.899  20.075  0.00  0.00    +0.000 C 
ATOM     15  O   UNL     1      -0.443  13.011  20.512  0.00  0.00    +0.000 OA
ATOM     16  H   UNL     1      -2.157  12.565  18.789  0.00  0.00    +0.000 HD
ATOM     17  H   UNL     1      -1.998  10.833  18.859  0.00  0.00    +0.000 HD
ENDBRANCH   1  14
BRANCH   7  18
ATOM     18  C   UNL     1       2.843   5.586  19.021  0.00  0.00    +0.000 C 
BRANCH  18  19
ATOM     19  C   UNL     1       2.245   4.235  19.458  0.00  0.00    +0.000 C 
ATOM     20  C   UNL     1       1.145   4.317  20.508  0.00  0.00    +0.000 C 
ATOM     21  C   UNL     1       1.277   2.992  21.217  0.00  0.00    +0.000 C 
ATOM     22  C   UNL     1       2.770   2.750  21.187  0.00  0.00    +0.000 C 
ATOM     23  O   UNL     1       3.279   3.393  20.014  0.00  0.00    +0.000 OA
ENDBRANCH  18  19
ENDBRANCH   7  18
TORSDOF 3
ENDMDL
