MODEL 1
REMARK VINA RESULT:      -7.7      0.000      0.000
REMARK  Name = 
REMARK  6 active torsions:
REMARK  status: ('A' for Active; 'I' for Inactive)
REMARK    1  A    between atoms: C_2  and  O_3
REMARK    2  A    between atoms: C_2  and  C_4
REMARK    3  A    between atoms: C_5  and  C_6
REMARK    4  A    between atoms: C_5  and  C_15
REMARK    5  A    between atoms: C_6  and  C_7
REMARK    6  A    between atoms: C_7  and  C_8
REMARK                            x       y       z     vdW  Elec       q    Type
REMARK                         _______ _______ _______ _____ _____    ______ ____
ROOT
ATOM      1  C   UNL     1       7.233   5.039  16.724  0.00  0.00    +0.000 C 
ATOM      2  C   UNL     1       6.307   5.420  15.817  0.00  0.00    +0.000 C 
ENDROOT
BRANCH   2   3
ATOM      3  C   UNL     1       6.519   4.828  14.476  0.00  0.00    +0.000 A 
ATOM      4  C   UNL     1       7.561   5.303  13.668  0.00  0.00    +0.000 A 
ATOM      5  C   UNL     1       7.713   4.842  12.364  0.00  0.00    +0.000 A 
ATOM      6  C   UNL     1       6.821   3.895  11.856  0.00  0.00    +0.000 A 
ATOM      7  C   UNL     1       5.785   3.410  12.652  0.00  0.00    +0.000 A 
ATOM      8  C   UNL     1       5.631   3.876  13.960  0.00  0.00    +0.000 A 
ENDBRANCH   2   3
BRANCH   1  10
ATOM      9  O   UNL     1       6.870   4.559  19.046  0.00  0.00    +0.000 OA
ATOM     10  C   UNL     1       7.282   5.303  18.177  0.00  0.00    +0.000 C 
BRANCH  10  11
ATOM     11  O   UNL     1       7.907   6.470  18.445  0.00  0.00    +0.000 OA
ATOM     12  H   UNL     1       8.230   6.577  19.359  0.00  0.00    +0.000 HD
ENDBRANCH  10  11
ENDBRANCH   1  10
BRANCH   2  13
ATOM     13  C   UNL     1       5.088   6.335  15.924  0.00  0.00    +0.000 C 
BRANCH  13  14
ATOM     14  C   UNL     1       4.349   6.281  17.267  0.00  0.00    +0.000 C 
BRANCH  14  15
ATOM     15  C   UNL     1       3.558   5.053  17.663  0.00  0.00    +0.000 A 
ATOM     16  C   UNL     1       3.509   3.858  16.940  0.00  0.00    +0.000 A 
ATOM     17  C   UNL     1       2.663   2.818  17.346  0.00  0.00    +0.000 A 
ATOM     18  C   UNL     1       1.847   2.966  18.470  0.00  0.00    +0.000 A 
ATOM     19  C   UNL     1       1.889   4.148  19.197  0.00  0.00    +0.000 A 
ATOM     20 CL   UNL     1       0.882   4.356  20.575  0.00  0.00    +0.000 Cl
ATOM     21  C   UNL     1       2.734   5.180  18.799  0.00  0.00    +0.000 A 
ENDBRANCH  14  15
ENDBRANCH  13  14
ENDBRANCH   2  13
TORSDOF 6
ENDMDL
MODEL 2
REMARK VINA RESULT:      -7.7      3.500      6.813
REMARK  Name = 
REMARK  6 active torsions:
REMARK  status: ('A' for Active; 'I' for Inactive)
REMARK    1  A    between atoms: C_2  and  O_3
REMARK    2  A    between atoms: C_2  and  C_4
REMARK    3  A    between atoms: C_5  and  C_6
REMARK    4  A    between atoms: C_5  and  C_15
REMARK    5  A    between atoms: C_6  and  C_7
REMARK    6  A    between atoms: C_7  and  C_8
REMARK                            x       y       z     vdW  Elec       q    Type
REMARK                         _______ _______ _______ _____ _____    ______ ____
ROOT
ATOM      1  C   UNL     1       1.530   5.034  20.510  0.00  0.00    +0.000 C 
ATOM      2  C   UNL     1       2.553   5.712  19.945  0.00  0.00    +0.000 C 
ENDROOT
BRANCH   2   3
ATOM      3  C   UNL     1       2.197   7.096  19.555  0.00  0.00    +0.000 A 
ATOM      4  C   UNL     1       1.513   7.916  20.463  0.00  0.00    +0.000 A 
ATOM      5  C   UNL     1       1.071   9.180  20.082  0.00  0.00    +0.000 A 
ATOM      6  C   UNL     1       1.314   9.637  18.785  0.00  0.00    +0.000 A 
ATOM      7  C   UNL     1       1.999   8.833  17.876  0.00  0.00    +0.000 A 
ATOM      8  C   UNL     1       2.440   7.564  18.258  0.00  0.00    +0.000 A 
ENDBRANCH   2   3
BRANCH   1  10
ATOM      9  O   UNL     1       2.235   3.356  22.072  0.00  0.00    +0.000 OA
ATOM     10  C   UNL     1       1.530   3.699  21.143  0.00  0.00    +0.000 C 
BRANCH  10  11
ATOM     11  O   UNL     1       0.591   2.895  20.599  0.00  0.00    +0.000 OA
ATOM     12  H   UNL     1       0.443   2.048  21.057  0.00  0.00    +0.000 HD
ENDBRANCH  10  11
ENDBRANCH   1  10
BRANCH   2  13
ATOM     13  C   UNL     1       3.998   5.318  19.646  0.00  0.00    +0.000 C 
BRANCH  13  14
ATOM     14  C   UNL     1       4.167   4.213  18.594  0.00  0.00    +0.000 C 
BRANCH  14  15
ATOM     15  C   UNL     1       5.268   4.295  17.560  0.00  0.00    +0.000 A 
ATOM     16  C   UNL     1       6.592   4.660  17.820  0.00  0.00    +0.000 A 
ATOM     17  C   UNL     1       7.508   4.801  16.768  0.00  0.00    +0.000 A 
ATOM     18  C   UNL     1       7.108   4.592  15.447  0.00  0.00    +0.000 A 
ATOM     19  C   UNL     1       5.796   4.227  15.178  0.00  0.00    +0.000 A 
ATOM     20 CL   UNL     1       5.279   3.980  13.556  0.00  0.00    +0.000 Cl
ATOM     21  C   UNL     1       4.886   4.080  16.221  0.00  0.00    +0.000 A 
ENDBRANCH  14  15
ENDBRANCH  13  14
ENDBRANCH   2  13
TORSDOF 6
ENDMDL
MODEL 3
REMARK VINA RESULT:      -7.7      1.013      1.938
REMARK  Name = 
REMARK  6 active torsions:
REMARK  status: ('A' for Active; 'I' for Inactive)
REMARK    1  A    between atoms: C_2  and  O_3
REMARK    2  A    between atoms: C_2  and  C_4
REMARK    3  A    between atoms: C_5  and  C_6
REMARK    4  A    between atoms: C_5  and  C_15
REMARK    5  A    between atoms: C_6  and  C_7
REMARK    6  A    between atoms: C_7  and  C_8
REMARK                            x       y       z     vdW  Elec       q    Type
REMARK                         _______ _______ _______ _____ _____    ______ ____
ROOT
ATOM      1  C   UNL     1       7.229   5.362  16.769  0.00  0.00    +0.000 C 
ATOM      2  C   UNL     1       6.158   4.908  16.081  0.00  0.00    +0.000 C 
ENDROOT
BRANCH   2   3
ATOM      3  C   UNL     1       6.427   4.709  14.639  0.00  0.00    +0.000 A 
ATOM      4  C   UNL     1       5.670   3.776  13.917  0.00  0.00    +0.000 A 
ATOM      5  C   UNL     1       5.975   3.491  12.589  0.00  0.00    +0.000 A 
ATOM      6  C   UNL     1       7.044   4.143  11.969  0.00  0.00    +0.000 A 
ATOM      7  C   UNL     1       7.799   5.077  12.674  0.00  0.00    +0.000 A 
ATOM      8  C   UNL     1       7.494   5.361  14.008  0.00  0.00    +0.000 A 
ENDBRANCH   2   3
BRANCH   1  10
ATOM      9  O   UNL     1       7.095   4.739  19.082  0.00  0.00    +0.000 OA
ATOM     10  C   UNL     1       7.393   5.550  18.226  0.00  0.00    +0.000 C 
BRANCH  10  11
ATOM     11  O   UNL     1       7.981   6.732  18.508  0.00  0.00    +0.000 OA
ATOM     12  H   UNL     1       8.945   6.769  18.365  0.00  0.00    +0.000 HD
ENDBRANCH  10  11
ENDBRANCH   1  10
BRANCH   2  13
ATOM     13  C   UNL     1       4.736   4.560  16.518  0.00  0.00    +0.000 C 
BRANCH  13  14
ATOM     14  C   UNL     1       4.003   5.664  17.291  0.00  0.00    +0.000 C 
BRANCH  14  15
ATOM     15  C   UNL     1       2.982   5.314  18.352  0.00  0.00    +0.000 A 
ATOM     16  C   UNL     1       2.793   6.008  19.550  0.00  0.00    +0.000 A 
ATOM     17  C   UNL     1       1.884   5.537  20.507  0.00  0.00    +0.000 A 
ATOM     18  C   UNL     1       1.166   4.361  20.283  0.00  0.00    +0.000 A 
ATOM     19  C   UNL     1       1.344   3.664  19.096  0.00  0.00    +0.000 A 
ATOM     20 CL   UNL     1       0.480   2.205  18.807  0.00  0.00    +0.000 Cl
ATOM     21  C   UNL     1       2.241   4.134  18.140  0.00  0.00    +0.000 A 
ENDBRANCH  14  15
ENDBRANCH  13  14
ENDBRANCH   2  13
TORSDOF 6
ENDMDL
MODEL 4
REMARK VINA RESULT:      -7.6      2.476      6.034
REMARK  Name = 
REMARK  6 active torsions:
REMARK  status: ('A' for Active; 'I' for Inactive)
REMARK    1  A    between atoms: C_2  and  O_3
REMARK    2  A    between atoms: C_2  and  C_4
REMARK    3  A    between atoms: C_5  and  C_6
REMARK    4  A    between atoms: C_5  and  C_15
REMARK    5  A    between atoms: C_6  and  C_7
REMARK    6  A    between atoms: C_7  and  C_8
REMARK                            x       y       z     vdW  Elec       q    Type
REMARK                         _______ _______ _______ _____ _____    ______ ____
ROOT
ATOM      1  C   UNL     1       6.131   5.324  19.224  0.00  0.00    +0.000 C 
ATOM      2  C   UNL     1       5.398   5.266  18.091  0.00  0.00    +0.000 C 
ENDROOT
BRANCH   2   3
ATOM      3  C   UNL     1       3.991   4.864  18.319  0.00  0.00    +0.000 A 
ATOM      4  C   UNL     1       3.328   5.296  19.477  0.00  0.00    +0.000 A 
ATOM      5  C   UNL     1       2.045   4.843  19.769  0.00  0.00    +0.000 A 
ATOM      6  C   UNL     1       1.410   3.953  18.900  0.00  0.00    +0.000 A 
ATOM      7  C   UNL     1       2.056   3.522  17.743  0.00  0.00    +0.000 A 
ATOM      8  C   UNL     1       3.346   3.975  17.451  0.00  0.00    +0.000 A 
ENDBRANCH   2   3
BRANCH   1  10
ATOM      9  O   UNL     1       8.106   6.574  18.684  0.00  0.00    +0.000 OA
ATOM     10  C   UNL     1       7.513   5.809  19.420  0.00  0.00    +0.000 C 
BRANCH  10  11
ATOM     11  O   UNL     1       8.041   5.341  20.571  0.00  0.00    +0.000 OA
ATOM     12  H   UNL     1       7.939   5.919  21.349  0.00  0.00    +0.000 HD
ENDBRANCH  10  11
ENDBRANCH   1  10
BRANCH   2  13
ATOM     13  C   UNL     1       5.752   5.544  16.630  0.00  0.00    +0.000 C 
BRANCH  13  14
ATOM     14  C   UNL     1       6.765   4.574  16.010  0.00  0.00    +0.000 C 
BRANCH  14  15
ATOM     15  C   UNL     1       6.971   4.530  14.511  0.00  0.00    +0.000 A 
ATOM     16  C   UNL     1       7.788   5.400  13.784  0.00  0.00    +0.000 A 
ATOM     17  C   UNL     1       7.828   5.332  12.384  0.00  0.00    +0.000 A 
ATOM     18  C   UNL     1       7.042   4.404  11.698  0.00  0.00    +0.000 A 
ATOM     19  C   UNL     1       6.229   3.534  12.410  0.00  0.00    +0.000 A 
ATOM     20 CL   UNL     1       5.241   2.394  11.583  0.00  0.00    +0.000 Cl
ATOM     21  C   UNL     1       6.193   3.595  13.800  0.00  0.00    +0.000 A 
ENDBRANCH  14  15
ENDBRANCH  13  14
ENDBRANCH   2  13
TORSDOF 6
ENDMDL
MODEL 5
REMARK VINA RESULT:      -7.6      3.377      6.562
REMARK  Name = 
REMARK  6 active torsions:
REMARK  status: ('A' for Active; 'I' for Inactive)
REMARK    1  A    between atoms: C_2  and  O_3
REMARK    2  A    between atoms: C_2  and  C_4
REMARK    3  A    between atoms: C_5  and  C_6
REMARK    4  A    between atoms: C_5  and  C_15
REMARK    5  A    between atoms: C_6  and  C_7
REMARK    6  A    between atoms: C_7  and  C_8
REMARK                            x       y       z     vdW  Elec       q    Type
REMARK                         _______ _______ _______ _____ _____    ______ ____
ROOT
ATOM      1  C   UNL     1       2.098   4.336  20.989  0.00  0.00    +0.000 C 
ATOM      2  C   UNL     1       2.140   4.664  19.679  0.00  0.00    +0.000 C 
ENDROOT
BRANCH   2   3
ATOM      3  C   UNL     1       2.131   6.125  19.437  0.00  0.00    +0.000 A 
ATOM      4  C   UNL     1       1.693   6.990  20.449  0.00  0.00    +0.000 A 
ATOM      5  C   UNL     1       1.571   8.356  20.210  0.00  0.00    +0.000 A 
ATOM      6  C   UNL     1       1.890   8.869  18.951  0.00  0.00    +0.000 A 
ATOM      7  C   UNL     1       2.333   8.020  17.939  0.00  0.00    +0.000 A 
ATOM      8  C   UNL     1       2.452   6.649  18.178  0.00  0.00    +0.000 A 
ENDBRANCH   2   3
BRANCH   1  10
ATOM      9  O   UNL     1       1.338   2.409  22.198  0.00  0.00    +0.000 OA
ATOM     10  C   UNL     1       2.227   3.009  21.625  0.00  0.00    +0.000 C 
BRANCH  10  11
ATOM     11  O   UNL     1       3.462   2.493  21.444  0.00  0.00    +0.000 OA
ATOM     12  H   UNL     1       3.495   1.551  21.195  0.00  0.00    +0.000 HD
ENDBRANCH  10  11
ENDBRANCH   1  10
BRANCH   2  13
ATOM     13  C   UNL     1       2.202   3.809  18.414  0.00  0.00    +0.000 C 
BRANCH  13  14
ATOM     14  C   UNL     1       3.538   3.094  18.175  0.00  0.00    +0.000 C 
BRANCH  14  15
ATOM     15  C   UNL     1       4.806   3.887  17.943  0.00  0.00    +0.000 A 
ATOM     16  C   UNL     1       5.516   4.579  18.928  0.00  0.00    +0.000 A 
ATOM     17  C   UNL     1       6.624   5.364  18.584  0.00  0.00    +0.000 A 
ATOM     18  C   UNL     1       7.025   5.478  17.251  0.00  0.00    +0.000 A 
ATOM     19  C   UNL     1       6.328   4.793  16.265  0.00  0.00    +0.000 A 
ATOM     20 CL   UNL     1       6.797   4.932  14.615  0.00  0.00    +0.000 Cl
ATOM     21  C   UNL     1       5.232   4.007  16.605  0.00  0.00    +0.000 A 
ENDBRANCH  14  15
ENDBRANCH  13  14
ENDBRANCH   2  13
TORSDOF 6
ENDMDL
MODEL 6
REMARK VINA RESULT:      -7.6      1.271      1.849
REMARK  Name = 
REMARK  6 active torsions:
REMARK  status: ('A' for Active; 'I' for Inactive)
REMARK    1  A    between atoms: C_2  and  O_3
REMARK    2  A    between atoms: C_2  and  C_4
REMARK    3  A    between atoms: C_5  and  C_6
REMARK    4  A    between atoms: C_5  and  C_15
REMARK    5  A    between atoms: C_6  and  C_7
REMARK    6  A    between atoms: C_7  and  C_8
REMARK                            x       y       z     vdW  Elec       q    Type
REMARK                         _______ _______ _______ _____ _____    ______ ____
ROOT
ATOM      1  C   UNL     1       7.341   5.245  16.661  0.00  0.00    +0.000 C 
ATOM      2  C   UNL     1       6.277   5.536  15.881  0.00  0.00    +0.000 C 
ENDROOT
BRANCH   2   3
ATOM      3  C   UNL     1       6.369   4.959  14.521  0.00  0.00    +0.000 A 
ATOM      4  C   UNL     1       5.385   4.062  14.083  0.00  0.00    +0.000 A 
ATOM      5  C   UNL     1       5.507   3.422  12.853  0.00  0.00    +0.000 A 
ATOM      6  C   UNL     1       6.618   3.677  12.046  0.00  0.00    +0.000 A 
ATOM      7  C   UNL     1       7.599   4.572  12.468  0.00  0.00    +0.000 A 
ATOM      8  C   UNL     1       7.478   5.212  13.704  0.00  0.00    +0.000 A 
ENDBRANCH   2   3
BRANCH   1  10
ATOM      9  O   UNL     1       7.509   4.695  18.990  0.00  0.00    +0.000 OA
ATOM     10  C   UNL     1       7.550   5.520  18.098  0.00  0.00    +0.000 C 
BRANCH  10  11
ATOM     11  O   UNL     1       7.860   6.817  18.312  0.00  0.00    +0.000 OA
ATOM     12  H   UNL     1       8.798   7.002  18.499  0.00  0.00    +0.000 HD
ENDBRANCH  10  11
ENDBRANCH   1  10
BRANCH   2  13
ATOM     13  C   UNL     1       5.006   6.341  16.147  0.00  0.00    +0.000 C 
BRANCH  13  14
ATOM     14  C   UNL     1       4.352   6.094  17.513  0.00  0.00    +0.000 C 
BRANCH  14  15
ATOM     15  C   UNL     1       3.400   4.935  17.712  0.00  0.00    +0.000 A 
ATOM     16  C   UNL     1       2.011   5.043  17.828  0.00  0.00    +0.000 A 
ATOM     17  C   UNL     1       1.233   3.912  18.111  0.00  0.00    +0.000 A 
ATOM     18  C   UNL     1       1.835   2.667  18.296  0.00  0.00    +0.000 A 
ATOM     19  C   UNL     1       3.213   2.547  18.181  0.00  0.00    +0.000 A 
ATOM     20 CL   UNL     1       3.976   1.024  18.420  0.00  0.00    +0.000 Cl
ATOM     21  C   UNL     1       3.988   3.667  17.893  0.00  0.00    +0.000 A 
ENDBRANCH  14  15
ENDBRANCH  13  14
ENDBRANCH   2  13
TORSDOF 6
ENDMDL
MODEL 7
REMARK VINA RESULT:      -7.5      3.142      5.979
REMARK  Name = 
REMARK  6 active torsions:
REMARK  status: ('A' for Active; 'I' for Inactive)
REMARK    1  A    between atoms: C_2  and  O_3
REMARK    2  A    between atoms: C_2  and  C_4
REMARK    3  A    between atoms: C_5  and  C_6
REMARK    4  A    between atoms: C_5  and  C_15
REMARK    5  A    between atoms: C_6  and  C_7
REMARK    6  A    between atoms: C_7  and  C_8
REMARK                            x       y       z     vdW  Elec       q    Type
REMARK                         _______ _______ _______ _____ _____    ______ ____
ROOT
ATOM      1  C   UNL     1       4.364   3.834  17.043  0.00  0.00    +0.000 C 
ATOM      2  C   UNL     1       3.896   4.753  17.915  0.00  0.00    +0.000 C 
ENDROOT
BRANCH   2   3
ATOM      3  C   UNL     1       2.911   4.205  18.875  0.00  0.00    +0.000 A 
ATOM      4  C   UNL     1       3.336   3.812  20.152  0.00  0.00    +0.000 A 
ATOM      5  C   UNL     1       2.454   3.193  21.033  0.00  0.00    +0.000 A 
ATOM      6  C   UNL     1       1.133   2.964  20.644  0.00  0.00    +0.000 A 
ATOM      7  C   UNL     1       0.697   3.357  19.380  0.00  0.00    +0.000 A 
ATOM      8  C   UNL     1       1.583   3.976  18.494  0.00  0.00    +0.000 A 
ENDBRANCH   2   3
BRANCH   1  10
ATOM      9  O   UNL     1       5.282   4.191  14.855  0.00  0.00    +0.000 OA
ATOM     10  C   UNL     1       5.441   3.961  16.039  0.00  0.00    +0.000 C 
BRANCH  10  11
ATOM     11  O   UNL     1       6.661   3.848  16.607  0.00  0.00    +0.000 OA
ATOM     12  H   UNL     1       7.398   3.669  15.995  0.00  0.00    +0.000 HD
ENDBRANCH  10  11
ENDBRANCH   1  10
BRANCH   2  13
ATOM     13  C   UNL     1       4.199   6.240  18.092  0.00  0.00    +0.000 C 
BRANCH  13  14
ATOM     14  C   UNL     1       3.050   7.188  17.723  0.00  0.00    +0.000 C 
BRANCH  14  15
ATOM     15  C   UNL     1       2.260   7.897  18.802  0.00  0.00    +0.000 A 
ATOM     16  C   UNL     1       2.046   7.411  20.095  0.00  0.00    +0.000 A 
ATOM     17  C   UNL     1       1.213   8.105  20.984  0.00  0.00    +0.000 A 
ATOM     18  C   UNL     1       0.576   9.281  20.585  0.00  0.00    +0.000 A 
ATOM     19  C   UNL     1       0.783   9.774  19.304  0.00  0.00    +0.000 A 
ATOM     20 CL   UNL     1      -0.005  11.214  18.789  0.00  0.00    +0.000 Cl
ATOM     21  C   UNL     1       1.615   9.091  18.422  0.00  0.00    +0.000 A 
ENDBRANCH  14  15
ENDBRANCH  13  14
ENDBRANCH   2  13
TORSDOF 6
ENDMDL
MODEL 8
REMARK VINA RESULT:      -7.5      3.416      6.061
REMARK  Name = 
REMARK  6 active torsions:
REMARK  status: ('A' for Active; 'I' for Inactive)
REMARK    1  A    between atoms: C_2  and  O_3
REMARK    2  A    between atoms: C_2  and  C_4
REMARK    3  A    between atoms: C_5  and  C_6
REMARK    4  A    between atoms: C_5  and  C_15
REMARK    5  A    between atoms: C_6  and  C_7
REMARK    6  A    between atoms: C_7  and  C_8
REMARK                            x       y       z     vdW  Elec       q    Type
REMARK                         _______ _______ _______ _____ _____    ______ ____
ROOT
ATOM      1  C   UNL     1       1.968   6.708  20.220  0.00  0.00    +0.000 C 
ATOM      2  C   UNL     1       2.328   6.262  18.996  0.00  0.00    +0.000 C 
ENDROOT
BRANCH   2   3
ATOM      3  C   UNL     1       2.476   4.790  18.927  0.00  0.00    +0.000 A 
ATOM      4  C   UNL     1       3.022   4.098  20.017  0.00  0.00    +0.000 A 
ATOM      5  C   UNL     1       3.273   2.732  19.935  0.00  0.00    +0.000 A 
ATOM      6  C   UNL     1       2.977   2.043  18.757  0.00  0.00    +0.000 A 
ATOM      7  C   UNL     1       2.428   2.718  17.669  0.00  0.00    +0.000 A 
ATOM      8  C   UNL     1       2.178   4.090  17.751  0.00  0.00    +0.000 A 
ENDBRANCH   2   3
BRANCH   1  10
ATOM      9  O   UNL     1       1.055   8.909  19.946  0.00  0.00    +0.000 OA
ATOM     10  C   UNL     1       1.596   8.073  20.644  0.00  0.00    +0.000 C 
BRANCH  10  11
ATOM     11  O   UNL     1       1.877   8.278  21.949  0.00  0.00    +0.000 OA
ATOM     12  H   UNL     1       2.520   8.986  22.137  0.00  0.00    +0.000 HD
ENDBRANCH  10  11
ENDBRANCH   1  10
BRANCH   2  13
ATOM     13  C   UNL     1       2.600   6.992  17.682  0.00  0.00    +0.000 C 
BRANCH  13  14
ATOM     14  C   UNL     1       4.066   7.373  17.440  0.00  0.00    +0.000 C 
BRANCH  14  15
ATOM     15  C   UNL     1       5.121   6.302  17.263  0.00  0.00    +0.000 A 
ATOM     16  C   UNL     1       6.015   5.879  18.251  0.00  0.00    +0.000 A 
ATOM     17  C   UNL     1       7.018   4.949  17.948  0.00  0.00    +0.000 A 
ATOM     18  C   UNL     1       7.148   4.444  16.653  0.00  0.00    +0.000 A 
ATOM     19  C   UNL     1       6.265   4.856  15.664  0.00  0.00    +0.000 A 
ATOM     20 CL   UNL     1       6.418   4.257  14.059  0.00  0.00    +0.000 Cl
ATOM     21  C   UNL     1       5.263   5.774  15.964  0.00  0.00    +0.000 A 
ENDBRANCH  14  15
ENDBRANCH  13  14
ENDBRANCH   2  13
TORSDOF 6
ENDMDL
MODEL 9
REMARK VINA RESULT:      -7.5      3.536      6.721
REMARK  Name = 
REMARK  6 active torsions:
REMARK  status: ('A' for Active; 'I' for Inactive)
REMARK    1  A    between atoms: C_2  and  O_3
REMARK    2  A    between atoms: C_2  and  C_4
REMARK    3  A    between atoms: C_5  and  C_6
REMARK    4  A    between atoms: C_5  and  C_15
REMARK    5  A    between atoms: C_6  and  C_7
REMARK    6  A    between atoms: C_7  and  C_8
REMARK                            x       y       z     vdW  Elec       q    Type
REMARK                         _______ _______ _______ _____ _____    ______ ____
ROOT
ATOM      1  C   UNL     1       1.905   4.105  21.101  0.00  0.00    +0.000 C 
ATOM      2  C   UNL     1       2.456   4.475  19.925  0.00  0.00    +0.000 C 
ENDROOT
BRANCH   2   3
ATOM      3  C   UNL     1       2.213   5.896  19.583  0.00  0.00    +0.000 A 
ATOM      4  C   UNL     1       2.535   6.362  18.301  0.00  0.00    +0.000 A 
ATOM      5  C   UNL     1       2.420   7.714  17.989  0.00  0.00    +0.000 A 
ATOM      6  C   UNL     1       1.977   8.614  18.962  0.00  0.00    +0.000 A 
ATOM      7  C   UNL     1       1.648   8.160  20.237  0.00  0.00    +0.000 A 
ATOM      8  C   UNL     1       1.766   6.804  20.551  0.00  0.00    +0.000 A 
ENDBRANCH   2   3
BRANCH   1  10
ATOM      9  O   UNL     1       3.081   2.232  22.029  0.00  0.00    +0.000 OA
ATOM     10  C   UNL     1       2.040   2.831  21.837  0.00  0.00    +0.000 C 
BRANCH  10  11
ATOM     11  O   UNL     1       0.855   2.421  22.337  0.00  0.00    +0.000 OA
ATOM     12  H   UNL     1       0.286   1.923  21.723  0.00  0.00    +0.000 HD
ENDBRANCH  10  11
ENDBRANCH   1  10
BRANCH   2  13
ATOM     13  C   UNL     1       3.282   3.705  18.896  0.00  0.00    +0.000 C 
BRANCH  13  14
ATOM     14  C   UNL     1       4.787   3.639  19.186  0.00  0.00    +0.000 C 
BRANCH  14  15
ATOM     15  C   UNL     1       5.756   4.526  18.434  0.00  0.00    +0.000 A 
ATOM     16  C   UNL     1       6.554   5.518  19.010  0.00  0.00    +0.000 A 
ATOM     17  C   UNL     1       7.344   6.350  18.204  0.00  0.00    +0.000 A 
ATOM     18  C   UNL     1       7.332   6.208  16.815  0.00  0.00    +0.000 A 
ATOM     19  C   UNL     1       6.544   5.225  16.232  0.00  0.00    +0.000 A 
ATOM     20 CL   UNL     1       6.505   5.044  14.522  0.00  0.00    +0.000 Cl
ATOM     21  C   UNL     1       5.765   4.393  17.031  0.00  0.00    +0.000 A 
ENDBRANCH  14  15
ENDBRANCH  13  14
ENDBRANCH   2  13
TORSDOF 6
ENDMDL
