MODEL 1
REMARK VINA RESULT:      -8.0      0.000      0.000
REMARK  Name = 
REMARK  3 active torsions:
REMARK  status: ('A' for Active; 'I' for Inactive)
REMARK    1  A    between atoms: N_3  and  N_4
REMARK    2  A    between atoms: N_15  and  N_16
REMARK    3  A    between atoms: C_17  and  C_18
REMARK                            x       y       z     vdW  Elec       q    Type
REMARK                         _______ _______ _______ _____ _____    ______ ____
ROOT
ATOM      1  O   UNL     1      -1.067  13.525  19.150  0.00  0.00    +0.000 OA
ATOM      2  C   UNL     1      -1.036  12.828  20.158  0.00  0.00    +0.000 C 
ATOM      3  N   UNL     1       0.177  12.535  20.761  0.00  0.00    +0.000 N 
ATOM      4  N   UNL     1      -2.126  12.262  20.796  0.00  0.00    +0.000 N 
ATOM      5  H   UNL     1       0.938  13.145  20.508  0.00  0.00    +0.000 HD
ATOM      6  H   UNL     1      -1.954  11.977  21.754  0.00  0.00    +0.000 HD
ENDROOT
BRANCH   3   7
ATOM      7  N   UNL     1       0.317  11.557  21.691  0.00  0.00    +0.000 NA
ATOM      8  C   UNL     1       0.710  10.369  21.338  0.00  0.00    +0.000 C 
ATOM      9  C   UNL     1       0.977   9.311  22.431  0.00  0.00    +0.000 C 
ATOM     10  O   UNL     1       0.753   9.433  23.614  0.00  0.00    +0.000 OA
ATOM     11  N   UNL     1       1.541   8.242  21.782  0.00  0.00    +0.000 N 
ATOM     12  C   UNL     1       1.611   8.469  20.414  0.00  0.00    +0.000 A 
ATOM     13  C   UNL     1       2.142   7.595  19.486  0.00  0.00    +0.000 A 
ATOM     14  C   UNL     1       2.119   7.985  18.147  0.00  0.00    +0.000 A 
ATOM     15  C   UNL     1       1.543   9.212  17.773  0.00  0.00    +0.000 A 
ATOM     16  C   UNL     1       1.005  10.086  18.731  0.00  0.00    +0.000 A 
ATOM     17  C   UNL     1       1.076   9.716  20.064  0.00  0.00    +0.000 A 
ATOM     18  H   UNL     1       1.860   7.415  22.264  0.00  0.00    +0.000 HD
ENDBRANCH   3   7
BRANCH   4  19
ATOM     19  N   UNL     1      -3.452  12.681  20.479  0.00  0.00    +0.000 N 
ATOM     20  C   UNL     1      -4.034  13.792  21.121  0.00  0.00    +0.000 A 
ATOM     21  N   UNL     1      -5.197  14.266  20.763  0.00  0.00    +0.000 NA
ATOM     22  C   UNL     1      -5.885  13.666  19.701  0.00  0.00    +0.000 A 
ATOM     23  C   UNL     1      -7.131  14.175  19.319  0.00  0.00    +0.000 A 
ATOM     24  C   UNL     1      -7.806  13.656  18.210  0.00  0.00    +0.000 A 
ATOM     25  C   UNL     1      -7.253  12.605  17.480  0.00  0.00    +0.000 A 
ATOM     26  C   UNL     1      -6.021  12.076  17.862  0.00  0.00    +0.000 A 
ATOM     27  C   UNL     1      -5.345  12.619  18.961  0.00  0.00    +0.000 A 
ATOM     28  C   UNL     1      -4.000  12.147  19.310  0.00  0.00    +0.000 A 
ATOM     29  O   UNL     1      -3.419  11.404  18.519  0.00  0.00    +0.000 OA
BRANCH  20  30
ATOM     30  C   UNL     1      -3.298  14.536  22.198  0.00  0.00    +0.000 A 
ATOM     31  C   UNL     1      -2.552  15.679  21.855  0.00  0.00    +0.000 A 
ATOM     32  C   UNL     1      -1.767  16.333  22.811  0.00  0.00    +0.000 A 
ATOM     33  C   UNL     1      -1.709  15.844  24.114  0.00  0.00    +0.000 A 
ATOM     34  C   UNL     1      -2.484  14.748  24.473  0.00  0.00    +0.000 A 
ATOM     35  C   UNL     1      -3.305  14.122  23.535  0.00  0.00    +0.000 A 
ENDBRANCH  20  30
ENDBRANCH   4  19
TORSDOF 3
ENDMDL
MODEL 2
REMARK VINA RESULT:      -7.8      2.730      5.453
REMARK  Name = 
REMARK  3 active torsions:
REMARK  status: ('A' for Active; 'I' for Inactive)
REMARK    1  A    between atoms: N_3  and  N_4
REMARK    2  A    between atoms: N_15  and  N_16
REMARK    3  A    between atoms: C_17  and  C_18
REMARK                            x       y       z     vdW  Elec       q    Type
REMARK                         _______ _______ _______ _____ _____    ______ ____
ROOT
ATOM      1  O   UNL     1       1.225  11.284  18.326  0.00  0.00    +0.000 OA
ATOM      2  C   UNL     1       1.052  10.318  19.063  0.00  0.00    +0.000 C 
ATOM      3  N   UNL     1       1.901   9.225  18.985  0.00  0.00    +0.000 N 
ATOM      4  N   UNL     1       0.053  10.180  20.010  0.00  0.00    +0.000 N 
ATOM      5  H   UNL     1       2.783   9.401  18.531  0.00  0.00    +0.000 HD
ATOM      6  H   UNL     1       0.233   9.474  20.715  0.00  0.00    +0.000 HD
ENDROOT
BRANCH   3   7
ATOM      7  N   UNL     1       1.609   8.029  19.553  0.00  0.00    +0.000 NA
ATOM      8  C   UNL     1       2.255   6.959  19.194  0.00  0.00    +0.000 C 
ATOM      9  C   UNL     1       1.988   5.635  19.943  0.00  0.00    +0.000 C 
ATOM     10  O   UNL     1       1.139   5.448  20.785  0.00  0.00    +0.000 OA
ATOM     11  N   UNL     1       2.925   4.749  19.474  0.00  0.00    +0.000 N 
ATOM     12  C   UNL     1       3.710   5.329  18.488  0.00  0.00    +0.000 A 
ATOM     13  C   UNL     1       4.753   4.708  17.828  0.00  0.00    +0.000 A 
ATOM     14  C   UNL     1       5.428   5.442  16.855  0.00  0.00    +0.000 A 
ATOM     15  C   UNL     1       5.027   6.754  16.545  0.00  0.00    +0.000 A 
ATOM     16  C   UNL     1       3.961   7.367  17.224  0.00  0.00    +0.000 A 
ATOM     17  C   UNL     1       3.327   6.651  18.226  0.00  0.00    +0.000 A 
ATOM     18  H   UNL     1       3.012   3.807  19.826  0.00  0.00    +0.000 HD
ENDBRANCH   3   7
BRANCH   4  19
ATOM     19  N   UNL     1      -0.729  11.305  20.412  0.00  0.00    +0.000 N 
ATOM     20  C   UNL     1      -1.850  11.714  19.663  0.00  0.00    +0.000 A 
ATOM     21  N   UNL     1      -2.648  12.661  20.075  0.00  0.00    +0.000 NA
ATOM     22  C   UNL     1      -2.396  13.285  21.303  0.00  0.00    +0.000 A 
ATOM     23  C   UNL     1      -3.252  14.301  21.742  0.00  0.00    +0.000 A 
ATOM     24  C   UNL     1      -3.080  14.886  23.000  0.00  0.00    +0.000 A 
ATOM     25  C   UNL     1      -2.037  14.477  23.828  0.00  0.00    +0.000 A 
ATOM     26  C   UNL     1      -1.165  13.480  23.395  0.00  0.00    +0.000 A 
ATOM     27  C   UNL     1      -1.360  12.886  22.142  0.00  0.00    +0.000 A 
ATOM     28  C   UNL     1      -0.519  11.762  21.716  0.00  0.00    +0.000 A 
ATOM     29  O   UNL     1       0.229  11.245  22.546  0.00  0.00    +0.000 OA
BRANCH  20  30
ATOM     30  C   UNL     1      -2.225  11.012  18.389  0.00  0.00    +0.000 A 
ATOM     31  C   UNL     1      -1.989  11.652  17.159  0.00  0.00    +0.000 A 
ATOM     32  C   UNL     1      -2.424  11.077  15.959  0.00  0.00    +0.000 A 
ATOM     33  C   UNL     1      -3.110   9.865  15.979  0.00  0.00    +0.000 A 
ATOM     34  C   UNL     1      -3.300   9.201  17.185  0.00  0.00    +0.000 A 
ATOM     35  C   UNL     1      -2.826   9.748  18.377  0.00  0.00    +0.000 A 
ENDBRANCH  20  30
ENDBRANCH   4  19
TORSDOF 3
ENDMDL
MODEL 3
REMARK VINA RESULT:      -7.7      3.644      8.268
REMARK  Name = 
REMARK  3 active torsions:
REMARK  status: ('A' for Active; 'I' for Inactive)
REMARK    1  A    between atoms: N_3  and  N_4
REMARK    2  A    between atoms: N_15  and  N_16
REMARK    3  A    between atoms: C_17  and  C_18
REMARK                            x       y       z     vdW  Elec       q    Type
REMARK                         _______ _______ _______ _____ _____    ______ ____
ROOT
ATOM      1  O   UNL     1       0.186   9.013  17.455  0.00  0.00    +0.000 OA
ATOM      2  C   UNL     1       0.854   9.801  18.116  0.00  0.00    +0.000 C 
ATOM      3  N   UNL     1       0.462  11.127  18.218  0.00  0.00    +0.000 N 
ATOM      4  N   UNL     1       2.020   9.511  18.803  0.00  0.00    +0.000 N 
ATOM      5  H   UNL     1      -0.501  11.306  17.984  0.00  0.00    +0.000 HD
ATOM      6  H   UNL     1       2.268  10.185  19.518  0.00  0.00    +0.000 HD
ENDROOT
BRANCH   3   7
ATOM      7  N   UNL     1       1.284  12.101  18.682  0.00  0.00    +0.000 NA
ATOM      8  C   UNL     1       0.952  12.791  19.732  0.00  0.00    +0.000 C 
ATOM      9  C   UNL     1       1.961  13.809  20.310  0.00  0.00    +0.000 C 
ATOM     10  O   UNL     1       3.020  14.124  19.817  0.00  0.00    +0.000 OA
ATOM     11  N   UNL     1       1.414  14.241  21.493  0.00  0.00    +0.000 N 
ATOM     12  C   UNL     1       0.168  13.668  21.704  0.00  0.00    +0.000 A 
ATOM     13  C   UNL     1      -0.633  13.884  22.809  0.00  0.00    +0.000 A 
ATOM     14  C   UNL     1      -1.864  13.231  22.850  0.00  0.00    +0.000 A 
ATOM     15  C   UNL     1      -2.272  12.413  21.781  0.00  0.00    +0.000 A 
ATOM     16  C   UNL     1      -1.446  12.210  20.664  0.00  0.00    +0.000 A 
ATOM     17  C   UNL     1      -0.203  12.820  20.652  0.00  0.00    +0.000 A 
ATOM     18  H   UNL     1       1.886  14.885  22.110  0.00  0.00    +0.000 HD
ENDBRANCH   3   7
BRANCH   4  19
ATOM     19  N   UNL     1       2.412   8.158  19.032  0.00  0.00    +0.000 N 
ATOM     20  C   UNL     1       1.982   7.464  20.179  0.00  0.00    +0.000 A 
ATOM     21  N   UNL     1       2.226   6.192  20.351  0.00  0.00    +0.000 NA
ATOM     22  C   UNL     1       2.925   5.490  19.362  0.00  0.00    +0.000 A 
ATOM     23  C   UNL     1       3.187   4.128  19.547  0.00  0.00    +0.000 A 
ATOM     24  C   UNL     1       3.806   3.376  18.543  0.00  0.00    +0.000 A 
ATOM     25  C   UNL     1       4.190   3.981  17.349  0.00  0.00    +0.000 A 
ATOM     26  C   UNL     1       3.953   5.342  17.159  0.00  0.00    +0.000 A 
ATOM     27  C   UNL     1       3.313   6.079  18.162  0.00  0.00    +0.000 A 
ATOM     28  C   UNL     1       2.958   7.485  17.936  0.00  0.00    +0.000 A 
ATOM     29  O   UNL     1       3.071   7.940  16.797  0.00  0.00    +0.000 OA
BRANCH  20  30
ATOM     30  C   UNL     1       1.143   8.142  21.225  0.00  0.00    +0.000 A 
ATOM     31  C   UNL     1      -0.258   8.035  21.156  0.00  0.00    +0.000 A 
ATOM     32  C   UNL     1      -1.074   8.742  22.047  0.00  0.00    +0.000 A 
ATOM     33  C   UNL     1      -0.497   9.573  23.006  0.00  0.00    +0.000 A 
ATOM     34  C   UNL     1       0.887   9.642  23.114  0.00  0.00    +0.000 A 
ATOM     35  C   UNL     1       1.702   8.902  22.259  0.00  0.00    +0.000 A 
ENDBRANCH  20  30
ENDBRANCH   4  19
TORSDOF 3
ENDMDL
MODEL 4
REMARK VINA RESULT:      -7.7      3.463      5.523
REMARK  Name = 
REMARK  3 active torsions:
REMARK  status: ('A' for Active; 'I' for Inactive)
REMARK    1  A    between atoms: N_3  and  N_4
REMARK    2  A    between atoms: N_15  and  N_16
REMARK    3  A    between atoms: C_17  and  C_18
REMARK                            x       y       z     vdW  Elec       q    Type
REMARK                         _______ _______ _______ _____ _____    ______ ____
ROOT
ATOM      1  O   UNL     1       1.225   9.486  23.486  0.00  0.00    +0.000 OA
ATOM      2  C   UNL     1       1.238   9.429  22.260  0.00  0.00    +0.000 C 
ATOM      3  N   UNL     1       1.724   8.298  21.624  0.00  0.00    +0.000 N 
ATOM      4  N   UNL     1       0.808  10.416  21.390  0.00  0.00    +0.000 N 
ATOM      5  H   UNL     1       1.772   7.472  22.199  0.00  0.00    +0.000 HD
ATOM      6  H   UNL     1       0.615  10.094  20.449  0.00  0.00    +0.000 HD
ENDROOT
BRANCH   3   7
ATOM      7  N   UNL     1       2.030   8.274  20.303  0.00  0.00    +0.000 NA
ATOM      8  C   UNL     1       2.184   7.140  19.687  0.00  0.00    +0.000 C 
ATOM      9  C   UNL     1       2.412   7.141  18.159  0.00  0.00    +0.000 C 
ATOM     10  O   UNL     1       2.574   8.116  17.461  0.00  0.00    +0.000 OA
ATOM     11  N   UNL     1       2.358   5.823  17.776  0.00  0.00    +0.000 N 
ATOM     12  C   UNL     1       2.182   4.992  18.873  0.00  0.00    +0.000 A 
ATOM     13  C   UNL     1       2.070   3.616  18.823  0.00  0.00    +0.000 A 
ATOM     14  C   UNL     1       1.908   2.938  20.030  0.00  0.00    +0.000 A 
ATOM     15  C   UNL     1       1.894   3.643  21.247  0.00  0.00    +0.000 A 
ATOM     16  C   UNL     1       2.013   5.042  21.278  0.00  0.00    +0.000 A 
ATOM     17  C   UNL     1       2.123   5.715  20.073  0.00  0.00    +0.000 A 
ATOM     18  H   UNL     1       2.432   5.530  16.813  0.00  0.00    +0.000 HD
ENDBRANCH   3   7
BRANCH   4  19
ATOM     19  N   UNL     1       0.034  11.517  21.865  0.00  0.00    +0.000 N 
ATOM     20  C   UNL     1       0.245  12.818  21.368  0.00  0.00    +0.000 A 
ATOM     21  N   UNL     1      -0.529  13.817  21.697  0.00  0.00    +0.000 NA
ATOM     22  C   UNL     1      -1.611  13.592  22.557  0.00  0.00    +0.000 A 
ATOM     23  C   UNL     1      -2.439  14.664  22.908  0.00  0.00    +0.000 A 
ATOM     24  C   UNL     1      -3.577  14.460  23.695  0.00  0.00    +0.000 A 
ATOM     25  C   UNL     1      -3.890  13.184  24.159  0.00  0.00    +0.000 A 
ATOM     26  C   UNL     1      -3.062  12.111  23.833  0.00  0.00    +0.000 A 
ATOM     27  C   UNL     1      -1.938  12.324  23.026  0.00  0.00    +0.000 A 
ATOM     28  C   UNL     1      -1.118  11.190  22.583  0.00  0.00    +0.000 A 
ATOM     29  O   UNL     1      -1.540  10.051  22.785  0.00  0.00    +0.000 OA
BRANCH  20  30
ATOM     30  C   UNL     1       1.327  13.096  20.365  0.00  0.00    +0.000 A 
ATOM     31  C   UNL     1       2.495  13.760  20.782  0.00  0.00    +0.000 A 
ATOM     32  C   UNL     1       3.476  14.132  19.856  0.00  0.00    +0.000 A 
ATOM     33  C   UNL     1       3.293  13.856  18.502  0.00  0.00    +0.000 A 
ATOM     34  C   UNL     1       2.167  13.154  18.089  0.00  0.00    +0.000 A 
ATOM     35  C   UNL     1       1.211  12.740  19.016  0.00  0.00    +0.000 A 
ENDBRANCH  20  30
ENDBRANCH   4  19
TORSDOF 3
ENDMDL
MODEL 5
REMARK VINA RESULT:      -7.6      3.327      5.948
REMARK  Name = 
REMARK  3 active torsions:
REMARK  status: ('A' for Active; 'I' for Inactive)
REMARK    1  A    between atoms: N_3  and  N_4
REMARK    2  A    between atoms: N_15  and  N_16
REMARK    3  A    between atoms: C_17  and  C_18
REMARK                            x       y       z     vdW  Elec       q    Type
REMARK                         _______ _______ _______ _____ _____    ______ ____
ROOT
ATOM      1  O   UNL     1       2.117  11.187  17.363  0.00  0.00    +0.000 OA
ATOM      2  C   UNL     1       1.852  10.368  18.237  0.00  0.00    +0.000 C 
ATOM      3  N   UNL     1       2.492   9.140  18.253  0.00  0.00    +0.000 N 
ATOM      4  N   UNL     1       0.935  10.532  19.261  0.00  0.00    +0.000 N 
ATOM      5  H   UNL     1       3.346   9.096  17.720  0.00  0.00    +0.000 HD
ATOM      6  H   UNL     1       1.058   9.898  20.043  0.00  0.00    +0.000 HD
ENDROOT
BRANCH   3   7
ATOM      7  N   UNL     1       2.056   8.095  19.001  0.00  0.00    +0.000 NA
ATOM      8  C   UNL     1       2.603   6.923  18.870  0.00  0.00    +0.000 C 
ATOM      9  C   UNL     1       2.170   5.783  19.819  0.00  0.00    +0.000 C 
ATOM     10  O   UNL     1       1.273   5.830  20.629  0.00  0.00    +0.000 OA
ATOM     11  N   UNL     1       3.031   4.744  19.565  0.00  0.00    +0.000 N 
ATOM     12  C   UNL     1       3.911   5.064  18.541  0.00  0.00    +0.000 A 
ATOM     13  C   UNL     1       4.910   4.241  18.061  0.00  0.00    +0.000 A 
ATOM     14  C   UNL     1       5.697   4.724  17.016  0.00  0.00    +0.000 A 
ATOM     15  C   UNL     1       5.446   5.992  16.463  0.00  0.00    +0.000 A 
ATOM     16  C   UNL     1       4.422   6.813  16.962  0.00  0.00    +0.000 A 
ATOM     17  C   UNL     1       3.676   6.349  18.033  0.00  0.00    +0.000 A 
ATOM     18  H   UNL     1       3.006   3.875  20.078  0.00  0.00    +0.000 HD
ENDBRANCH   3   7
BRANCH   4  19
ATOM     19  N   UNL     1       0.396  11.820  19.556  0.00  0.00    +0.000 N 
ATOM     20  C   UNL     1      -0.859  12.213  19.052  0.00  0.00    +0.000 A 
ATOM     21  N   UNL     1      -1.426  13.335  19.406  0.00  0.00    +0.000 NA
ATOM     22  C   UNL     1      -0.777  14.171  20.323  0.00  0.00    +0.000 A 
ATOM     23  C   UNL     1      -1.385  15.373  20.700  0.00  0.00    +0.000 A 
ATOM     24  C   UNL     1      -0.808  16.191  21.676  0.00  0.00    +0.000 A 
ATOM     25  C   UNL     1       0.397  15.827  22.274  0.00  0.00    +0.000 A 
ATOM     26  C   UNL     1       1.023  14.641  21.894  0.00  0.00    +0.000 A 
ATOM     27  C   UNL     1       0.424  13.820  20.930  0.00  0.00    +0.000 A 
ATOM     28  C   UNL     1       1.013  12.518  20.597  0.00  0.00    +0.000 A 
ATOM     29  O   UNL     1       1.929  12.094  21.304  0.00  0.00    +0.000 OA
BRANCH  20  30
ATOM     30  C   UNL     1      -1.645  11.310  18.145  0.00  0.00    +0.000 A 
ATOM     31  C   UNL     1      -1.759  11.639  16.782  0.00  0.00    +0.000 A 
ATOM     32  C   UNL     1      -2.572  10.881  15.930  0.00  0.00    +0.000 A 
ATOM     33  C   UNL     1      -3.287   9.797  16.434  0.00  0.00    +0.000 A 
ATOM     34  C   UNL     1      -3.136   9.434  17.768  0.00  0.00    +0.000 A 
ATOM     35  C   UNL     1      -2.290  10.158  18.608  0.00  0.00    +0.000 A 
ENDBRANCH  20  30
ENDBRANCH   4  19
TORSDOF 3
ENDMDL
MODEL 6
REMARK VINA RESULT:      -7.5      4.799      7.767
REMARK  Name = 
REMARK  3 active torsions:
REMARK  status: ('A' for Active; 'I' for Inactive)
REMARK    1  A    between atoms: N_3  and  N_4
REMARK    2  A    between atoms: N_15  and  N_16
REMARK    3  A    between atoms: C_17  and  C_18
REMARK                            x       y       z     vdW  Elec       q    Type
REMARK                         _______ _______ _______ _____ _____    ______ ____
ROOT
ATOM      1  O   UNL     1       2.411  13.253  17.610  0.00  0.00    +0.000 OA
ATOM      2  C   UNL     1       1.505  13.454  18.412  0.00  0.00    +0.000 C 
ATOM      3  N   UNL     1       0.409  12.606  18.447  0.00  0.00    +0.000 N 
ATOM      4  N   UNL     1       1.438  14.486  19.332  0.00  0.00    +0.000 N 
ATOM      5  H   UNL     1       0.550  11.708  18.011  0.00  0.00    +0.000 HD
ATOM      6  H   UNL     1       0.788  14.332  20.094  0.00  0.00    +0.000 HD
ENDROOT
BRANCH   3   7
ATOM      7  N   UNL     1      -0.741  12.919  19.093  0.00  0.00    +0.000 NA
ATOM      8  C   UNL     1      -1.067  12.299  20.188  0.00  0.00    +0.000 C 
ATOM      9  C   UNL     1      -2.318  12.760  20.968  0.00  0.00    +0.000 C 
ATOM     10  O   UNL     1      -3.118  13.593  20.607  0.00  0.00    +0.000 OA
ATOM     11  N   UNL     1      -2.302  12.054  22.145  0.00  0.00    +0.000 N 
ATOM     12  C   UNL     1      -1.233  11.169  22.180  0.00  0.00    +0.000 A 
ATOM     13  C   UNL     1      -0.928  10.328  23.233  0.00  0.00    +0.000 A 
ATOM     14  C   UNL     1       0.181   9.495  23.091  0.00  0.00    +0.000 A 
ATOM     15  C   UNL     1       0.929   9.502  21.900  0.00  0.00    +0.000 A 
ATOM     16  C   UNL     1       0.600  10.361  20.839  0.00  0.00    +0.000 A 
ATOM     17  C   UNL     1      -0.471  11.223  21.005  0.00  0.00    +0.000 A 
ATOM     18  H   UNL     1      -2.987  12.189  22.873  0.00  0.00    +0.000 HD
ENDBRANCH   3   7
BRANCH   4  19
ATOM     19  N   UNL     1       2.590  15.278  19.620  0.00  0.00    +0.000 N 
ATOM     20  C   UNL     1       2.684  16.610  19.171  0.00  0.00    +0.000 A 
ATOM     21  N   UNL     1       3.670  17.390  19.523  0.00  0.00    +0.000 NA
ATOM     22  C   UNL     1       4.659  16.899  20.384  0.00  0.00    +0.000 A 
ATOM     23  C   UNL     1       5.715  17.736  20.760  0.00  0.00    +0.000 A 
ATOM     24  C   UNL     1       6.674  17.307  21.684  0.00  0.00    +0.000 A 
ATOM     25  C   UNL     1       6.599  16.027  22.228  0.00  0.00    +0.000 A 
ATOM     26  C   UNL     1       5.563  15.176  21.848  0.00  0.00    +0.000 A 
ATOM     27  C   UNL     1       4.598  15.624  20.938  0.00  0.00    +0.000 A 
ATOM     28  C   UNL     1       3.442  14.782  20.609  0.00  0.00    +0.000 A 
ATOM     29  O   UNL     1       3.251  13.766  21.279  0.00  0.00    +0.000 OA
BRANCH  20  30
ATOM     30  C   UNL     1       1.601  17.220  18.328  0.00  0.00    +0.000 A 
ATOM     31  C   UNL     1       1.915  17.687  17.039  0.00  0.00    +0.000 A 
ATOM     32  C   UNL     1       0.958  18.359  16.269  0.00  0.00    +0.000 A 
ATOM     33  C   UNL     1      -0.317  18.580  16.785  0.00  0.00    +0.000 A 
ATOM     34  C   UNL     1      -0.651  18.075  18.036  0.00  0.00    +0.000 A 
ATOM     35  C   UNL     1       0.286  17.364  18.786  0.00  0.00    +0.000 A 
ENDBRANCH  20  30
ENDBRANCH   4  19
TORSDOF 3
ENDMDL
MODEL 7
REMARK VINA RESULT:      -7.5      2.940      7.913
REMARK  Name = 
REMARK  3 active torsions:
REMARK  status: ('A' for Active; 'I' for Inactive)
REMARK    1  A    between atoms: N_3  and  N_4
REMARK    2  A    between atoms: N_15  and  N_16
REMARK    3  A    between atoms: C_17  and  C_18
REMARK                            x       y       z     vdW  Elec       q    Type
REMARK                         _______ _______ _______ _____ _____    ______ ____
ROOT
ATOM      1  O   UNL     1      -0.410  10.985  23.084  0.00  0.00    +0.000 OA
ATOM      2  C   UNL     1      -1.367  11.661  22.717  0.00  0.00    +0.000 C 
ATOM      3  N   UNL     1      -2.501  11.743  23.509  0.00  0.00    +0.000 N 
ATOM      4  N   UNL     1      -1.456  12.383  21.540  0.00  0.00    +0.000 N 
ATOM      5  H   UNL     1      -2.369  11.480  24.473  0.00  0.00    +0.000 HD
ATOM      6  H   UNL     1      -2.172  13.101  21.538  0.00  0.00    +0.000 HD
ENDROOT
BRANCH   3   7
ATOM      7  N   UNL     1      -3.683  12.225  23.049  0.00  0.00    +0.000 NA
ATOM      8  C   UNL     1      -4.063  13.429  23.359  0.00  0.00    +0.000 C 
ATOM      9  C   UNL     1      -5.353  13.995  22.723  0.00  0.00    +0.000 C 
ATOM     10  O   UNL     1      -6.133  13.386  22.027  0.00  0.00    +0.000 OA
ATOM     11  N   UNL     1      -5.396  15.317  23.089  0.00  0.00    +0.000 N 
ATOM     12  C   UNL     1      -4.331  15.640  23.918  0.00  0.00    +0.000 A 
ATOM     13  C   UNL     1      -4.079  16.893  24.443  0.00  0.00    +0.000 A 
ATOM     14  C   UNL     1      -2.965  17.034  25.269  0.00  0.00    +0.000 A 
ATOM     15  C   UNL     1      -2.158  15.922  25.571  0.00  0.00    +0.000 A 
ATOM     16  C   UNL     1      -2.432  14.655  25.030  0.00  0.00    +0.000 A 
ATOM     17  C   UNL     1      -3.510  14.533  24.170  0.00  0.00    +0.000 A 
ATOM     18  H   UNL     1      -6.118  15.949  22.773  0.00  0.00    +0.000 HD
ENDBRANCH   3   7
BRANCH   4  19
ATOM     19  N   UNL     1      -0.294  12.632  20.750  0.00  0.00    +0.000 N 
ATOM     20  C   UNL     1      -0.261  12.291  19.383  0.00  0.00    +0.000 A 
ATOM     21  N   UNL     1       0.743  12.617  18.614  0.00  0.00    +0.000 NA
ATOM     22  C   UNL     1       1.814  13.339  19.153  0.00  0.00    +0.000 A 
ATOM     23  C   UNL     1       2.888  13.687  18.327  0.00  0.00    +0.000 A 
ATOM     24  C   UNL     1       3.934  14.480  18.811  0.00  0.00    +0.000 A 
ATOM     25  C   UNL     1       3.929  14.918  20.134  0.00  0.00    +0.000 A 
ATOM     26  C   UNL     1       2.874  14.562  20.973  0.00  0.00    +0.000 A 
ATOM     27  C   UNL     1       1.823  13.786  20.471  0.00  0.00    +0.000 A 
ATOM     28  C   UNL     1       0.653  13.493  21.308  0.00  0.00    +0.000 A 
ATOM     29  O   UNL     1       0.540  14.088  22.380  0.00  0.00    +0.000 OA
BRANCH  20  30
ATOM     30  C   UNL     1      -1.426  11.606  18.729  0.00  0.00    +0.000 A 
ATOM     31  C   UNL     1      -2.702  12.193  18.812  0.00  0.00    +0.000 A 
ATOM     32  C   UNL     1      -3.828  11.531  18.309  0.00  0.00    +0.000 A 
ATOM     33  C   UNL     1      -3.691  10.270  17.730  0.00  0.00    +0.000 A 
ATOM     34  C   UNL     1      -2.427   9.708  17.597  0.00  0.00    +0.000 A 
ATOM     35  C   UNL     1      -1.298  10.387  18.054  0.00  0.00    +0.000 A 
ENDBRANCH  20  30
ENDBRANCH   4  19
TORSDOF 3
ENDMDL
MODEL 8
REMARK VINA RESULT:      -7.4      2.598      4.807
REMARK  Name = 
REMARK  3 active torsions:
REMARK  status: ('A' for Active; 'I' for Inactive)
REMARK    1  A    between atoms: N_3  and  N_4
REMARK    2  A    between atoms: N_15  and  N_16
REMARK    3  A    between atoms: C_17  and  C_18
REMARK                            x       y       z     vdW  Elec       q    Type
REMARK                         _______ _______ _______ _____ _____    ______ ____
ROOT
ATOM      1  O   UNL     1      -1.848  14.789  20.069  0.00  0.00    +0.000 OA
ATOM      2  C   UNL     1      -1.367  13.715  19.720  0.00  0.00    +0.000 C 
ATOM      3  N   UNL     1       0.007  13.572  19.617  0.00  0.00    +0.000 N 
ATOM      4  N   UNL     1      -2.072  12.571  19.392  0.00  0.00    +0.000 N 
ATOM      5  H   UNL     1       0.547  14.266  20.110  0.00  0.00    +0.000 HD
ATOM      6  H   UNL     1      -1.527  11.716  19.418  0.00  0.00    +0.000 HD
ENDROOT
BRANCH   3   7
ATOM      7  N   UNL     1       0.590  12.529  18.975  0.00  0.00    +0.000 NA
ATOM      8  C   UNL     1       0.672  11.368  19.554  0.00  0.00    +0.000 C 
ATOM      9  C   UNL     1       1.229  10.169  18.755  0.00  0.00    +0.000 C 
ATOM     10  O   UNL     1       1.713  10.211  17.647  0.00  0.00    +0.000 OA
ATOM     11  N   UNL     1       1.027   9.068  19.550  0.00  0.00    +0.000 N 
ATOM     12  C   UNL     1       0.467   9.429  20.768  0.00  0.00    +0.000 A 
ATOM     13  C   UNL     1       0.126   8.553  21.781  0.00  0.00    +0.000 A 
ATOM     14  C   UNL     1      -0.419   9.095  22.944  0.00  0.00    +0.000 A 
ATOM     15  C   UNL     1      -0.577  10.486  23.076  0.00  0.00    +0.000 A 
ATOM     16  C   UNL     1      -0.220  11.361  22.037  0.00  0.00    +0.000 A 
ATOM     17  C   UNL     1       0.273  10.814  20.864  0.00  0.00    +0.000 A 
ATOM     18  H   UNL     1       1.259   8.131  19.257  0.00  0.00    +0.000 HD
ENDBRANCH   3   7
BRANCH   4  19
ATOM     19  N   UNL     1      -3.460  12.456  19.705  0.00  0.00    +0.000 N 
ATOM     20  C   UNL     1      -4.336  11.740  18.866  0.00  0.00    +0.000 A 
ATOM     21  N   UNL     1      -5.581  11.520  19.192  0.00  0.00    +0.000 NA
ATOM     22  C   UNL     1      -6.063  11.996  20.417  0.00  0.00    +0.000 A 
ATOM     23  C   UNL     1      -7.397  11.760  20.765  0.00  0.00    +0.000 A 
ATOM     24  C   UNL     1      -7.889  12.147  22.016  0.00  0.00    +0.000 A 
ATOM     25  C   UNL     1      -7.057  12.793  22.928  0.00  0.00    +0.000 A 
ATOM     26  C   UNL     1      -5.731  13.052  22.587  0.00  0.00    +0.000 A 
ATOM     27  C   UNL     1      -5.245  12.641  21.340  0.00  0.00    +0.000 A 
ATOM     28  C   UNL     1      -3.825  12.807  21.007  0.00  0.00    +0.000 A 
ATOM     29  O   UNL     1      -3.051  13.145  21.904  0.00  0.00    +0.000 OA
BRANCH  20  30
ATOM     30  C   UNL     1      -3.847  11.120  17.588  0.00  0.00    +0.000 A 
ATOM     31  C   UNL     1      -2.784  10.200  17.634  0.00  0.00    +0.000 A 
ATOM     32  C   UNL     1      -2.231   9.686  16.455  0.00  0.00    +0.000 A 
ATOM     33  C   UNL     1      -2.728  10.097  15.219  0.00  0.00    +0.000 A 
ATOM     34  C   UNL     1      -3.813  10.963  15.167  0.00  0.00    +0.000 A 
ATOM     35  C   UNL     1      -4.396  11.440  16.341  0.00  0.00    +0.000 A 
ENDBRANCH  20  30
ENDBRANCH   4  19
TORSDOF 3
ENDMDL
MODEL 9
REMARK VINA RESULT:      -7.4      3.165      7.729
REMARK  Name = 
REMARK  3 active torsions:
REMARK  status: ('A' for Active; 'I' for Inactive)
REMARK    1  A    between atoms: N_3  and  N_4
REMARK    2  A    between atoms: N_15  and  N_16
REMARK    3  A    between atoms: C_17  and  C_18
REMARK                            x       y       z     vdW  Elec       q    Type
REMARK                         _______ _______ _______ _____ _____    ______ ____
ROOT
ATOM      1  O   UNL     1      -0.962  10.068  17.992  0.00  0.00    +0.000 OA
ATOM      2  C   UNL     1      -0.173  10.954  18.304  0.00  0.00    +0.000 C 
ATOM      3  N   UNL     1      -0.528  12.285  18.148  0.00  0.00    +0.000 N 
ATOM      4  N   UNL     1       1.100  10.774  18.814  0.00  0.00    +0.000 N 
ATOM      5  H   UNL     1      -1.517  12.455  18.059  0.00  0.00    +0.000 HD
ATOM      6  H   UNL     1       1.486  11.585  19.284  0.00  0.00    +0.000 HD
ENDROOT
BRANCH   3   7
ATOM      7  N   UNL     1       0.375  13.295  18.200  0.00  0.00    +0.000 NA
ATOM      8  C   UNL     1       0.179  14.309  18.989  0.00  0.00    +0.000 C 
ATOM      9  C   UNL     1       1.281  15.384  19.117  0.00  0.00    +0.000 C 
ATOM     10  O   UNL     1       2.298  15.447  18.465  0.00  0.00    +0.000 OA
ATOM     11  N   UNL     1       0.873  16.212  20.134  0.00  0.00    +0.000 N 
ATOM     12  C   UNL     1      -0.368  15.829  20.622  0.00  0.00    +0.000 A 
ATOM     13  C   UNL     1      -1.045  16.446  21.656  0.00  0.00    +0.000 A 
ATOM     14  C   UNL     1      -2.291  15.931  22.008  0.00  0.00    +0.000 A 
ATOM     15  C   UNL     1      -2.838  14.843  21.303  0.00  0.00    +0.000 A 
ATOM     16  C   UNL     1      -2.136  14.232  20.251  0.00  0.00    +0.000 A 
ATOM     17  C   UNL     1      -0.877  14.715  19.939  0.00  0.00    +0.000 A 
ATOM     18  H   UNL     1       1.430  16.986  20.466  0.00  0.00    +0.000 HD
ENDBRANCH   3   7
BRANCH   4  19
ATOM     19  N   UNL     1       1.518   9.495  19.292  0.00  0.00    +0.000 N 
ATOM     20  C   UNL     1       1.171   9.056  20.585  0.00  0.00    +0.000 A 
ATOM     21  N   UNL     1       1.437   7.847  20.999  0.00  0.00    +0.000 NA
ATOM     22  C   UNL     1       2.075   6.951  20.133  0.00  0.00    +0.000 A 
ATOM     23  C   UNL     1       2.361   5.656  20.578  0.00  0.00    +0.000 A 
ATOM     24  C   UNL     1       2.919   4.709  19.713  0.00  0.00    +0.000 A 
ATOM     25  C   UNL     1       3.219   5.052  18.397  0.00  0.00    +0.000 A 
ATOM     26  C   UNL     1       2.958   6.344  17.945  0.00  0.00    +0.000 A 
ATOM     27  C   UNL     1       2.378   7.277  18.815  0.00  0.00    +0.000 A 
ATOM     28  C   UNL     1       1.997   8.607  18.326  0.00  0.00    +0.000 A 
ATOM     29  O   UNL     1       2.031   8.816  17.113  0.00  0.00    +0.000 OA
BRANCH  20  30
ATOM     30  C   UNL     1       0.397   9.941  21.520  0.00  0.00    +0.000 A 
ATOM     31  C   UNL     1      -0.432   9.353  22.492  0.00  0.00    +0.000 A 
ATOM     32  C   UNL     1      -1.250  10.144  23.308  0.00  0.00    +0.000 A 
ATOM     33  C   UNL     1      -1.257  11.528  23.150  0.00  0.00    +0.000 A 
ATOM     34  C   UNL     1      -0.401  12.120  22.228  0.00  0.00    +0.000 A 
ATOM     35  C   UNL     1       0.450  11.338  21.447  0.00  0.00    +0.000 A 
ENDBRANCH  20  30
ENDBRANCH   4  19
TORSDOF 3
ENDMDL
