MODEL 1
REMARK VINA RESULT:      -7.9      0.000      0.000
REMARK  Name = 
REMARK  8 active torsions:
REMARK  status: ('A' for Active; 'I' for Inactive)
REMARK    1  A    between atoms: C_1  and  O_2
REMARK    2  A    between atoms: O_2  and  C_3
REMARK    3  A    between atoms: C_6  and  N_7
REMARK    4  A    between atoms: C_11  and  N_12
REMARK    5  A    between atoms: N_12  and  C_13
REMARK    6  A    between atoms: C_13  and  N_14
REMARK    7  A    between atoms: C_16  and  C_17
REMARK    8  A    between atoms: C_20  and  C_21
REMARK                            x       y       z     vdW  Elec       q    Type
REMARK                         _______ _______ _______ _____ _____    ______ ____
ROOT
ATOM      1  C   UNL     1       5.493   6.503  16.782  0.00  0.00    +0.000 C 
ENDROOT
BRANCH   1   2
ATOM      2  N   UNL     1       6.699   7.159  17.270  0.00  0.00    +0.000 N 
ATOM      3  N   UNL     1       6.912   8.527  17.154  0.00  0.00    +0.000 NA
ATOM      4  C   UNL     1       7.899   8.734  17.973  0.00  0.00    +0.000 A 
ATOM      5  O   UNL     1       8.377   7.642  18.617  0.00  0.00    +0.000 OA
ATOM      6  C   UNL     1       7.590   6.630  18.171  0.00  0.00    +0.000 A 
ATOM      7  S   UNL     1       7.809   5.116  18.790  0.00  0.00    +0.000 S 
BRANCH   4   8
ATOM      8  C   UNL     1       8.605   9.979  18.316  0.00  0.00    +0.000 A 
ATOM      9  C   UNL     1       9.471  10.023  19.420  0.00  0.00    +0.000 A 
ATOM     10  C   UNL     1      10.186  11.187  19.717  0.00  0.00    +0.000 A 
ATOM     11  C   UNL     1      10.047  12.323  18.915  0.00  0.00    +0.000 A 
ATOM     12  C   UNL     1      10.836  13.571  19.200  0.00  0.00    +0.000 C 
ATOM     13  C   UNL     1       9.168  12.281  17.821  0.00  0.00    +0.000 A 
ATOM     14  C   UNL     1       8.442  11.120  17.528  0.00  0.00    +0.000 A 
ENDBRANCH   4   8
ENDBRANCH   1   2
BRANCH   1  15
ATOM     15  N   UNL     1       4.350   6.939  17.569  0.00  0.00    +0.000 N 
ATOM     16  H   UNL     1       4.547   7.835  18.007  0.00  0.00    +0.000 HD
BRANCH  15  22
ATOM     17  C   UNL     1       2.694   6.390  19.384  0.00  0.00    +0.000 A 
ATOM     18  C   UNL     1       2.088   5.402  20.191  0.00  0.00    +0.000 A 
ATOM     19  C   UNL     1       2.549   4.092  20.177  0.00  0.00    +0.000 A 
ATOM     20  C   UNL     1       3.597   3.757  19.322  0.00  0.00    +0.000 A 
ATOM     21  C   UNL     1       4.142   4.714  18.443  0.00  0.00    +0.000 A 
ATOM     22  C   UNL     1       3.677   6.048  18.426  0.00  0.00    +0.000 A 
BRANCH  20  23
ATOM     23  N   UNL     1       4.146   2.397  19.367  0.00  0.00    +0.000 N 
ATOM     24  O   UNL     1       5.052   2.168  20.181  0.00  0.00    +0.000 OA
ATOM     25  O   UNL     1       3.681   1.559  18.582  0.00  0.00    +0.000 OA
ENDBRANCH  20  23
BRANCH  17  27
ATOM     26  C   UNL     1       1.547   7.989  20.696  0.00  0.00    +0.000 C 
ATOM     27  O   UNL     1       2.260   7.687  19.492  0.00  0.00    +0.000 OA
ENDBRANCH  17  27
ENDBRANCH  15  22
ENDBRANCH   1  15
TORSDOF 6
ENDMDL
MODEL 2
REMARK VINA RESULT:      -7.7      3.801      6.889
REMARK  Name = 
REMARK  8 active torsions:
REMARK  status: ('A' for Active; 'I' for Inactive)
REMARK    1  A    between atoms: C_1  and  O_2
REMARK    2  A    between atoms: O_2  and  C_3
REMARK    3  A    between atoms: C_6  and  N_7
REMARK    4  A    between atoms: C_11  and  N_12
REMARK    5  A    between atoms: N_12  and  C_13
REMARK    6  A    between atoms: C_13  and  N_14
REMARK    7  A    between atoms: C_16  and  C_17
REMARK    8  A    between atoms: C_20  and  C_21
REMARK                            x       y       z     vdW  Elec       q    Type
REMARK                         _______ _______ _______ _____ _____    ______ ____
ROOT
ATOM      1  C   UNL     1       4.174   3.440  17.250  0.00  0.00    +0.000 C 
ENDROOT
BRANCH   1   2
ATOM      2  N   UNL     1       3.702   4.460  18.178  0.00  0.00    +0.000 N 
ATOM      3  N   UNL     1       3.431   5.766  17.787  0.00  0.00    +0.000 NA
ATOM      4  C   UNL     1       2.748   6.229  18.792  0.00  0.00    +0.000 A 
ATOM      5  O   UNL     1       2.545   5.370  19.819  0.00  0.00    +0.000 OA
ATOM      6  C   UNL     1       3.149   4.225  19.412  0.00  0.00    +0.000 A 
ATOM      7  S   UNL     1       3.057   2.887  20.375  0.00  0.00    +0.000 S 
BRANCH   4   8
ATOM      8  C   UNL     1       2.158   7.560  19.007  0.00  0.00    +0.000 A 
ATOM      9  C   UNL     1       2.045   8.467  17.941  0.00  0.00    +0.000 A 
ATOM     10  C   UNL     1       1.436   9.711  18.128  0.00  0.00    +0.000 A 
ATOM     11  C   UNL     1       0.928  10.066  19.381  0.00  0.00    +0.000 A 
ATOM     12  C   UNL     1       0.238  11.385  19.589  0.00  0.00    +0.000 C 
ATOM     13  C   UNL     1       1.057   9.163  20.448  0.00  0.00    +0.000 A 
ATOM     14  C   UNL     1       1.677   7.921  20.267  0.00  0.00    +0.000 A 
ENDBRANCH   4   8
ENDBRANCH   1   2
BRANCH   1  15
ATOM     15  N   UNL     1       5.614   3.559  17.088  0.00  0.00    +0.000 N 
ATOM     16  H   UNL     1       6.020   4.030  17.892  0.00  0.00    +0.000 HD
BRANCH  15  22
ATOM     17  C   UNL     1       7.064   5.065  15.684  0.00  0.00    +0.000 A 
ATOM     18  C   UNL     1       7.560   5.393  14.404  0.00  0.00    +0.000 A 
ATOM     19  C   UNL     1       7.070   4.760  13.268  0.00  0.00    +0.000 A 
ATOM     20  C   UNL     1       6.105   3.766  13.416  0.00  0.00    +0.000 A 
ATOM     21  C   UNL     1       5.676   3.364  14.696  0.00  0.00    +0.000 A 
ATOM     22  C   UNL     1       6.175   3.980  15.867  0.00  0.00    +0.000 A 
BRANCH  20  23
ATOM     23  N   UNL     1       5.521   3.157  12.216  0.00  0.00    +0.000 N 
ATOM     24  O   UNL     1       6.170   2.269  11.646  0.00  0.00    +0.000 OA
ATOM     25  O   UNL     1       4.417   3.572  11.834  0.00  0.00    +0.000 OA
ENDBRANCH  20  23
BRANCH  17  27
ATOM     26  C   UNL     1       6.716   6.903  17.131  0.00  0.00    +0.000 C 
ATOM     27  O   UNL     1       7.517   5.773  16.768  0.00  0.00    +0.000 OA
ENDBRANCH  17  27
ENDBRANCH  15  22
ENDBRANCH   1  15
TORSDOF 6
ENDMDL
MODEL 3
REMARK VINA RESULT:      -7.7      1.003      1.079
REMARK  Name = 
REMARK  8 active torsions:
REMARK  status: ('A' for Active; 'I' for Inactive)
REMARK    1  A    between atoms: C_1  and  O_2
REMARK    2  A    between atoms: O_2  and  C_3
REMARK    3  A    between atoms: C_6  and  N_7
REMARK    4  A    between atoms: C_11  and  N_12
REMARK    5  A    between atoms: N_12  and  C_13
REMARK    6  A    between atoms: C_13  and  N_14
REMARK    7  A    between atoms: C_16  and  C_17
REMARK    8  A    between atoms: C_20  and  C_21
REMARK                            x       y       z     vdW  Elec       q    Type
REMARK                         _______ _______ _______ _____ _____    ______ ____
ROOT
ATOM      1  C   UNL     1       6.385   6.071  16.500  0.00  0.00    +0.000 C 
ENDROOT
BRANCH   1   2
ATOM      2  N   UNL     1       7.331   6.894  17.243  0.00  0.00    +0.000 N 
ATOM      3  N   UNL     1       7.532   8.242  16.970  0.00  0.00    +0.000 NA
ATOM      4  C   UNL     1       8.170   8.655  18.025  0.00  0.00    +0.000 A 
ATOM      5  O   UNL     1       8.426   7.719  18.969  0.00  0.00    +0.000 OA
ATOM      6  C   UNL     1       7.870   6.587  18.468  0.00  0.00    +0.000 A 
ATOM      7  S   UNL     1       7.904   5.210  19.376  0.00  0.00    +0.000 S 
BRANCH   4   8
ATOM      8  C   UNL     1       8.679   9.994  18.364  0.00  0.00    +0.000 A 
ATOM      9  C   UNL     1       9.511  10.174  19.480  0.00  0.00    +0.000 A 
ATOM     10  C   UNL     1      10.041  11.434  19.775  0.00  0.00    +0.000 A 
ATOM     11  C   UNL     1       9.750  12.530  18.957  0.00  0.00    +0.000 A 
ATOM     12  C   UNL     1      10.342  13.882  19.240  0.00  0.00    +0.000 C 
ATOM     13  C   UNL     1       8.905  12.349  17.851  0.00  0.00    +0.000 A 
ATOM     14  C   UNL     1       8.363  11.090  17.560  0.00  0.00    +0.000 A 
ENDBRANCH   4   8
ENDBRANCH   1   2
BRANCH   1  15
ATOM     15  N   UNL     1       5.057   6.656  16.587  0.00  0.00    +0.000 N 
ATOM     16  H   UNL     1       5.110   7.666  16.477  0.00  0.00    +0.000 HD
BRANCH  15  22
ATOM     17  C   UNL     1       3.181   7.081  18.212  0.00  0.00    +0.000 A 
ATOM     18  C   UNL     1       2.332   6.571  19.217  0.00  0.00    +0.000 A 
ATOM     19  C   UNL     1       2.529   5.297  19.736  0.00  0.00    +0.000 A 
ATOM     20  C   UNL     1       3.559   4.514  19.220  0.00  0.00    +0.000 A 
ATOM     21  C   UNL     1       4.350   4.978  18.150  0.00  0.00    +0.000 A 
ATOM     22  C   UNL     1       4.155   6.263  17.594  0.00  0.00    +0.000 A 
BRANCH  20  23
ATOM     23  N   UNL     1       3.828   3.204  19.823  0.00  0.00    +0.000 N 
ATOM     24  O   UNL     1       5.002   2.807  19.840  0.00  0.00    +0.000 OA
ATOM     25  O   UNL     1       2.866   2.564  20.271  0.00  0.00    +0.000 OA
ENDBRANCH  20  23
BRANCH  17  27
ATOM     26  C   UNL     1       1.740   8.955  18.141  0.00  0.00    +0.000 C 
ATOM     27  O   UNL     1       3.000   8.374  17.790  0.00  0.00    +0.000 OA
ENDBRANCH  17  27
ENDBRANCH  15  22
ENDBRANCH   1  15
TORSDOF 6
ENDMDL
MODEL 4
REMARK VINA RESULT:      -7.7      0.742      1.203
REMARK  Name = 
REMARK  8 active torsions:
REMARK  status: ('A' for Active; 'I' for Inactive)
REMARK    1  A    between atoms: C_1  and  O_2
REMARK    2  A    between atoms: O_2  and  C_3
REMARK    3  A    between atoms: C_6  and  N_7
REMARK    4  A    between atoms: C_11  and  N_12
REMARK    5  A    between atoms: N_12  and  C_13
REMARK    6  A    between atoms: C_13  and  N_14
REMARK    7  A    between atoms: C_16  and  C_17
REMARK    8  A    between atoms: C_20  and  C_21
REMARK                            x       y       z     vdW  Elec       q    Type
REMARK                         _______ _______ _______ _____ _____    ______ ____
ROOT
ATOM      1  C   UNL     1       6.203   6.205  16.634  0.00  0.00    +0.000 C 
ENDROOT
BRANCH   1   2
ATOM      2  N   UNL     1       7.230   6.988  17.311  0.00  0.00    +0.000 N 
ATOM      3  N   UNL     1       7.437   8.338  17.056  0.00  0.00    +0.000 NA
ATOM      4  C   UNL     1       8.175   8.709  18.060  0.00  0.00    +0.000 A 
ATOM      5  O   UNL     1       8.492   7.742  18.954  0.00  0.00    +0.000 OA
ATOM      6  C   UNL     1       7.867   6.637  18.475  0.00  0.00    +0.000 A 
ATOM      7  S   UNL     1       7.948   5.234  19.342  0.00  0.00    +0.000 S 
BRANCH   4   8
ATOM      8  C   UNL     1       8.744  10.027  18.386  0.00  0.00    +0.000 A 
ATOM      9  C   UNL     1       8.456  11.142  17.583  0.00  0.00    +0.000 A 
ATOM     10  C   UNL     1       8.949  12.406  17.920  0.00  0.00    +0.000 A 
ATOM     11  C   UNL     1       9.733  12.574  19.065  0.00  0.00    +0.000 A 
ATOM     12  C   UNL     1      10.239  13.934  19.459  0.00  0.00    +0.000 C 
ATOM     13  C   UNL     1      10.032  11.454  19.856  0.00  0.00    +0.000 A 
ATOM     14  C   UNL     1       9.549  10.185  19.515  0.00  0.00    +0.000 A 
ENDBRANCH   4   8
ENDBRANCH   1   2
BRANCH   1  15
ATOM     15  N   UNL     1       4.888   6.700  17.009  0.00  0.00    +0.000 N 
ATOM     16  H   UNL     1       4.966   7.623  17.429  0.00  0.00    +0.000 HD
BRANCH  15  22
ATOM     17  C   UNL     1       2.706   6.266  18.188  0.00  0.00    +0.000 A 
ATOM     18  C   UNL     1       1.865   5.340  18.843  0.00  0.00    +0.000 A 
ATOM     19  C   UNL     1       2.311   4.059  19.140  0.00  0.00    +0.000 A 
ATOM     20  C   UNL     1       3.595   3.687  18.746  0.00  0.00    +0.000 A 
ATOM     21  C   UNL     1       4.406   4.571  18.006  0.00  0.00    +0.000 A 
ATOM     22  C   UNL     1       3.965   5.872  17.676  0.00  0.00    +0.000 A 
BRANCH  20  23
ATOM     23  N   UNL     1       4.104   2.367  19.134  0.00  0.00    +0.000 N 
ATOM     24  O   UNL     1       4.920   2.315  20.065  0.00  0.00    +0.000 OA
ATOM     25  O   UNL     1       3.699   1.381  18.502  0.00  0.00    +0.000 OA
ENDBRANCH  20  23
BRANCH  17  27
ATOM     26  C   UNL     1       1.936   8.268  19.184  0.00  0.00    +0.000 C 
ATOM     27  O   UNL     1       2.252   7.545  17.989  0.00  0.00    +0.000 OA
ENDBRANCH  17  27
ENDBRANCH  15  22
ENDBRANCH   1  15
TORSDOF 6
ENDMDL
MODEL 5
REMARK VINA RESULT:      -7.6      3.887      6.928
REMARK  Name = 
REMARK  8 active torsions:
REMARK  status: ('A' for Active; 'I' for Inactive)
REMARK    1  A    between atoms: C_1  and  O_2
REMARK    2  A    between atoms: O_2  and  C_3
REMARK    3  A    between atoms: C_6  and  N_7
REMARK    4  A    between atoms: C_11  and  N_12
REMARK    5  A    between atoms: N_12  and  C_13
REMARK    6  A    between atoms: C_13  and  N_14
REMARK    7  A    between atoms: C_16  and  C_17
REMARK    8  A    between atoms: C_20  and  C_21
REMARK                            x       y       z     vdW  Elec       q    Type
REMARK                         _______ _______ _______ _____ _____    ______ ____
ROOT
ATOM      1  C   UNL     1       4.251   3.595  16.934  0.00  0.00    +0.000 C 
ENDROOT
BRANCH   1   2
ATOM      2  N   UNL     1       3.824   4.557  17.942  0.00  0.00    +0.000 N 
ATOM      3  N   UNL     1       3.396   5.840  17.626  0.00  0.00    +0.000 NA
ATOM      4  C   UNL     1       2.817   6.228  18.723  0.00  0.00    +0.000 A 
ATOM      5  O   UNL     1       2.825   5.340  19.745  0.00  0.00    +0.000 OA
ATOM      6  C   UNL     1       3.463   4.257  19.232  0.00  0.00    +0.000 A 
ATOM      7  S   UNL     1       3.611   2.902  20.163  0.00  0.00    +0.000 S 
BRANCH   4   8
ATOM      8  C   UNL     1       2.153   7.500  19.049  0.00  0.00    +0.000 A 
ATOM      9  C   UNL     1       1.702   7.751  20.354  0.00  0.00    +0.000 A 
ATOM     10  C   UNL     1       1.119   8.979  20.682  0.00  0.00    +0.000 A 
ATOM     11  C   UNL     1       0.981   9.974  19.710  0.00  0.00    +0.000 A 
ATOM     12  C   UNL     1       0.391  11.313  20.055  0.00  0.00    +0.000 C 
ATOM     13  C   UNL     1       1.419   9.714  18.402  0.00  0.00    +0.000 A 
ATOM     14  C   UNL     1       1.992   8.481  18.068  0.00  0.00    +0.000 A 
ENDBRANCH   4   8
ENDBRANCH   1   2
BRANCH   1  15
ATOM     15  N   UNL     1       5.683   3.723  16.716  0.00  0.00    +0.000 N 
ATOM     16  H   UNL     1       6.103   4.279  17.456  0.00  0.00    +0.000 HD
BRANCH  15  22
ATOM     17  C   UNL     1       7.118   5.061  15.138  0.00  0.00    +0.000 A 
ATOM     18  C   UNL     1       7.563   5.274  13.815  0.00  0.00    +0.000 A 
ATOM     19  C   UNL     1       6.995   4.581  12.754  0.00  0.00    +0.000 A 
ATOM     20  C   UNL     1       6.002   3.640  13.020  0.00  0.00    +0.000 A 
ATOM     21  C   UNL     1       5.621   3.351  14.346  0.00  0.00    +0.000 A 
ATOM     22  C   UNL     1       6.199   4.030  15.443  0.00  0.00    +0.000 A 
BRANCH  20  23
ATOM     23  N   UNL     1       5.337   2.970  11.897  0.00  0.00    +0.000 N 
ATOM     24  O   UNL     1       4.315   3.496  11.436  0.00  0.00    +0.000 OA
ATOM     25  O   UNL     1       5.828   1.910  11.483  0.00  0.00    +0.000 OA
ENDBRANCH  20  23
BRANCH  17  27
ATOM     26  C   UNL     1       6.726   6.716  16.782  0.00  0.00    +0.000 C 
ATOM     27  O   UNL     1       7.650   5.828  16.144  0.00  0.00    +0.000 OA
ENDBRANCH  17  27
ENDBRANCH  15  22
ENDBRANCH   1  15
TORSDOF 6
ENDMDL
MODEL 6
REMARK VINA RESULT:      -7.6      4.020      6.519
REMARK  Name = 
REMARK  8 active torsions:
REMARK  status: ('A' for Active; 'I' for Inactive)
REMARK    1  A    between atoms: C_1  and  O_2
REMARK    2  A    between atoms: O_2  and  C_3
REMARK    3  A    between atoms: C_6  and  N_7
REMARK    4  A    between atoms: C_11  and  N_12
REMARK    5  A    between atoms: N_12  and  C_13
REMARK    6  A    between atoms: C_13  and  N_14
REMARK    7  A    between atoms: C_16  and  C_17
REMARK    8  A    between atoms: C_20  and  C_21
REMARK                            x       y       z     vdW  Elec       q    Type
REMARK                         _______ _______ _______ _____ _____    ______ ____
ROOT
ATOM      1  C   UNL     1       3.062   3.185  17.645  0.00  0.00    +0.000 C 
ENDROOT
BRANCH   1   2
ATOM      2  N   UNL     1       2.879   4.370  18.473  0.00  0.00    +0.000 N 
ATOM      3  N   UNL     1       2.685   5.638  17.939  0.00  0.00    +0.000 NA
ATOM      4  C   UNL     1       2.250   6.315  18.960  0.00  0.00    +0.000 A 
ATOM      5  O   UNL     1       2.143   5.632  20.124  0.00  0.00    +0.000 OA
ATOM      6  C   UNL     1       2.536   4.373  19.802  0.00  0.00    +0.000 A 
ATOM      7  S   UNL     1       2.473   3.196  20.958  0.00  0.00    +0.000 S 
BRANCH   4   8
ATOM      8  C   UNL     1       1.856   7.729  19.064  0.00  0.00    +0.000 A 
ATOM      9  C   UNL     1       1.389   8.247  20.283  0.00  0.00    +0.000 A 
ATOM     10  C   UNL     1       1.066   9.602  20.402  0.00  0.00    +0.000 A 
ATOM     11  C   UNL     1       1.207  10.459  19.306  0.00  0.00    +0.000 A 
ATOM     12  C   UNL     1       0.899  11.925  19.429  0.00  0.00    +0.000 C 
ATOM     13  C   UNL     1       1.659   9.934  18.085  0.00  0.00    +0.000 A 
ATOM     14  C   UNL     1       1.972   8.575  17.960  0.00  0.00    +0.000 A 
ENDBRANCH   4   8
ENDBRANCH   1   2
BRANCH   1  15
ATOM     15  N   UNL     1       4.483   2.932  17.466  0.00  0.00    +0.000 N 
ATOM     16  H   UNL     1       4.827   2.322  18.203  0.00  0.00    +0.000 HD
BRANCH  15  22
ATOM     17  C   UNL     1       5.747   4.410  15.868  0.00  0.00    +0.000 A 
ATOM     18  C   UNL     1       6.656   5.476  15.689  0.00  0.00    +0.000 A 
ATOM     19  C   UNL     1       7.327   6.028  16.773  0.00  0.00    +0.000 A 
ATOM     20  C   UNL     1       7.059   5.537  18.049  0.00  0.00    +0.000 A 
ATOM     21  C   UNL     1       6.082   4.541  18.248  0.00  0.00    +0.000 A 
ATOM     22  C   UNL     1       5.374   3.978  17.162  0.00  0.00    +0.000 A 
BRANCH  20  23
ATOM     23  N   UNL     1       7.828   6.054  19.187  0.00  0.00    +0.000 N 
ATOM     24  O   UNL     1       8.482   7.093  19.016  0.00  0.00    +0.000 OA
ATOM     25  O   UNL     1       7.790   5.418  20.250  0.00  0.00    +0.000 OA
ENDBRANCH  20  23
BRANCH  17  27
ATOM     26  C   UNL     1       5.985   3.853  13.582  0.00  0.00    +0.000 C 
ATOM     27  O   UNL     1       5.171   3.842  14.760  0.00  0.00    +0.000 OA
ENDBRANCH  17  27
ENDBRANCH  15  22
ENDBRANCH   1  15
TORSDOF 6
ENDMDL
MODEL 7
REMARK VINA RESULT:      -7.6      0.993      1.161
REMARK  Name = 
REMARK  8 active torsions:
REMARK  status: ('A' for Active; 'I' for Inactive)
REMARK    1  A    between atoms: C_1  and  O_2
REMARK    2  A    between atoms: O_2  and  C_3
REMARK    3  A    between atoms: C_6  and  N_7
REMARK    4  A    between atoms: C_11  and  N_12
REMARK    5  A    between atoms: N_12  and  C_13
REMARK    6  A    between atoms: C_13  and  N_14
REMARK    7  A    between atoms: C_16  and  C_17
REMARK    8  A    between atoms: C_20  and  C_21
REMARK                            x       y       z     vdW  Elec       q    Type
REMARK                         _______ _______ _______ _____ _____    ______ ____
ROOT
ATOM      1  C   UNL     1       6.106   6.778  16.792  0.00  0.00    +0.000 C 
ENDROOT
BRANCH   1   2
ATOM      2  N   UNL     1       7.251   7.387  17.455  0.00  0.00    +0.000 N 
ATOM      3  N   UNL     1       7.572   8.732  17.321  0.00  0.00    +0.000 NA
ATOM      4  C   UNL     1       8.414   8.924  18.291  0.00  0.00    +0.000 A 
ATOM      5  O   UNL     1       8.699   7.843  19.054  0.00  0.00    +0.000 OA
ATOM      6  C   UNL     1       7.935   6.856  18.521  0.00  0.00    +0.000 A 
ATOM      7  S   UNL     1       7.942   5.366  19.232  0.00  0.00    +0.000 S 
BRANCH   4   8
ATOM      8  C   UNL     1       9.132  10.143  18.700  0.00  0.00    +0.000 A 
ATOM      9  C   UNL     1       9.281  10.456  20.060  0.00  0.00    +0.000 A 
ATOM     10  C   UNL     1      10.009  11.583  20.454  0.00  0.00    +0.000 A 
ATOM     11  C   UNL     1      10.600  12.411  19.495  0.00  0.00    +0.000 A 
ATOM     12  C   UNL     1      11.416  13.605  19.905  0.00  0.00    +0.000 C 
ATOM     13  C   UNL     1      10.436  12.103  18.136  0.00  0.00    +0.000 A 
ATOM     14  C   UNL     1       9.697  10.981  17.737  0.00  0.00    +0.000 A 
ENDBRANCH   4   8
ENDBRANCH   1   2
BRANCH   1  15
ATOM     15  N   UNL     1       4.888   7.129  17.503  0.00  0.00    +0.000 N 
ATOM     16  H   UNL     1       5.102   7.748  18.281  0.00  0.00    +0.000 HD
BRANCH  15  22
ATOM     17  C   UNL     1       2.542   6.362  18.003  0.00  0.00    +0.000 A 
ATOM     18  C   UNL     1       1.679   5.296  18.335  0.00  0.00    +0.000 A 
ATOM     19  C   UNL     1       2.185   4.042  18.653  0.00  0.00    +0.000 A 
ATOM     20  C   UNL     1       3.563   3.842  18.601  0.00  0.00    +0.000 A 
ATOM     21  C   UNL     1       4.425   4.872  18.177  0.00  0.00    +0.000 A 
ATOM     22  C   UNL     1       3.931   6.150  17.831  0.00  0.00    +0.000 A 
BRANCH  20  23
ATOM     23  N   UNL     1       4.110   2.546  19.020  0.00  0.00    +0.000 N 
ATOM     24  O   UNL     1       3.668   1.529  18.468  0.00  0.00    +0.000 OA
ATOM     25  O   UNL     1       4.974   2.543  19.909  0.00  0.00    +0.000 OA
ENDBRANCH  20  23
BRANCH  17  27
ATOM     26  C   UNL     1       1.912   8.442  18.935  0.00  0.00    +0.000 C 
ATOM     27  O   UNL     1       2.002   7.603  17.779  0.00  0.00    +0.000 OA
ENDBRANCH  17  27
ENDBRANCH  15  22
ENDBRANCH   1  15
TORSDOF 6
ENDMDL
MODEL 8
REMARK VINA RESULT:      -7.6      4.035      6.677
REMARK  Name = 
REMARK  8 active torsions:
REMARK  status: ('A' for Active; 'I' for Inactive)
REMARK    1  A    between atoms: C_1  and  O_2
REMARK    2  A    between atoms: O_2  and  C_3
REMARK    3  A    between atoms: C_6  and  N_7
REMARK    4  A    between atoms: C_11  and  N_12
REMARK    5  A    between atoms: N_12  and  C_13
REMARK    6  A    between atoms: C_13  and  N_14
REMARK    7  A    between atoms: C_16  and  C_17
REMARK    8  A    between atoms: C_20  and  C_21
REMARK                            x       y       z     vdW  Elec       q    Type
REMARK                         _______ _______ _______ _____ _____    ______ ____
ROOT
ATOM      1  C   UNL     1       2.996   3.363  17.490  0.00  0.00    +0.000 C 
ENDROOT
BRANCH   1   2
ATOM      2  N   UNL     1       2.819   4.468  18.423  0.00  0.00    +0.000 N 
ATOM      3  N   UNL     1       2.614   5.778  18.009  0.00  0.00    +0.000 NA
ATOM      4  C   UNL     1       2.188   6.357  19.093  0.00  0.00    +0.000 A 
ATOM      5  O   UNL     1       2.099   5.571  20.191  0.00  0.00    +0.000 OA
ATOM      6  C   UNL     1       2.492   4.349  19.752  0.00  0.00    +0.000 A 
ATOM      7  S   UNL     1       2.449   3.071  20.796  0.00  0.00    +0.000 S 
BRANCH   4   8
ATOM      8  C   UNL     1       1.791   7.754  19.330  0.00  0.00    +0.000 A 
ATOM      9  C   UNL     1       1.751   8.671  18.268  0.00  0.00    +0.000 A 
ATOM     10  C   UNL     1       1.322   9.984  18.478  0.00  0.00    +0.000 A 
ATOM     11  C   UNL     1       0.923  10.400  19.752  0.00  0.00    +0.000 A 
ATOM     12  C   UNL     1       0.424  11.799  19.986  0.00  0.00    +0.000 C 
ATOM     13  C   UNL     1       0.979   9.485  20.815  0.00  0.00    +0.000 A 
ATOM     14  C   UNL     1       1.420   8.172  20.609  0.00  0.00    +0.000 A 
ENDBRANCH   4   8
ENDBRANCH   1   2
BRANCH   1  15
ATOM     15  N   UNL     1       4.410   3.041  17.380  0.00  0.00    +0.000 N 
ATOM     16  H   UNL     1       4.694   2.440  18.149  0.00  0.00    +0.000 HD
BRANCH  15  22
ATOM     17  C   UNL     1       5.808   4.408  15.794  0.00  0.00    +0.000 A 
ATOM     18  C   UNL     1       6.771   5.425  15.624  0.00  0.00    +0.000 A 
ATOM     19  C   UNL     1       7.421   5.981  16.718  0.00  0.00    +0.000 A 
ATOM     20  C   UNL     1       7.077   5.545  17.996  0.00  0.00    +0.000 A 
ATOM     21  C   UNL     1       6.047   4.601  18.182  0.00  0.00    +0.000 A 
ATOM     22  C   UNL     1       5.360   4.036  17.084  0.00  0.00    +0.000 A 
BRANCH  20  23
ATOM     23  N   UNL     1       7.820   6.064  19.150  0.00  0.00    +0.000 N 
ATOM     24  O   UNL     1       7.708   5.460  20.226  0.00  0.00    +0.000 OA
ATOM     25  O   UNL     1       8.507   7.083  18.986  0.00  0.00    +0.000 OA
ENDBRANCH  20  23
BRANCH  17  27
ATOM     26  C   UNL     1       6.047   3.922  13.492  0.00  0.00    +0.000 C 
ATOM     27  O   UNL     1       5.253   3.831  14.680  0.00  0.00    +0.000 OA
ENDBRANCH  17  27
ENDBRANCH  15  22
ENDBRANCH   1  15
TORSDOF 6
ENDMDL
MODEL 9
REMARK VINA RESULT:      -7.5      4.028      6.662
REMARK  Name = 
REMARK  8 active torsions:
REMARK  status: ('A' for Active; 'I' for Inactive)
REMARK    1  A    between atoms: C_1  and  O_2
REMARK    2  A    between atoms: O_2  and  C_3
REMARK    3  A    between atoms: C_6  and  N_7
REMARK    4  A    between atoms: C_11  and  N_12
REMARK    5  A    between atoms: N_12  and  C_13
REMARK    6  A    between atoms: C_13  and  N_14
REMARK    7  A    between atoms: C_16  and  C_17
REMARK    8  A    between atoms: C_20  and  C_21
REMARK                            x       y       z     vdW  Elec       q    Type
REMARK                         _______ _______ _______ _____ _____    ______ ____
ROOT
ATOM      1  C   UNL     1       3.241   3.421  17.836  0.00  0.00    +0.000 C 
ENDROOT
BRANCH   1   2
ATOM      2  N   UNL     1       2.967   4.561  18.702  0.00  0.00    +0.000 N 
ATOM      3  N   UNL     1       2.822   5.855  18.220  0.00  0.00    +0.000 NA
ATOM      4  C   UNL     1       2.279   6.476  19.225  0.00  0.00    +0.000 A 
ATOM      5  O   UNL     1       2.056   5.732  20.333  0.00  0.00    +0.000 OA
ATOM      6  C   UNL     1       2.487   4.492  19.987  0.00  0.00    +0.000 A 
ATOM      7  S   UNL     1       2.312   3.255  21.065  0.00  0.00    +0.000 S 
BRANCH   4   8
ATOM      8  C   UNL     1       1.869   7.883  19.363  0.00  0.00    +0.000 A 
ATOM      9  C   UNL     1       1.929   8.751  18.262  0.00  0.00    +0.000 A 
ATOM     10  C   UNL     1       1.490  10.074  18.374  0.00  0.00    +0.000 A 
ATOM     11  C   UNL     1       0.981  10.546  19.588  0.00  0.00    +0.000 A 
ATOM     12  C   UNL     1       0.470  11.954  19.714  0.00  0.00    +0.000 C 
ATOM     13  C   UNL     1       0.936   9.679  20.691  0.00  0.00    +0.000 A 
ATOM     14  C   UNL     1       1.387   8.358  20.585  0.00  0.00    +0.000 A 
ENDBRANCH   4   8
ENDBRANCH   1   2
BRANCH   1  15
ATOM     15  N   UNL     1       4.670   3.150  17.827  0.00  0.00    +0.000 N 
ATOM     16  H   UNL     1       5.023   3.094  18.779  0.00  0.00    +0.000 HD
BRANCH  15  22
ATOM     17  C   UNL     1       6.365   4.939  17.312  0.00  0.00    +0.000 A 
ATOM     18  C   UNL     1       7.192   5.561  16.352  0.00  0.00    +0.000 A 
ATOM     19  C   UNL     1       7.101   5.222  15.007  0.00  0.00    +0.000 A 
ATOM     20  C   UNL     1       6.204   4.226  14.625  0.00  0.00    +0.000 A 
ATOM     21  C   UNL     1       5.445   3.533  15.589  0.00  0.00    +0.000 A 
ATOM     22  C   UNL     1       5.535   3.847  16.963  0.00  0.00    +0.000 A 
BRANCH  20  23
ATOM     23  N   UNL     1       6.040   3.925  13.199  0.00  0.00    +0.000 N 
ATOM     24  O   UNL     1       4.929   3.531  12.817  0.00  0.00    +0.000 OA
ATOM     25  O   UNL     1       7.024   4.071  12.459  0.00  0.00    +0.000 OA
ENDBRANCH  20  23
BRANCH  17  27
ATOM     26  C   UNL     1       7.684   5.939  19.001  0.00  0.00    +0.000 C 
ATOM     27  O   UNL     1       6.431   5.365  18.614  0.00  0.00    +0.000 OA
ENDBRANCH  17  27
ENDBRANCH  15  22
ENDBRANCH   1  15
TORSDOF 6
ENDMDL
