MODEL 1
REMARK VINA RESULT:      -7.8      0.000      0.000
REMARK  Name = 
REMARK  14 active torsions:
REMARK  status: ('A' for Active; 'I' for Inactive)
REMARK    1  A    between atoms: C_1  and  C_2
REMARK    2  A    between atoms: C_2  and  C_3
REMARK    3  A    between atoms: C_3  and  C_4
REMARK    4  A    between atoms: C_4  and  C_5
REMARK    5  A    between atoms: C_5  and  C_6
REMARK    6  A    between atoms: C_6  and  N_7
REMARK    7  A    between atoms: N_11  and  C_12
REMARK    8  A    between atoms: C_12  and  C_13
REMARK    9  A    between atoms: C_17  and  C_18
REMARK   10  A    between atoms: N_20  and  C_21
REMARK   11  A    between atoms: C_24  and  C_25
REMARK   12  A    between atoms: C_25  and  C_26
REMARK   13  A    between atoms: C_25  and  C_27
REMARK   14  A    between atoms: C_25  and  C_28
REMARK                            x       y       z     vdW  Elec       q    Type
REMARK                         _______ _______ _______ _____ _____    ______ ____
ROOT
ATOM      1  C   UNL     1       3.486   5.366  19.011  0.00  0.00    +0.000 A 
ATOM      2  C   UNL     1       2.844   4.251  19.580  0.00  0.00    +0.000 A 
ATOM      3  C   UNL     1       1.781   4.416  20.467  0.00  0.00    +0.000 A 
ATOM      4  C   UNL     1       1.332   5.695  20.782  0.00  0.00    +0.000 A 
ATOM      5  C   UNL     1       1.940   6.813  20.199  0.00  0.00    +0.000 A 
ATOM      6  C   UNL     1       3.014   6.648  19.318  0.00  0.00    +0.000 A 
ENDROOT
BRANCH   5   7
ATOM      7  C   UNL     1       1.459   8.164  20.584  0.00  0.00    +0.000 C 
ATOM      8  O   UNL     1       1.458   8.451  21.777  0.00  0.00    +0.000 OA
ATOM      9  N   UNL     1       1.012   8.956  19.541  0.00  0.00    +0.000 N 
ATOM     10  H   UNL     1       0.877   8.515  18.639  0.00  0.00    +0.000 HD
BRANCH   9  11
ATOM     11  C   UNL     1       0.636  10.313  19.637  0.00  0.00    +0.000 A 
ATOM     12  C   UNL     1      -0.449  10.747  20.387  0.00  0.00    +0.000 A 
ATOM     13  C   UNL     1      -0.752  12.106  20.499  0.00  0.00    +0.000 A 
ATOM     14  C   UNL     1       0.022  13.085  19.863  0.00  0.00    +0.000 A 
ATOM     15  C   UNL     1       1.101  12.634  19.079  0.00  0.00    +0.000 A 
ATOM     16  C   UNL     1       1.416  11.269  18.979  0.00  0.00    +0.000 A 
BRANCH  14  17
ATOM     17  C   UNL     1      -0.254  14.586  20.048  0.00  0.00    +0.000 C 
ATOM     18  C   UNL     1      -0.159  15.394  18.732  0.00  0.00    +0.000 C 
ATOM     19  C   UNL     1      -1.687  14.777  20.593  0.00  0.00    +0.000 C 
ATOM     20  C   UNL     1       0.750  15.206  21.039  0.00  0.00    +0.000 C 
ENDBRANCH  14  17
ENDBRANCH   9  11
ENDBRANCH   5   7
BRANCH   1  21
ATOM     21  C   UNL     1       4.605   5.159  18.015  0.00  0.00    +0.000 C 
BRANCH  21  26
ATOM     22  N   UNL     1       7.047   5.547  15.245  0.00  0.00    +0.000 NA
ATOM     23  C   UNL     1       7.149   4.314  16.049  0.00  0.00    +0.000 C 
ATOM     24  C   UNL     1       7.685   4.398  17.478  0.00  0.00    +0.000 C 
ATOM     25  C   UNL     1       7.038   5.321  18.509  0.00  0.00    +0.000 C 
ATOM     26  N   UNL     1       5.785   6.005  18.212  0.00  0.00    +0.000 NA
ATOM     27  C   UNL     1       5.982   6.979  17.134  0.00  0.00    +0.000 C 
ATOM     28  C   UNL     1       5.971   6.459  15.684  0.00  0.00    +0.000 C 
BRANCH  22  29
ATOM     29  C   UNL     1       6.787   5.128  13.839  0.00  0.00    +0.000 C 
BRANCH  29  30
ATOM     30  C   UNL     1       6.188   3.731  13.633  0.00  0.00    +0.000 C 
BRANCH  30  31
ATOM     31  C   UNL     1       6.526   3.129  12.270  0.00  0.00    +0.000 C 
BRANCH  31  32
ATOM     32  C   UNL     1       5.274   2.537  11.622  0.00  0.00    +0.000 C 
BRANCH  32  34
ATOM     33  C   UNL     1       3.315   3.400  10.308  0.00  0.00    +0.000 C 
ATOM     34  C   UNL     1       4.133   3.549  11.581  0.00  0.00    +0.000 C 
ENDBRANCH  32  34
ENDBRANCH  31  32
ENDBRANCH  30  31
ENDBRANCH  29  30
ENDBRANCH  22  29
ENDBRANCH  21  26
ENDBRANCH   1  21
TORSDOF 10
ENDMDL
MODEL 2
REMARK VINA RESULT:      -7.7      1.646      2.220
REMARK  Name = 
REMARK  14 active torsions:
REMARK  status: ('A' for Active; 'I' for Inactive)
REMARK    1  A    between atoms: C_1  and  C_2
REMARK    2  A    between atoms: C_2  and  C_3
REMARK    3  A    between atoms: C_3  and  C_4
REMARK    4  A    between atoms: C_4  and  C_5
REMARK    5  A    between atoms: C_5  and  C_6
REMARK    6  A    between atoms: C_6  and  N_7
REMARK    7  A    between atoms: N_11  and  C_12
REMARK    8  A    between atoms: C_12  and  C_13
REMARK    9  A    between atoms: C_17  and  C_18
REMARK   10  A    between atoms: N_20  and  C_21
REMARK   11  A    between atoms: C_24  and  C_25
REMARK   12  A    between atoms: C_25  and  C_26
REMARK   13  A    between atoms: C_25  and  C_27
REMARK   14  A    between atoms: C_25  and  C_28
REMARK                            x       y       z     vdW  Elec       q    Type
REMARK                         _______ _______ _______ _____ _____    ______ ____
ROOT
ATOM      1  C   UNL     1       3.695   5.108  19.398  0.00  0.00    +0.000 A 
ATOM      2  C   UNL     1       2.903   4.049  19.877  0.00  0.00    +0.000 A 
ATOM      3  C   UNL     1       1.660   4.295  20.459  0.00  0.00    +0.000 A 
ATOM      4  C   UNL     1       1.184   5.599  20.553  0.00  0.00    +0.000 A 
ATOM      5  C   UNL     1       1.947   6.660  20.052  0.00  0.00    +0.000 A 
ATOM      6  C   UNL     1       3.199   6.415  19.479  0.00  0.00    +0.000 A 
ENDROOT
BRANCH   5   7
ATOM      7  C   UNL     1       1.425   8.042  20.200  0.00  0.00    +0.000 C 
ATOM      8  O   UNL     1       1.710   8.857  19.329  0.00  0.00    +0.000 OA
ATOM      9  N   UNL     1       0.694   8.281  21.352  0.00  0.00    +0.000 N 
ATOM     10  H   UNL     1       0.714   7.575  22.077  0.00  0.00    +0.000 HD
BRANCH   9  11
ATOM     11  C   UNL     1      -0.012   9.466  21.650  0.00  0.00    +0.000 A 
ATOM     12  C   UNL     1      -0.441  10.357  20.674  0.00  0.00    +0.000 A 
ATOM     13  C   UNL     1      -1.185  11.491  21.009  0.00  0.00    +0.000 A 
ATOM     14  C   UNL     1      -1.530  11.776  22.337  0.00  0.00    +0.000 A 
ATOM     15  C   UNL     1      -1.064  10.884  23.322  0.00  0.00    +0.000 A 
ATOM     16  C   UNL     1      -0.329   9.736  22.985  0.00  0.00    +0.000 A 
BRANCH  14  17
ATOM     17  C   UNL     1      -2.419  12.976  22.706  0.00  0.00    +0.000 C 
ATOM     18  C   UNL     1      -1.660  14.090  23.465  0.00  0.00    +0.000 C 
ATOM     19  C   UNL     1      -2.980  13.610  21.414  0.00  0.00    +0.000 C 
ATOM     20  C   UNL     1      -3.591  12.530  23.600  0.00  0.00    +0.000 C 
ENDBRANCH  14  17
ENDBRANCH   9  11
ENDBRANCH   5   7
BRANCH   1  21
ATOM     21  C   UNL     1       5.018   4.811  18.729  0.00  0.00    +0.000 C 
BRANCH  21  26
ATOM     22  N   UNL     1       7.210   5.513  15.815  0.00  0.00    +0.000 NA
ATOM     23  C   UNL     1       7.581   4.362  16.659  0.00  0.00    +0.000 C 
ATOM     24  C   UNL     1       8.158   4.613  18.051  0.00  0.00    +0.000 C 
ATOM     25  C   UNL     1       7.397   5.448  19.080  0.00  0.00    +0.000 C 
ATOM     26  N   UNL     1       6.025   5.871  18.827  0.00  0.00    +0.000 NA
ATOM     27  C   UNL     1       5.983   6.811  17.703  0.00  0.00    +0.000 C 
ATOM     28  C   UNL     1       6.003   6.229  16.277  0.00  0.00    +0.000 C 
BRANCH  22  29
ATOM     29  C   UNL     1       6.967   4.986  14.442  0.00  0.00    +0.000 C 
BRANCH  29  30
ATOM     30  C   UNL     1       5.935   3.859  14.306  0.00  0.00    +0.000 C 
BRANCH  30  31
ATOM     31  C   UNL     1       5.230   3.853  12.951  0.00  0.00    +0.000 C 
BRANCH  31  32
ATOM     32  C   UNL     1       5.841   2.791  12.036  0.00  0.00    +0.000 C 
BRANCH  32  34
ATOM     33  C   UNL     1       3.626   3.253  10.945  0.00  0.00    +0.000 C 
ATOM     34  C   UNL     1       4.877   2.390  10.924  0.00  0.00    +0.000 C 
ENDBRANCH  32  34
ENDBRANCH  31  32
ENDBRANCH  30  31
ENDBRANCH  29  30
ENDBRANCH  22  29
ENDBRANCH  21  26
ENDBRANCH   1  21
TORSDOF 10
ENDMDL
MODEL 3
REMARK VINA RESULT:      -7.7      2.718      4.571
REMARK  Name = 
REMARK  14 active torsions:
REMARK  status: ('A' for Active; 'I' for Inactive)
REMARK    1  A    between atoms: C_1  and  C_2
REMARK    2  A    between atoms: C_2  and  C_3
REMARK    3  A    between atoms: C_3  and  C_4
REMARK    4  A    between atoms: C_4  and  C_5
REMARK    5  A    between atoms: C_5  and  C_6
REMARK    6  A    between atoms: C_6  and  N_7
REMARK    7  A    between atoms: N_11  and  C_12
REMARK    8  A    between atoms: C_12  and  C_13
REMARK    9  A    between atoms: C_17  and  C_18
REMARK   10  A    between atoms: N_20  and  C_21
REMARK   11  A    between atoms: C_24  and  C_25
REMARK   12  A    between atoms: C_25  and  C_26
REMARK   13  A    between atoms: C_25  and  C_27
REMARK   14  A    between atoms: C_25  and  C_28
REMARK                            x       y       z     vdW  Elec       q    Type
REMARK                         _______ _______ _______ _____ _____    ______ ____
ROOT
ATOM      1  C   UNL     1       2.418   7.245  19.506  0.00  0.00    +0.000 A 
ATOM      2  C   UNL     1       2.535   7.765  18.203  0.00  0.00    +0.000 A 
ATOM      3  C   UNL     1       1.809   8.891  17.817  0.00  0.00    +0.000 A 
ATOM      4  C   UNL     1       0.971   9.522  18.731  0.00  0.00    +0.000 A 
ATOM      5  C   UNL     1       0.868   9.035  20.039  0.00  0.00    +0.000 A 
ATOM      6  C   UNL     1       1.588   7.900  20.423  0.00  0.00    +0.000 A 
ENDROOT
BRANCH   5   7
ATOM      7  C   UNL     1      -0.062   9.713  20.977  0.00  0.00    +0.000 C 
ATOM      8  O   UNL     1      -0.439   9.084  21.961  0.00  0.00    +0.000 OA
ATOM      9  N   UNL     1      -0.449  10.991  20.612  0.00  0.00    +0.000 N 
ATOM     10  H   UNL     1      -0.224  11.301  19.675  0.00  0.00    +0.000 HD
BRANCH   9  11
ATOM     11  C   UNL     1      -1.212  11.879  21.400  0.00  0.00    +0.000 A 
ATOM     12  C   UNL     1      -0.796  12.335  22.644  0.00  0.00    +0.000 A 
ATOM     13  C   UNL     1      -1.557  13.256  23.366  0.00  0.00    +0.000 A 
ATOM     14  C   UNL     1      -2.767  13.759  22.869  0.00  0.00    +0.000 A 
ATOM     15  C   UNL     1      -3.195  13.268  21.621  0.00  0.00    +0.000 A 
ATOM     16  C   UNL     1      -2.423  12.353  20.887  0.00  0.00    +0.000 A 
BRANCH  14  17
ATOM     17  C   UNL     1      -3.569  14.836  23.619  0.00  0.00    +0.000 C 
ATOM     18  C   UNL     1      -3.449  16.242  22.986  0.00  0.00    +0.000 C 
ATOM     19  C   UNL     1      -5.067  14.459  23.602  0.00  0.00    +0.000 C 
ATOM     20  C   UNL     1      -3.093  14.950  25.080  0.00  0.00    +0.000 C 
ENDBRANCH  14  17
ENDBRANCH   9  11
ENDBRANCH   5   7
BRANCH   1  21
ATOM     21  C   UNL     1       3.253   6.051  19.914  0.00  0.00    +0.000 C 
BRANCH  21  26
ATOM     22  N   UNL     1       4.041   3.187  17.686  0.00  0.00    +0.000 NA
ATOM     23  C   UNL     1       3.167   4.237  17.130  0.00  0.00    +0.000 C 
ATOM     24  C   UNL     1       1.731   4.359  17.638  0.00  0.00    +0.000 C 
ATOM     25  C   UNL     1       1.436   4.546  19.125  0.00  0.00    +0.000 C 
ATOM     26  N   UNL     1       2.516   4.794  20.072  0.00  0.00    +0.000 NA
ATOM     27  C   UNL     1       3.391   3.622  20.165  0.00  0.00    +0.000 C 
ATOM     28  C   UNL     1       4.467   3.441  19.078  0.00  0.00    +0.000 C 
BRANCH  22  29
ATOM     29  C   UNL     1       5.247   3.116  16.813  0.00  0.00    +0.000 C 
BRANCH  29  30
ATOM     30  C   UNL     1       5.556   4.353  15.959  0.00  0.00    +0.000 C 
BRANCH  30  31
ATOM     31  C   UNL     1       7.015   4.795  16.051  0.00  0.00    +0.000 C 
BRANCH  31  32
ATOM     32  C   UNL     1       7.538   4.618  17.477  0.00  0.00    +0.000 C 
BRANCH  32  34
ATOM     33  C   UNL     1       7.428   7.127  17.462  0.00  0.00    +0.000 C 
ATOM     34  C   UNL     1       7.317   5.874  18.315  0.00  0.00    +0.000 C 
ENDBRANCH  32  34
ENDBRANCH  31  32
ENDBRANCH  30  31
ENDBRANCH  29  30
ENDBRANCH  22  29
ENDBRANCH  21  26
ENDBRANCH   1  21
TORSDOF 10
ENDMDL
MODEL 4
REMARK VINA RESULT:      -7.6      2.619      5.039
REMARK  Name = 
REMARK  14 active torsions:
REMARK  status: ('A' for Active; 'I' for Inactive)
REMARK    1  A    between atoms: C_1  and  C_2
REMARK    2  A    between atoms: C_2  and  C_3
REMARK    3  A    between atoms: C_3  and  C_4
REMARK    4  A    between atoms: C_4  and  C_5
REMARK    5  A    between atoms: C_5  and  C_6
REMARK    6  A    between atoms: C_6  and  N_7
REMARK    7  A    between atoms: N_11  and  C_12
REMARK    8  A    between atoms: C_12  and  C_13
REMARK    9  A    between atoms: C_17  and  C_18
REMARK   10  A    between atoms: N_20  and  C_21
REMARK   11  A    between atoms: C_24  and  C_25
REMARK   12  A    between atoms: C_25  and  C_26
REMARK   13  A    between atoms: C_25  and  C_27
REMARK   14  A    between atoms: C_25  and  C_28
REMARK                            x       y       z     vdW  Elec       q    Type
REMARK                         _______ _______ _______ _____ _____    ______ ____
ROOT
ATOM      1  C   UNL     1       3.096   5.543  18.542  0.00  0.00    +0.000 A 
ATOM      2  C   UNL     1       2.742   4.550  19.474  0.00  0.00    +0.000 A 
ATOM      3  C   UNL     1       1.965   4.863  20.589  0.00  0.00    +0.000 A 
ATOM      4  C   UNL     1       1.517   6.167  20.778  0.00  0.00    +0.000 A 
ATOM      5  C   UNL     1       1.834   7.158  19.842  0.00  0.00    +0.000 A 
ATOM      6  C   UNL     1       2.623   6.847  18.730  0.00  0.00    +0.000 A 
ENDROOT
BRANCH   5   7
ATOM      7  C   UNL     1       1.368   8.546  20.093  0.00  0.00    +0.000 C 
ATOM      8  O   UNL     1       1.573   9.383  19.220  0.00  0.00    +0.000 OA
ATOM      9  N   UNL     1       0.782   8.762  21.328  0.00  0.00    +0.000 N 
ATOM     10  H   UNL     1       0.867   8.032  22.024  0.00  0.00    +0.000 HD
BRANCH   9  11
ATOM     11  C   UNL     1       0.146   9.952  21.743  0.00  0.00    +0.000 A 
ATOM     12  C   UNL     1       0.262  11.152  21.053  0.00  0.00    +0.000 A 
ATOM     13  C   UNL     1      -0.429  12.293  21.468  0.00  0.00    +0.000 A 
ATOM     14  C   UNL     1      -1.266  12.275  22.592  0.00  0.00    +0.000 A 
ATOM     15  C   UNL     1      -1.353  11.063  23.302  0.00  0.00    +0.000 A 
ATOM     16  C   UNL     1      -0.671   9.911  22.877  0.00  0.00    +0.000 A 
BRANCH  14  17
ATOM     17  C   UNL     1      -2.094  13.503  23.007  0.00  0.00    +0.000 C 
ATOM     18  C   UNL     1      -3.364  13.141  23.814  0.00  0.00    +0.000 C 
ATOM     19  C   UNL     1      -1.233  14.419  23.905  0.00  0.00    +0.000 C 
ATOM     20  C   UNL     1      -2.551  14.296  21.767  0.00  0.00    +0.000 C 
ENDBRANCH  14  17
ENDBRANCH   9  11
ENDBRANCH   5   7
BRANCH   1  21
ATOM     21  C   UNL     1       3.900   5.168  17.317  0.00  0.00    +0.000 C 
BRANCH  21  26
ATOM     22  N   UNL     1       7.473   5.777  18.121  0.00  0.00    +0.000 NA
ATOM     23  C   UNL     1       7.078   5.928  16.708  0.00  0.00    +0.000 C 
ATOM     24  C   UNL     1       6.742   4.683  15.890  0.00  0.00    +0.000 C 
ATOM     25  C   UNL     1       5.664   3.704  16.351  0.00  0.00    +0.000 C 
ATOM     26  N   UNL     1       4.803   4.026  17.483  0.00  0.00    +0.000 NA
ATOM     27  C   UNL     1       5.590   4.088  18.718  0.00  0.00    +0.000 C 
ATOM     28  C   UNL     1       6.362   5.388  19.014  0.00  0.00    +0.000 C 
BRANCH  22  29
ATOM     29  C   UNL     1       8.016   7.092  18.564  0.00  0.00    +0.000 C 
BRANCH  29  30
ATOM     30  C   UNL     1       8.101   8.198  17.504  0.00  0.00    +0.000 C 
BRANCH  30  31
ATOM     31  C   UNL     1       8.060   9.604  18.101  0.00  0.00    +0.000 C 
BRANCH  31  32
ATOM     32  C   UNL     1       9.254   9.826  19.029  0.00  0.00    +0.000 C 
BRANCH  32  34
ATOM     33  C   UNL     1      10.472  11.757  20.077  0.00  0.00    +0.000 C 
ATOM     34  C   UNL     1       9.906  11.184  18.787  0.00  0.00    +0.000 C 
ENDBRANCH  32  34
ENDBRANCH  31  32
ENDBRANCH  30  31
ENDBRANCH  29  30
ENDBRANCH  22  29
ENDBRANCH  21  26
ENDBRANCH   1  21
TORSDOF 10
ENDMDL
MODEL 5
REMARK VINA RESULT:      -7.6      1.762      2.417
REMARK  Name = 
REMARK  14 active torsions:
REMARK  status: ('A' for Active; 'I' for Inactive)
REMARK    1  A    between atoms: C_1  and  C_2
REMARK    2  A    between atoms: C_2  and  C_3
REMARK    3  A    between atoms: C_3  and  C_4
REMARK    4  A    between atoms: C_4  and  C_5
REMARK    5  A    between atoms: C_5  and  C_6
REMARK    6  A    between atoms: C_6  and  N_7
REMARK    7  A    between atoms: N_11  and  C_12
REMARK    8  A    between atoms: C_12  and  C_13
REMARK    9  A    between atoms: C_17  and  C_18
REMARK   10  A    between atoms: N_20  and  C_21
REMARK   11  A    between atoms: C_24  and  C_25
REMARK   12  A    between atoms: C_25  and  C_26
REMARK   13  A    between atoms: C_25  and  C_27
REMARK   14  A    between atoms: C_25  and  C_28
REMARK                            x       y       z     vdW  Elec       q    Type
REMARK                         _______ _______ _______ _____ _____    ______ ____
ROOT
ATOM      1  C   UNL     1       3.122   6.319  18.561  0.00  0.00    +0.000 A 
ATOM      2  C   UNL     1       2.960   5.317  19.535  0.00  0.00    +0.000 A 
ATOM      3  C   UNL     1       2.186   5.547  20.673  0.00  0.00    +0.000 A 
ATOM      4  C   UNL     1       1.549   6.773  20.842  0.00  0.00    +0.000 A 
ATOM      5  C   UNL     1       1.675   7.767  19.865  0.00  0.00    +0.000 A 
ATOM      6  C   UNL     1       2.461   7.542  18.731  0.00  0.00    +0.000 A 
ENDROOT
BRANCH   5   7
ATOM      7  C   UNL     1       1.011   9.075  20.095  0.00  0.00    +0.000 C 
ATOM      8  O   UNL     1       0.620   9.697  19.113  0.00  0.00    +0.000 OA
ATOM      9  N   UNL     1       0.942   9.483  21.416  0.00  0.00    +0.000 N 
ATOM     10  H   UNL     1       1.488   8.970  22.096  0.00  0.00    +0.000 HD
BRANCH   9  11
ATOM     11  C   UNL     1       0.246  10.614  21.896  0.00  0.00    +0.000 A 
ATOM     12  C   UNL     1       0.486  11.902  21.435  0.00  0.00    +0.000 A 
ATOM     13  C   UNL     1      -0.265  12.985  21.898  0.00  0.00    +0.000 A 
ATOM     14  C   UNL     1      -1.287  12.820  22.841  0.00  0.00    +0.000 A 
ATOM     15  C   UNL     1      -1.502  11.516  23.325  0.00  0.00    +0.000 A 
ATOM     16  C   UNL     1      -0.758  10.423  22.849  0.00  0.00    +0.000 A 
BRANCH  14  17
ATOM     17  C   UNL     1      -2.173  13.993  23.293  0.00  0.00    +0.000 C 
ATOM     18  C   UNL     1      -1.480  14.926  24.314  0.00  0.00    +0.000 C 
ATOM     19  C   UNL     1      -2.539  14.857  22.066  0.00  0.00    +0.000 C 
ATOM     20  C   UNL     1      -3.467  13.476  23.951  0.00  0.00    +0.000 C 
ENDBRANCH  14  17
ENDBRANCH   9  11
ENDBRANCH   5   7
BRANCH   1  21
ATOM     21  C   UNL     1       3.928   6.028  17.314  0.00  0.00    +0.000 C 
BRANCH  21  26
ATOM     22  N   UNL     1       6.585   4.525  15.201  0.00  0.00    +0.000 NA
ATOM     23  C   UNL     1       6.365   3.910  16.524  0.00  0.00    +0.000 C 
ATOM     24  C   UNL     1       6.804   4.663  17.779  0.00  0.00    +0.000 C 
ATOM     25  C   UNL     1       6.298   6.075  18.068  0.00  0.00    +0.000 C 
ATOM     26  N   UNL     1       5.244   6.668  17.253  0.00  0.00    +0.000 NA
ATOM     27  C   UNL     1       5.720   6.879  15.882  0.00  0.00    +0.000 C 
ATOM     28  C   UNL     1       5.701   5.675  14.922  0.00  0.00    +0.000 C 
BRANCH  22  29
ATOM     29  C   UNL     1       6.341   3.465  14.182  0.00  0.00    +0.000 C 
BRANCH  29  30
ATOM     30  C   UNL     1       6.322   3.909  12.714  0.00  0.00    +0.000 C 
BRANCH  30  31
ATOM     31  C   UNL     1       5.493   2.987  11.821  0.00  0.00    +0.000 C 
BRANCH  31  32
ATOM     32  C   UNL     1       4.047   3.475  11.745  0.00  0.00    +0.000 C 
BRANCH  32  34
ATOM     33  C   UNL     1       3.100   4.370   9.596  0.00  0.00    +0.000 C 
ATOM     34  C   UNL     1       3.406   3.120  10.406  0.00  0.00    +0.000 C 
ENDBRANCH  32  34
ENDBRANCH  31  32
ENDBRANCH  30  31
ENDBRANCH  29  30
ENDBRANCH  22  29
ENDBRANCH  21  26
ENDBRANCH   1  21
TORSDOF 10
ENDMDL
MODEL 6
REMARK VINA RESULT:      -7.6      3.122      5.204
REMARK  Name = 
REMARK  14 active torsions:
REMARK  status: ('A' for Active; 'I' for Inactive)
REMARK    1  A    between atoms: C_1  and  C_2
REMARK    2  A    between atoms: C_2  and  C_3
REMARK    3  A    between atoms: C_3  and  C_4
REMARK    4  A    between atoms: C_4  and  C_5
REMARK    5  A    between atoms: C_5  and  C_6
REMARK    6  A    between atoms: C_6  and  N_7
REMARK    7  A    between atoms: N_11  and  C_12
REMARK    8  A    between atoms: C_12  and  C_13
REMARK    9  A    between atoms: C_17  and  C_18
REMARK   10  A    between atoms: N_20  and  C_21
REMARK   11  A    between atoms: C_24  and  C_25
REMARK   12  A    between atoms: C_25  and  C_26
REMARK   13  A    between atoms: C_25  and  C_27
REMARK   14  A    between atoms: C_25  and  C_28
REMARK                            x       y       z     vdW  Elec       q    Type
REMARK                         _______ _______ _______ _____ _____    ______ ____
ROOT
ATOM      1  C   UNL     1       2.526   7.706  18.775  0.00  0.00    +0.000 A 
ATOM      2  C   UNL     1       2.820   8.552  17.690  0.00  0.00    +0.000 A 
ATOM      3  C   UNL     1       2.168   9.776  17.544  0.00  0.00    +0.000 A 
ATOM      4  C   UNL     1       1.228  10.178  18.488  0.00  0.00    +0.000 A 
ATOM      5  C   UNL     1       0.948   9.361  19.589  0.00  0.00    +0.000 A 
ATOM      6  C   UNL     1       1.594   8.128  19.730  0.00  0.00    +0.000 A 
ENDROOT
BRANCH   5   7
ATOM      7  C   UNL     1      -0.086   9.805  20.558  0.00  0.00    +0.000 C 
ATOM      8  O   UNL     1      -0.420   9.017  21.437  0.00  0.00    +0.000 OA
ATOM      9  N   UNL     1      -0.605  11.068  20.336  0.00  0.00    +0.000 N 
ATOM     10  H   UNL     1      -0.386  11.519  19.456  0.00  0.00    +0.000 HD
BRANCH   9  11
ATOM     11  C   UNL     1      -1.492  11.758  21.190  0.00  0.00    +0.000 A 
ATOM     12  C   UNL     1      -1.318  11.826  22.566  0.00  0.00    +0.000 A 
ATOM     13  C   UNL     1      -2.191  12.565  23.368  0.00  0.00    +0.000 A 
ATOM     14  C   UNL     1      -3.273  13.268  22.821  0.00  0.00    +0.000 A 
ATOM     15  C   UNL     1      -3.459  13.168  21.430  0.00  0.00    +0.000 A 
ATOM     16  C   UNL     1      -2.574  12.438  20.620  0.00  0.00    +0.000 A 
BRANCH  14  17
ATOM     17  C   UNL     1      -4.188  14.152  23.686  0.00  0.00    +0.000 C 
ATOM     18  C   UNL     1      -4.785  15.353  22.916  0.00  0.00    +0.000 C 
ATOM     19  C   UNL     1      -5.376  13.307  24.198  0.00  0.00    +0.000 C 
ATOM     20  C   UNL     1      -3.415  14.719  24.892  0.00  0.00    +0.000 C 
ENDBRANCH  14  17
ENDBRANCH   9  11
ENDBRANCH   5   7
BRANCH   1  21
ATOM     21  C   UNL     1       3.282   6.405  18.937  0.00  0.00    +0.000 C 
BRANCH  21  26
ATOM     22  N   UNL     1       4.286   2.969  17.952  0.00  0.00    +0.000 NA
ATOM     23  C   UNL     1       4.744   3.439  19.273  0.00  0.00    +0.000 C 
ATOM     24  C   UNL     1       5.842   4.499  19.348  0.00  0.00    +0.000 C 
ATOM     25  C   UNL     1       5.687   5.844  18.640  0.00  0.00    +0.000 C 
ATOM     26  N   UNL     1       4.418   6.222  18.030  0.00  0.00    +0.000 NA
ATOM     27  C   UNL     1       4.116   5.339  16.899  0.00  0.00    +0.000 C 
ATOM     28  C   UNL     1       3.490   3.966  17.206  0.00  0.00    +0.000 C 
BRANCH  22  29
ATOM     29  C   UNL     1       3.452   1.757  18.186  0.00  0.00    +0.000 C 
BRANCH  29  30
ATOM     30  C   UNL     1       1.932   1.930  18.070  0.00  0.00    +0.000 C 
BRANCH  30  31
ATOM     31  C   UNL     1       1.232   2.009  19.425  0.00  0.00    +0.000 C 
BRANCH  31  32
ATOM     32  C   UNL     1       0.773   3.440  19.706  0.00  0.00    +0.000 C 
BRANCH  32  34
ATOM     33  C   UNL     1       2.072   2.947  21.800  0.00  0.00    +0.000 C 
ATOM     34  C   UNL     1       1.505   4.037  20.905  0.00  0.00    +0.000 C 
ENDBRANCH  32  34
ENDBRANCH  31  32
ENDBRANCH  30  31
ENDBRANCH  29  30
ENDBRANCH  22  29
ENDBRANCH  21  26
ENDBRANCH   1  21
TORSDOF 10
ENDMDL
MODEL 7
REMARK VINA RESULT:      -7.5      2.671      4.929
REMARK  Name = 
REMARK  14 active torsions:
REMARK  status: ('A' for Active; 'I' for Inactive)
REMARK    1  A    between atoms: C_1  and  C_2
REMARK    2  A    between atoms: C_2  and  C_3
REMARK    3  A    between atoms: C_3  and  C_4
REMARK    4  A    between atoms: C_4  and  C_5
REMARK    5  A    between atoms: C_5  and  C_6
REMARK    6  A    between atoms: C_6  and  N_7
REMARK    7  A    between atoms: N_11  and  C_12
REMARK    8  A    between atoms: C_12  and  C_13
REMARK    9  A    between atoms: C_17  and  C_18
REMARK   10  A    between atoms: N_20  and  C_21
REMARK   11  A    between atoms: C_24  and  C_25
REMARK   12  A    between atoms: C_25  and  C_26
REMARK   13  A    between atoms: C_25  and  C_27
REMARK   14  A    between atoms: C_25  and  C_28
REMARK                            x       y       z     vdW  Elec       q    Type
REMARK                         _______ _______ _______ _____ _____    ______ ____
ROOT
ATOM      1  C   UNL     1       2.193   7.411  19.081  0.00  0.00    +0.000 A 
ATOM      2  C   UNL     1       1.860   7.035  20.395  0.00  0.00    +0.000 A 
ATOM      3  C   UNL     1       1.187   7.917  21.240  0.00  0.00    +0.000 A 
ATOM      4  C   UNL     1       0.821   9.177  20.778  0.00  0.00    +0.000 A 
ATOM      5  C   UNL     1       1.118   9.553  19.463  0.00  0.00    +0.000 A 
ATOM      6  C   UNL     1       1.804   8.674  18.619  0.00  0.00    +0.000 A 
ENDROOT
BRANCH   5   7
ATOM      7  C   UNL     1       0.745  10.919  19.014  0.00  0.00    +0.000 C 
ATOM      8  O   UNL     1      -0.220  11.030  18.265  0.00  0.00    +0.000 OA
ATOM      9  N   UNL     1       1.569  11.938  19.461  0.00  0.00    +0.000 N 
ATOM     10  H   UNL     1       2.443  11.678  19.900  0.00  0.00    +0.000 HD
BRANCH   9  11
ATOM     11  C   UNL     1       1.345  13.320  19.282  0.00  0.00    +0.000 A 
ATOM     12  C   UNL     1       2.168  14.126  18.506  0.00  0.00    +0.000 A 
ATOM     13  C   UNL     1       1.878  15.478  18.311  0.00  0.00    +0.000 A 
ATOM     14  C   UNL     1       0.749  16.076  18.886  0.00  0.00    +0.000 A 
ATOM     15  C   UNL     1      -0.062  15.259  19.696  0.00  0.00    +0.000 A 
ATOM     16  C   UNL     1       0.220  13.896  19.880  0.00  0.00    +0.000 A 
BRANCH  14  17
ATOM     17  C   UNL     1       0.377  17.543  18.609  0.00  0.00    +0.000 C 
ATOM     18  C   UNL     1       1.143  18.154  17.412  0.00  0.00    +0.000 C 
ATOM     19  C   UNL     1      -1.129  17.632  18.276  0.00  0.00    +0.000 C 
ATOM     20  C   UNL     1       0.675  18.422  19.839  0.00  0.00    +0.000 C 
ENDBRANCH  14  17
ENDBRANCH   9  11
ENDBRANCH   5   7
BRANCH   1  21
ATOM     21  C   UNL     1       2.881   6.419  18.170  0.00  0.00    +0.000 C 
BRANCH  21  26
ATOM     22  N   UNL     1       6.144   4.650  18.077  0.00  0.00    +0.000 NA
ATOM     23  C   UNL     1       5.375   4.686  16.819  0.00  0.00    +0.000 C 
ATOM     24  C   UNL     1       4.110   3.838  16.693  0.00  0.00    +0.000 C 
ATOM     25  C   UNL     1       2.965   3.979  17.695  0.00  0.00    +0.000 C 
ATOM     26  N   UNL     1       2.970   5.050  18.684  0.00  0.00    +0.000 NA
ATOM     27  C   UNL     1       4.072   4.861  19.632  0.00  0.00    +0.000 C 
ATOM     28  C   UNL     1       5.476   5.330  19.205  0.00  0.00    +0.000 C 
BRANCH  22  29
ATOM     29  C   UNL     1       7.449   5.318  17.809  0.00  0.00    +0.000 C 
BRANCH  29  30
ATOM     30  C   UNL     1       7.795   6.534  18.680  0.00  0.00    +0.000 C 
BRANCH  30  31
ATOM     31  C   UNL     1       7.897   7.832  17.882  0.00  0.00    +0.000 C 
BRANCH  31  32
ATOM     32  C   UNL     1       8.680   8.883  18.669  0.00  0.00    +0.000 C 
BRANCH  32  34
ATOM     33  C   UNL     1       9.597  11.222  18.665  0.00  0.00    +0.000 C 
ATOM     34  C   UNL     1       8.712  10.222  17.938  0.00  0.00    +0.000 C 
ENDBRANCH  32  34
ENDBRANCH  31  32
ENDBRANCH  30  31
ENDBRANCH  29  30
ENDBRANCH  22  29
ENDBRANCH  21  26
ENDBRANCH   1  21
TORSDOF 10
ENDMDL
MODEL 8
REMARK VINA RESULT:      -7.4      1.467      1.785
REMARK  Name = 
REMARK  14 active torsions:
REMARK  status: ('A' for Active; 'I' for Inactive)
REMARK    1  A    between atoms: C_1  and  C_2
REMARK    2  A    between atoms: C_2  and  C_3
REMARK    3  A    between atoms: C_3  and  C_4
REMARK    4  A    between atoms: C_4  and  C_5
REMARK    5  A    between atoms: C_5  and  C_6
REMARK    6  A    between atoms: C_6  and  N_7
REMARK    7  A    between atoms: N_11  and  C_12
REMARK    8  A    between atoms: C_12  and  C_13
REMARK    9  A    between atoms: C_17  and  C_18
REMARK   10  A    between atoms: N_20  and  C_21
REMARK   11  A    between atoms: C_24  and  C_25
REMARK   12  A    between atoms: C_25  and  C_26
REMARK   13  A    between atoms: C_25  and  C_27
REMARK   14  A    between atoms: C_25  and  C_28
REMARK                            x       y       z     vdW  Elec       q    Type
REMARK                         _______ _______ _______ _____ _____    ______ ____
ROOT
ATOM      1  C   UNL     1       3.591   5.676  19.417  0.00  0.00    +0.000 A 
ATOM      2  C   UNL     1       2.989   4.658  20.180  0.00  0.00    +0.000 A 
ATOM      3  C   UNL     1       1.857   4.921  20.952  0.00  0.00    +0.000 A 
ATOM      4  C   UNL     1       1.302   6.197  20.957  0.00  0.00    +0.000 A 
ATOM      5  C   UNL     1       1.873   7.211  20.179  0.00  0.00    +0.000 A 
ATOM      6  C   UNL     1       3.014   6.951  19.414  0.00  0.00    +0.000 A 
ENDROOT
BRANCH   5   7
ATOM      7  C   UNL     1       1.276   8.570  20.236  0.00  0.00    +0.000 C 
ATOM      8  O   UNL     1       1.164   9.189  19.183  0.00  0.00    +0.000 OA
ATOM      9  N   UNL     1       0.944   9.021  21.502  0.00  0.00    +0.000 N 
ATOM     10  H   UNL     1       1.283   8.490  22.294  0.00  0.00    +0.000 HD
BRANCH   9  11
ATOM     11  C   UNL     1       0.247  10.212  21.797  0.00  0.00    +0.000 A 
ATOM     12  C   UNL     1      -0.759  10.283  22.752  0.00  0.00    +0.000 A 
ATOM     13  C   UNL     1      -1.386  11.495  23.051  0.00  0.00    +0.000 A 
ATOM     14  C   UNL     1      -1.027  12.685  22.406  0.00  0.00    +0.000 A 
ATOM     15  C   UNL     1      -0.029  12.598  21.418  0.00  0.00    +0.000 A 
ATOM     16  C   UNL     1       0.613  11.383  21.126  0.00  0.00    +0.000 A 
BRANCH  14  17
ATOM     17  C   UNL     1      -1.653  14.037  22.788  0.00  0.00    +0.000 C 
ATOM     18  C   UNL     1      -2.449  14.692  21.635  0.00  0.00    +0.000 C 
ATOM     19  C   UNL     1      -2.640  13.828  23.958  0.00  0.00    +0.000 C 
ATOM     20  C   UNL     1      -0.564  15.039  23.219  0.00  0.00    +0.000 C 
ENDBRANCH  14  17
ENDBRANCH   9  11
ENDBRANCH   5   7
BRANCH   1  21
ATOM     21  C   UNL     1       4.789   5.353  18.552  0.00  0.00    +0.000 C 
BRANCH  21  26
ATOM     22  N   UNL     1       7.260   5.482  15.783  0.00  0.00    +0.000 NA
ATOM     23  C   UNL     1       7.445   4.415  16.786  0.00  0.00    +0.000 C 
ATOM     24  C   UNL     1       7.935   4.783  18.185  0.00  0.00    +0.000 C 
ATOM     25  C   UNL     1       7.186   5.806  19.038  0.00  0.00    +0.000 C 
ATOM     26  N   UNL     1       5.889   6.320  18.615  0.00  0.00    +0.000 NA
ATOM     27  C   UNL     1       6.031   7.113  17.390  0.00  0.00    +0.000 C 
ATOM     28  C   UNL     1       6.101   6.358  16.050  0.00  0.00    +0.000 C 
BRANCH  22  29
ATOM     29  C   UNL     1       7.072   4.812  14.465  0.00  0.00    +0.000 C 
BRANCH  29  30
ATOM     30  C   UNL     1       5.970   3.748  14.381  0.00  0.00    +0.000 C 
BRANCH  30  31
ATOM     31  C   UNL     1       5.191   3.794  13.068  0.00  0.00    +0.000 C 
BRANCH  31  32
ATOM     32  C   UNL     1       5.856   2.902  12.020  0.00  0.00    +0.000 C 
BRANCH  32  34
ATOM     33  C   UNL     1       3.616   3.348  10.974  0.00  0.00    +0.000 C 
ATOM     34  C   UNL     1       4.872   2.492  10.928  0.00  0.00    +0.000 C 
ENDBRANCH  32  34
ENDBRANCH  31  32
ENDBRANCH  30  31
ENDBRANCH  29  30
ENDBRANCH  22  29
ENDBRANCH  21  26
ENDBRANCH   1  21
TORSDOF 10
ENDMDL
MODEL 9
REMARK VINA RESULT:      -7.4      2.265      3.655
REMARK  Name = 
REMARK  14 active torsions:
REMARK  status: ('A' for Active; 'I' for Inactive)
REMARK    1  A    between atoms: C_1  and  C_2
REMARK    2  A    between atoms: C_2  and  C_3
REMARK    3  A    between atoms: C_3  and  C_4
REMARK    4  A    between atoms: C_4  and  C_5
REMARK    5  A    between atoms: C_5  and  C_6
REMARK    6  A    between atoms: C_6  and  N_7
REMARK    7  A    between atoms: N_11  and  C_12
REMARK    8  A    between atoms: C_12  and  C_13
REMARK    9  A    between atoms: C_17  and  C_18
REMARK   10  A    between atoms: N_20  and  C_21
REMARK   11  A    between atoms: C_24  and  C_25
REMARK   12  A    between atoms: C_25  and  C_26
REMARK   13  A    between atoms: C_25  and  C_27
REMARK   14  A    between atoms: C_25  and  C_28
REMARK                            x       y       z     vdW  Elec       q    Type
REMARK                         _______ _______ _______ _____ _____    ______ ____
ROOT
ATOM      1  C   UNL     1       1.932   7.167  18.985  0.00  0.00    +0.000 A 
ATOM      2  C   UNL     1       2.189   7.827  17.769  0.00  0.00    +0.000 A 
ATOM      3  C   UNL     1       2.031   9.209  17.660  0.00  0.00    +0.000 A 
ATOM      4  C   UNL     1       1.634   9.950  18.768  0.00  0.00    +0.000 A 
ATOM      5  C   UNL     1       1.406   9.312  19.993  0.00  0.00    +0.000 A 
ATOM      6  C   UNL     1       1.552   7.926  20.099  0.00  0.00    +0.000 A 
ENDROOT
BRANCH   5   7
ATOM      7  C   UNL     1       0.949  10.130  21.145  0.00  0.00    +0.000 C 
ATOM      8  O   UNL     1       1.341   9.811  22.262  0.00  0.00    +0.000 OA
ATOM      9  N   UNL     1       0.075  11.157  20.835  0.00  0.00    +0.000 N 
ATOM     10  H   UNL     1      -0.323  11.173  19.905  0.00  0.00    +0.000 HD
BRANCH   9  11
ATOM     11  C   UNL     1      -0.388  12.146  21.731  0.00  0.00    +0.000 A 
ATOM     12  C   UNL     1       0.147  13.426  21.787  0.00  0.00    +0.000 A 
ATOM     13  C   UNL     1      -0.377  14.390  22.651  0.00  0.00    +0.000 A 
ATOM     14  C   UNL     1      -1.461  14.109  23.493  0.00  0.00    +0.000 A 
ATOM     15  C   UNL     1      -1.977  12.800  23.451  0.00  0.00    +0.000 A 
ATOM     16  C   UNL     1      -1.460  11.834  22.572  0.00  0.00    +0.000 A 
BRANCH  14  17
ATOM     17  C   UNL     1      -2.098  15.187  24.386  0.00  0.00    +0.000 C 
ATOM     18  C   UNL     1      -2.236  16.559  23.685  0.00  0.00    +0.000 C 
ATOM     19  C   UNL     1      -3.521  14.739  24.789  0.00  0.00    +0.000 C 
ATOM     20  C   UNL     1      -1.258  15.406  25.658  0.00  0.00    +0.000 C 
ENDBRANCH  14  17
ENDBRANCH   9  11
ENDBRANCH   5   7
BRANCH   1  21
ATOM     21  C   UNL     1       2.156   5.675  19.089  0.00  0.00    +0.000 C 
BRANCH  21  26
ATOM     22  N   UNL     1       5.124   3.925  17.705  0.00  0.00    +0.000 NA
ATOM     23  C   UNL     1       3.917   3.107  17.925  0.00  0.00    +0.000 C 
ATOM     24  C   UNL     1       3.498   2.763  19.354  0.00  0.00    +0.000 C 
ATOM     25  C   UNL     1       3.253   3.860  20.388  0.00  0.00    +0.000 C 
ATOM     26  N   UNL     1       3.233   5.263  19.994  0.00  0.00    +0.000 NA
ATOM     27  C   UNL     1       4.562   5.681  19.537  0.00  0.00    +0.000 C 
ATOM     28  C   UNL     1       4.963   5.343  18.089  0.00  0.00    +0.000 C 
BRANCH  22  29
ATOM     29  C   UNL     1       5.444   3.847  16.252  0.00  0.00    +0.000 C 
BRANCH  29  30
ATOM     30  C   UNL     1       6.173   5.050  15.639  0.00  0.00    +0.000 C 
BRANCH  30  31
ATOM     31  C   UNL     1       6.699   4.778  14.231  0.00  0.00    +0.000 C 
BRANCH  31  32
ATOM     32  C   UNL     1       5.824   3.743  13.525  0.00  0.00    +0.000 C 
BRANCH  32  34
ATOM     33  C   UNL     1       5.518   2.335  11.466  0.00  0.00    +0.000 C 
ATOM     34  C   UNL     1       6.406   3.349  12.170  0.00  0.00    +0.000 C 
ENDBRANCH  32  34
ENDBRANCH  31  32
ENDBRANCH  30  31
ENDBRANCH  29  30
ENDBRANCH  22  29
ENDBRANCH  21  26
ENDBRANCH   1  21
TORSDOF 10
ENDMDL
