MODEL 1
REMARK VINA RESULT:      -8.8      0.000      0.000
REMARK  Name = 
REMARK  8 active torsions:
REMARK  status: ('A' for Active; 'I' for Inactive)
REMARK    1  A    between atoms: C_2  and  C_4
REMARK    2  A    between atoms: C_4  and  C_5
REMARK    3  A    between atoms: C_4  and  N_11
REMARK    4  A    between atoms: N_11  and  C_12
REMARK    5  A    between atoms: C_12  and  C_13
REMARK    6  A    between atoms: C_17  and  O_18
REMARK    7  A    between atoms: O_18  and  C_19
REMARK    8  A    between atoms: C_24  and  C_26
REMARK                            x       y       z     vdW  Elec       q    Type
REMARK                         _______ _______ _______ _____ _____    ______ ____
ROOT
ATOM      1  N   UNL     1       4.348   5.239  18.075  0.00  0.00    +0.000 N 
ATOM      2  C   UNL     1       4.251   4.016  18.755  0.00  0.00    +0.000 C 
ATOM      3  O   UNL     1       5.242   3.329  19.023  0.00  0.00    +0.000 OA
ENDROOT
BRANCH   2   4
ATOM      4  C   UNL     1       2.960   3.520  19.299  0.00  0.00    +0.000 A 
ATOM      5  C   UNL     1       1.886   3.150  18.491  0.00  0.00    +0.000 A 
ATOM      6  C   UNL     1       0.662   2.813  19.072  0.00  0.00    +0.000 A 
ATOM      7  C   UNL     1       0.528   2.772  20.460  0.00  0.00    +0.000 A 
ATOM      8  C   UNL     1       1.623   3.049  21.274  0.00  0.00    +0.000 A 
ATOM      9  C   UNL     1       2.837   3.424  20.697  0.00  0.00    +0.000 A 
ENDBRANCH   2   4
BRANCH   1  10
ATOM     10  C   UNL     1       5.702   5.626  17.612  0.00  0.00    +0.000 C 
BRANCH  10  11
ATOM     11  C   UNL     1       5.983   5.134  16.192  0.00  0.00    +0.000 A 
ATOM     12  C   UNL     1       5.235   4.125  15.565  0.00  0.00    +0.000 A 
ATOM     13  C   UNL     1       5.580   3.673  14.288  0.00  0.00    +0.000 A 
ATOM     14  C   UNL     1       6.664   4.231  13.614  0.00  0.00    +0.000 A 
ATOM     15  C   UNL     1       7.396   5.256  14.207  0.00  0.00    +0.000 A 
ATOM     16  C   UNL     1       7.055   5.707  15.483  0.00  0.00    +0.000 A 
ENDBRANCH  10  11
BRANCH  10  18
ATOM     17  N   UNL     1       7.741   4.347  18.234  0.00  0.00    +0.000 N 
ATOM     18  C   UNL     1       6.829   5.290  18.633  0.00  0.00    +0.000 C 
ATOM     19  O   UNL     1       6.924   5.772  19.761  0.00  0.00    +0.000 OA
ATOM     20  H   UNL     1       8.504   4.152  18.869  0.00  0.00    +0.000 HD
ATOM     21  H   UNL     1       7.869   4.115  17.257  0.00  0.00    +0.000 HD
ENDBRANCH  10  18
ENDBRANCH   1  10
BRANCH   1  22
ATOM     22  C   UNL     1       3.227   6.069  17.597  0.00  0.00    +0.000 C 
BRANCH  22  23
ATOM     23  C   UNL     1       2.532   6.973  18.594  0.00  0.00    +0.000 A 
ATOM     24  C   UNL     1       2.401   6.647  19.949  0.00  0.00    +0.000 A 
ATOM     25  C   UNL     1       1.768   7.520  20.830  0.00  0.00    +0.000 A 
ATOM     26  C   UNL     1       1.287   8.743  20.369  0.00  0.00    +0.000 A 
ATOM     27  C   UNL     1       1.406   9.097  19.024  0.00  0.00    +0.000 A 
ATOM     28  C   UNL     1       2.048   8.223  18.145  0.00  0.00    +0.000 A 
BRANCH  27  29
ATOM     29  O   UNL     1       0.911  10.329  18.726  0.00  0.00    +0.000 OA
BRANCH  29  30
ATOM     30  C   UNL     1      -0.449  10.468  18.351  0.00  0.00    +0.000 C 
ATOM     31  F   UNL     1      -0.828   9.656  17.343  0.00  0.00    +0.000 F 
ATOM     32  F   UNL     1      -1.217  10.175  19.428  0.00  0.00    +0.000 F 
ATOM     33  F   UNL     1      -0.694  11.749  18.002  0.00  0.00    +0.000 F 
ENDBRANCH  29  30
ENDBRANCH  27  29
ENDBRANCH  22  23
ENDBRANCH   1  22
TORSDOF 8
ENDMDL
MODEL 2
REMARK VINA RESULT:      -8.8      3.180      6.361
REMARK  Name = 
REMARK  8 active torsions:
REMARK  status: ('A' for Active; 'I' for Inactive)
REMARK    1  A    between atoms: C_2  and  C_4
REMARK    2  A    between atoms: C_4  and  C_5
REMARK    3  A    between atoms: C_4  and  N_11
REMARK    4  A    between atoms: N_11  and  C_12
REMARK    5  A    between atoms: C_12  and  C_13
REMARK    6  A    between atoms: C_17  and  O_18
REMARK    7  A    between atoms: O_18  and  C_19
REMARK    8  A    between atoms: C_24  and  C_26
REMARK                            x       y       z     vdW  Elec       q    Type
REMARK                         _______ _______ _______ _____ _____    ______ ____
ROOT
ATOM      1  N   UNL     1       5.697   4.436  16.815  0.00  0.00    +0.000 N 
ATOM      2  C   UNL     1       6.321   5.141  15.775  0.00  0.00    +0.000 C 
ATOM      3  O   UNL     1       6.960   6.180  15.972  0.00  0.00    +0.000 OA
ENDROOT
BRANCH   2   4
ATOM      4  C   UNL     1       6.350   4.624  14.382  0.00  0.00    +0.000 A 
ATOM      5  C   UNL     1       5.339   3.828  13.846  0.00  0.00    +0.000 A 
ATOM      6  C   UNL     1       5.491   3.274  12.572  0.00  0.00    +0.000 A 
ATOM      7  C   UNL     1       6.616   3.573  11.804  0.00  0.00    +0.000 A 
ATOM      8  C   UNL     1       7.586   4.442  12.296  0.00  0.00    +0.000 A 
ATOM      9  C   UNL     1       7.456   4.966  13.583  0.00  0.00    +0.000 A 
ENDBRANCH   2   4
BRANCH   1  10
ATOM     10  C   UNL     1       5.771   5.052  18.161  0.00  0.00    +0.000 C 
BRANCH  10  11
ATOM     11  C   UNL     1       4.589   5.986  18.427  0.00  0.00    +0.000 A 
ATOM     12  C   UNL     1       3.788   5.905  19.577  0.00  0.00    +0.000 A 
ATOM     13  C   UNL     1       2.682   6.746  19.734  0.00  0.00    +0.000 A 
ATOM     14  C   UNL     1       2.371   7.687  18.755  0.00  0.00    +0.000 A 
ATOM     15  C   UNL     1       3.174   7.804  17.624  0.00  0.00    +0.000 A 
ATOM     16  C   UNL     1       4.277   6.963  17.463  0.00  0.00    +0.000 A 
ENDBRANCH  10  11
BRANCH  10  18
ATOM     17  N   UNL     1       8.190   4.796  18.672  0.00  0.00    +0.000 N 
ATOM     18  C   UNL     1       7.159   5.680  18.484  0.00  0.00    +0.000 C 
ATOM     19  O   UNL     1       7.372   6.884  18.623  0.00  0.00    +0.000 OA
ATOM     20  H   UNL     1       9.106   5.192  18.838  0.00  0.00    +0.000 HD
ATOM     21  H   UNL     1       8.143   3.846  18.326  0.00  0.00    +0.000 HD
ENDBRANCH  10  18
ENDBRANCH   1  10
BRANCH   1  22
ATOM     22  C   UNL     1       4.812   3.266  16.674  0.00  0.00    +0.000 C 
BRANCH  22  23
ATOM     23  C   UNL     1       3.442   3.324  17.317  0.00  0.00    +0.000 A 
ATOM     24  C   UNL     1       2.363   4.005  16.741  0.00  0.00    +0.000 A 
ATOM     25  C   UNL     1       1.118   4.015  17.364  0.00  0.00    +0.000 A 
ATOM     26  C   UNL     1       0.932   3.319  18.555  0.00  0.00    +0.000 A 
ATOM     27  C   UNL     1       1.988   2.628  19.152  0.00  0.00    +0.000 A 
ATOM     28  C   UNL     1       3.233   2.613  18.521  0.00  0.00    +0.000 A 
BRANCH  27  29
ATOM     29  O   UNL     1       1.651   1.978  20.298  0.00  0.00    +0.000 OA
BRANCH  29  30
ATOM     30  C   UNL     1       1.932   2.573  21.553  0.00  0.00    +0.000 C 
ATOM     31  F   UNL     1       3.155   2.276  22.041  0.00  0.00    +0.000 F 
ATOM     32  F   UNL     1       1.861   3.917  21.409  0.00  0.00    +0.000 F 
ATOM     33  F   UNL     1       0.996   2.199  22.452  0.00  0.00    +0.000 F 
ENDBRANCH  29  30
ENDBRANCH  27  29
ENDBRANCH  22  23
ENDBRANCH   1  22
TORSDOF 8
ENDMDL
MODEL 3
REMARK VINA RESULT:      -8.7      0.181      1.409
REMARK  Name = 
REMARK  8 active torsions:
REMARK  status: ('A' for Active; 'I' for Inactive)
REMARK    1  A    between atoms: C_2  and  C_4
REMARK    2  A    between atoms: C_4  and  C_5
REMARK    3  A    between atoms: C_4  and  N_11
REMARK    4  A    between atoms: N_11  and  C_12
REMARK    5  A    between atoms: C_12  and  C_13
REMARK    6  A    between atoms: C_17  and  O_18
REMARK    7  A    between atoms: O_18  and  C_19
REMARK    8  A    between atoms: C_24  and  C_26
REMARK                            x       y       z     vdW  Elec       q    Type
REMARK                         _______ _______ _______ _____ _____    ______ ____
ROOT
ATOM      1  N   UNL     1       4.357   5.251  18.065  0.00  0.00    +0.000 N 
ATOM      2  C   UNL     1       4.244   4.046  18.775  0.00  0.00    +0.000 C 
ATOM      3  O   UNL     1       5.229   3.366  19.081  0.00  0.00    +0.000 OA
ENDROOT
BRANCH   2   4
ATOM      4  C   UNL     1       2.942   3.565  19.303  0.00  0.00    +0.000 A 
ATOM      5  C   UNL     1       2.626   3.563  20.661  0.00  0.00    +0.000 A 
ATOM      6  C   UNL     1       1.434   2.980  21.098  0.00  0.00    +0.000 A 
ATOM      7  C   UNL     1       0.522   2.466  20.177  0.00  0.00    +0.000 A 
ATOM      8  C   UNL     1       0.788   2.548  18.813  0.00  0.00    +0.000 A 
ATOM      9  C   UNL     1       1.996   3.094  18.375  0.00  0.00    +0.000 A 
ENDBRANCH   2   4
BRANCH   1  10
ATOM     10  C   UNL     1       5.721   5.626  17.622  0.00  0.00    +0.000 C 
BRANCH  10  11
ATOM     11  C   UNL     1       6.028   5.105  16.217  0.00  0.00    +0.000 A 
ATOM     12  C   UNL     1       7.090   5.584  15.434  0.00  0.00    +0.000 A 
ATOM     13  C   UNL     1       7.282   5.113  14.132  0.00  0.00    +0.000 A 
ATOM     14  C   UNL     1       6.430   4.148  13.600  0.00  0.00    +0.000 A 
ATOM     15  C   UNL     1       5.392   3.637  14.375  0.00  0.00    +0.000 A 
ATOM     16  C   UNL     1       5.196   4.108  15.675  0.00  0.00    +0.000 A 
ENDBRANCH  10  11
BRANCH  10  18
ATOM     17  N   UNL     1       7.739   4.348  18.312  0.00  0.00    +0.000 N 
ATOM     18  C   UNL     1       6.827   5.307  18.671  0.00  0.00    +0.000 C 
ATOM     19  O   UNL     1       6.904   5.815  19.789  0.00  0.00    +0.000 OA
ATOM     20  H   UNL     1       8.489   4.164  18.965  0.00  0.00    +0.000 HD
ATOM     21  H   UNL     1       7.883   4.092  17.343  0.00  0.00    +0.000 HD
ENDBRANCH  10  18
ENDBRANCH   1  10
BRANCH   1  22
ATOM     22  C   UNL     1       3.247   6.068  17.542  0.00  0.00    +0.000 C 
BRANCH  22  23
ATOM     23  C   UNL     1       2.547   7.015  18.494  0.00  0.00    +0.000 A 
ATOM     24  C   UNL     1       2.426   6.760  19.865  0.00  0.00    +0.000 A 
ATOM     25  C   UNL     1       1.787   7.670  20.702  0.00  0.00    +0.000 A 
ATOM     26  C   UNL     1       1.289   8.861  20.180  0.00  0.00    +0.000 A 
ATOM     27  C   UNL     1       1.397   9.145  18.818  0.00  0.00    +0.000 A 
ATOM     28  C   UNL     1       2.045   8.234  17.983  0.00  0.00    +0.000 A 
BRANCH  27  29
ATOM     29  O   UNL     1       0.885  10.354  18.459  0.00  0.00    +0.000 OA
BRANCH  29  30
ATOM     30  C   UNL     1      -0.511  10.497  18.266  0.00  0.00    +0.000 C 
ATOM     31  F   UNL     1      -1.251  10.200  19.354  0.00  0.00    +0.000 F 
ATOM     32  F   UNL     1      -0.763  11.786  17.936  0.00  0.00    +0.000 F 
ATOM     33  F   UNL     1      -0.909   9.718  17.237  0.00  0.00    +0.000 F 
ENDBRANCH  29  30
ENDBRANCH  27  29
ENDBRANCH  22  23
ENDBRANCH   1  22
TORSDOF 8
ENDMDL
MODEL 4
REMARK VINA RESULT:      -8.6      3.154      6.381
REMARK  Name = 
REMARK  8 active torsions:
REMARK  status: ('A' for Active; 'I' for Inactive)
REMARK    1  A    between atoms: C_2  and  C_4
REMARK    2  A    between atoms: C_4  and  C_5
REMARK    3  A    between atoms: C_4  and  N_11
REMARK    4  A    between atoms: N_11  and  C_12
REMARK    5  A    between atoms: C_12  and  C_13
REMARK    6  A    between atoms: C_17  and  O_18
REMARK    7  A    between atoms: O_18  and  C_19
REMARK    8  A    between atoms: C_24  and  C_26
REMARK                            x       y       z     vdW  Elec       q    Type
REMARK                         _______ _______ _______ _____ _____    ______ ____
ROOT
ATOM      1  N   UNL     1       5.660   4.472  16.817  0.00  0.00    +0.000 N 
ATOM      2  C   UNL     1       6.234   5.136  15.722  0.00  0.00    +0.000 C 
ATOM      3  O   UNL     1       6.819   6.218  15.839  0.00  0.00    +0.000 OA
ENDROOT
BRANCH   2   4
ATOM      4  C   UNL     1       6.274   4.528  14.367  0.00  0.00    +0.000 A 
ATOM      5  C   UNL     1       7.394   4.588  13.540  0.00  0.00    +0.000 A 
ATOM      6  C   UNL     1       7.320   4.105  12.231  0.00  0.00    +0.000 A 
ATOM      7  C   UNL     1       6.153   3.495  11.770  0.00  0.00    +0.000 A 
ATOM      8  C   UNL     1       5.061   3.348  12.621  0.00  0.00    +0.000 A 
ATOM      9  C   UNL     1       5.118   3.865  13.917  0.00  0.00    +0.000 A 
ENDBRANCH   2   4
BRANCH   1  10
ATOM     10  C   UNL     1       5.716   5.181  18.117  0.00  0.00    +0.000 C 
BRANCH  10  11
ATOM     11  C   UNL     1       4.501   6.085  18.327  0.00  0.00    +0.000 A 
ATOM     12  C   UNL     1       4.123   7.090  17.423  0.00  0.00    +0.000 A 
ATOM     13  C   UNL     1       3.038   7.927  17.702  0.00  0.00    +0.000 A 
ATOM     14  C   UNL     1       2.307   7.762  18.876  0.00  0.00    +0.000 A 
ATOM     15  C   UNL     1       2.647   6.748  19.768  0.00  0.00    +0.000 A 
ATOM     16  C   UNL     1       3.732   5.914  19.494  0.00  0.00    +0.000 A 
ENDBRANCH  10  11
BRANCH  10  18
ATOM     17  N   UNL     1       8.124   5.059  18.724  0.00  0.00    +0.000 N 
ATOM     18  C   UNL     1       7.081   5.883  18.386  0.00  0.00    +0.000 C 
ATOM     19  O   UNL     1       7.265   7.099  18.360  0.00  0.00    +0.000 OA
ATOM     20  H   UNL     1       9.026   5.497  18.857  0.00  0.00    +0.000 HD
ATOM     21  H   UNL     1       8.106   4.069  18.514  0.00  0.00    +0.000 HD
ENDBRANCH  10  18
ENDBRANCH   1  10
BRANCH   1  22
ATOM     22  C   UNL     1       4.836   3.251  16.768  0.00  0.00    +0.000 C 
BRANCH  22  23
ATOM     23  C   UNL     1       3.448   3.300  17.374  0.00  0.00    +0.000 A 
ATOM     24  C   UNL     1       2.376   3.955  16.758  0.00  0.00    +0.000 A 
ATOM     25  C   UNL     1       1.114   3.958  17.348  0.00  0.00    +0.000 A 
ATOM     26  C   UNL     1       0.907   3.278  18.545  0.00  0.00    +0.000 A 
ATOM     27  C   UNL     1       1.957   2.613  19.181  0.00  0.00    +0.000 A 
ATOM     28  C   UNL     1       3.218   2.605  18.583  0.00  0.00    +0.000 A 
BRANCH  27  29
ATOM     29  O   UNL     1       1.598   1.976  20.329  0.00  0.00    +0.000 OA
BRANCH  29  30
ATOM     30  C   UNL     1       1.848   2.590  21.581  0.00  0.00    +0.000 C 
ATOM     31  F   UNL     1       3.088   2.370  22.065  0.00  0.00    +0.000 F 
ATOM     32  F   UNL     1       1.695   3.928  21.434  0.00  0.00    +0.000 F 
ATOM     33  F   UNL     1       0.940   2.164  22.485  0.00  0.00    +0.000 F 
ENDBRANCH  29  30
ENDBRANCH  27  29
ENDBRANCH  22  23
ENDBRANCH   1  22
TORSDOF 8
ENDMDL
MODEL 5
REMARK VINA RESULT:      -8.5      3.197      6.414
REMARK  Name = 
REMARK  8 active torsions:
REMARK  status: ('A' for Active; 'I' for Inactive)
REMARK    1  A    between atoms: C_2  and  C_4
REMARK    2  A    between atoms: C_4  and  C_5
REMARK    3  A    between atoms: C_4  and  N_11
REMARK    4  A    between atoms: N_11  and  C_12
REMARK    5  A    between atoms: C_12  and  C_13
REMARK    6  A    between atoms: C_17  and  O_18
REMARK    7  A    between atoms: O_18  and  C_19
REMARK    8  A    between atoms: C_24  and  C_26
REMARK                            x       y       z     vdW  Elec       q    Type
REMARK                         _______ _______ _______ _____ _____    ______ ____
ROOT
ATOM      1  N   UNL     1       5.645   4.467  16.773  0.00  0.00    +0.000 N 
ATOM      2  C   UNL     1       6.256   5.167  15.722  0.00  0.00    +0.000 C 
ATOM      3  O   UNL     1       6.861   6.229  15.901  0.00  0.00    +0.000 OA
ENDROOT
BRANCH   2   4
ATOM      4  C   UNL     1       6.312   4.621  14.341  0.00  0.00    +0.000 A 
ATOM      5  C   UNL     1       5.306   3.824  13.798  0.00  0.00    +0.000 A 
ATOM      6  C   UNL     1       5.482   3.241  12.540  0.00  0.00    +0.000 A 
ATOM      7  C   UNL     1       6.628   3.512  11.793  0.00  0.00    +0.000 A 
ATOM      8  C   UNL     1       7.595   4.381  12.290  0.00  0.00    +0.000 A 
ATOM      9  C   UNL     1       7.441   4.934  13.563  0.00  0.00    +0.000 A 
ENDBRANCH   2   4
BRANCH   1  10
ATOM     10  C   UNL     1       5.688   5.114  18.105  0.00  0.00    +0.000 C 
BRANCH  10  11
ATOM     11  C   UNL     1       4.502   6.054  18.322  0.00  0.00    +0.000 A 
ATOM     12  C   UNL     1       4.143   7.063  17.414  0.00  0.00    +0.000 A 
ATOM     13  C   UNL     1       3.086   7.932  17.699  0.00  0.00    +0.000 A 
ATOM     14  C   UNL     1       2.363   7.797  18.882  0.00  0.00    +0.000 A 
ATOM     15  C   UNL     1       2.683   6.780  19.778  0.00  0.00    +0.000 A 
ATOM     16  C   UNL     1       3.741   5.913  19.498  0.00  0.00    +0.000 A 
ENDBRANCH  10  11
BRANCH  10  18
ATOM     17  N   UNL     1       7.145   7.114  18.340  0.00  0.00    +0.000 N 
ATOM     18  C   UNL     1       7.069   5.749  18.445  0.00  0.00    +0.000 C 
ATOM     19  O   UNL     1       8.080   5.116  18.749  0.00  0.00    +0.000 OA
ATOM     20  H   UNL     1       8.023   7.544  18.602  0.00  0.00    +0.000 HD
ATOM     21  H   UNL     1       6.315   7.693  18.352  0.00  0.00    +0.000 HD
ENDBRANCH  10  18
ENDBRANCH   1  10
BRANCH   1  22
ATOM     22  C   UNL     1       4.796   3.267  16.651  0.00  0.00    +0.000 C 
BRANCH  22  23
ATOM     23  C   UNL     1       3.431   3.287  17.307  0.00  0.00    +0.000 A 
ATOM     24  C   UNL     1       2.325   3.926  16.734  0.00  0.00    +0.000 A 
ATOM     25  C   UNL     1       1.086   3.902  17.369  0.00  0.00    +0.000 A 
ATOM     26  C   UNL     1       0.934   3.212  18.569  0.00  0.00    +0.000 A 
ATOM     27  C   UNL     1       2.019   2.564  19.163  0.00  0.00    +0.000 A 
ATOM     28  C   UNL     1       3.257   2.582  18.520  0.00  0.00    +0.000 A 
BRANCH  27  29
ATOM     29  O   UNL     1       1.713   1.915  20.319  0.00  0.00    +0.000 OA
BRANCH  29  30
ATOM     30  C   UNL     1       1.846   2.588  21.559  0.00  0.00    +0.000 C 
ATOM     31  F   UNL     1       0.938   2.218  22.486  0.00  0.00    +0.000 F 
ATOM     32  F   UNL     1       3.076   2.319  22.057  0.00  0.00    +0.000 F 
ATOM     33  F   UNL     1       1.757   3.921  21.363  0.00  0.00    +0.000 F 
ENDBRANCH  29  30
ENDBRANCH  27  29
ENDBRANCH  22  23
ENDBRANCH   1  22
TORSDOF 8
ENDMDL
MODEL 6
REMARK VINA RESULT:      -8.5      1.929      3.043
REMARK  Name = 
REMARK  8 active torsions:
REMARK  status: ('A' for Active; 'I' for Inactive)
REMARK    1  A    between atoms: C_2  and  C_4
REMARK    2  A    between atoms: C_4  and  C_5
REMARK    3  A    between atoms: C_4  and  N_11
REMARK    4  A    between atoms: N_11  and  C_12
REMARK    5  A    between atoms: C_12  and  C_13
REMARK    6  A    between atoms: C_17  and  O_18
REMARK    7  A    between atoms: O_18  and  C_19
REMARK    8  A    between atoms: C_24  and  C_26
REMARK                            x       y       z     vdW  Elec       q    Type
REMARK                         _______ _______ _______ _____ _____    ______ ____
ROOT
ATOM      1  N   UNL     1       4.567   4.345  17.841  0.00  0.00    +0.000 N 
ATOM      2  C   UNL     1       4.491   3.391  18.866  0.00  0.00    +0.000 C 
ATOM      3  O   UNL     1       5.475   2.745  19.241  0.00  0.00    +0.000 OA
ENDROOT
BRANCH   2   4
ATOM      4  C   UNL     1       3.246   3.174  19.648  0.00  0.00    +0.000 A 
ATOM      5  C   UNL     1       2.062   2.709  19.077  0.00  0.00    +0.000 A 
ATOM      6  C   UNL     1       0.897   2.648  19.845  0.00  0.00    +0.000 A 
ATOM      7  C   UNL     1       0.927   2.981  21.199  0.00  0.00    +0.000 A 
ATOM      8  C   UNL     1       2.126   3.357  21.798  0.00  0.00    +0.000 A 
ATOM      9  C   UNL     1       3.284   3.456  21.025  0.00  0.00    +0.000 A 
ENDBRANCH   2   4
BRANCH   1  10
ATOM     10  C   UNL     1       5.879   4.478  17.164  0.00  0.00    +0.000 C 
BRANCH  10  11
ATOM     11  C   UNL     1       6.649   5.706  17.650  0.00  0.00    +0.000 A 
ATOM     12  C   UNL     1       6.534   6.973  17.056  0.00  0.00    +0.000 A 
ATOM     13  C   UNL     1       7.312   8.043  17.504  0.00  0.00    +0.000 A 
ATOM     14  C   UNL     1       8.203   7.870  18.561  0.00  0.00    +0.000 A 
ATOM     15  C   UNL     1       8.306   6.629  19.185  0.00  0.00    +0.000 A 
ATOM     16  C   UNL     1       7.532   5.558  18.736  0.00  0.00    +0.000 A 
ENDBRANCH  10  11
BRANCH  10  18
ATOM     17  N   UNL     1       6.098   3.123  15.092  0.00  0.00    +0.000 N 
ATOM     18  C   UNL     1       5.796   4.355  15.614  0.00  0.00    +0.000 C 
ATOM     19  O   UNL     1       5.530   5.280  14.847  0.00  0.00    +0.000 OA
ATOM     20  H   UNL     1       6.005   3.017  14.090  0.00  0.00    +0.000 HD
ATOM     21  H   UNL     1       6.068   2.286  15.659  0.00  0.00    +0.000 HD
ENDBRANCH  10  18
ENDBRANCH   1  10
BRANCH   1  22
ATOM     22  C   UNL     1       3.437   5.074  17.235  0.00  0.00    +0.000 C 
BRANCH  22  23
ATOM     23  C   UNL     1       2.991   6.368  17.885  0.00  0.00    +0.000 A 
ATOM     24  C   UNL     1       3.101   7.611  17.251  0.00  0.00    +0.000 A 
ATOM     25  C   UNL     1       2.661   8.770  17.884  0.00  0.00    +0.000 A 
ATOM     26  C   UNL     1       2.078   8.693  19.146  0.00  0.00    +0.000 A 
ATOM     27  C   UNL     1       1.953   7.467  19.802  0.00  0.00    +0.000 A 
ATOM     28  C   UNL     1       2.387   6.306  19.161  0.00  0.00    +0.000 A 
BRANCH  27  29
ATOM     29  O   UNL     1       1.344   7.546  21.016  0.00  0.00    +0.000 OA
BRANCH  29  30
ATOM     30  C   UNL     1       0.456   8.616  21.290  0.00  0.00    +0.000 C 
ATOM     31  F   UNL     1      -0.001   9.247  20.189  0.00  0.00    +0.000 F 
ATOM     32  F   UNL     1      -0.614   8.119  21.954  0.00  0.00    +0.000 F 
ATOM     33  F   UNL     1       1.064   9.516  22.093  0.00  0.00    +0.000 F 
ENDBRANCH  29  30
ENDBRANCH  27  29
ENDBRANCH  22  23
ENDBRANCH   1  22
TORSDOF 8
ENDMDL
MODEL 7
REMARK VINA RESULT:      -8.5      2.085      3.184
REMARK  Name = 
REMARK  8 active torsions:
REMARK  status: ('A' for Active; 'I' for Inactive)
REMARK    1  A    between atoms: C_2  and  C_4
REMARK    2  A    between atoms: C_4  and  C_5
REMARK    3  A    between atoms: C_4  and  N_11
REMARK    4  A    between atoms: N_11  and  C_12
REMARK    5  A    between atoms: C_12  and  C_13
REMARK    6  A    between atoms: C_17  and  O_18
REMARK    7  A    between atoms: O_18  and  C_19
REMARK    8  A    between atoms: C_24  and  C_26
REMARK                            x       y       z     vdW  Elec       q    Type
REMARK                         _______ _______ _______ _____ _____    ______ ____
ROOT
ATOM      1  N   UNL     1       4.923   4.550  18.426  0.00  0.00    +0.000 N 
ATOM      2  C   UNL     1       4.043   3.484  18.185  0.00  0.00    +0.000 C 
ATOM      3  O   UNL     1       4.222   2.675  17.268  0.00  0.00    +0.000 OA
ENDROOT
BRANCH   2   4
ATOM      4  C   UNL     1       2.899   3.190  19.086  0.00  0.00    +0.000 A 
ATOM      5  C   UNL     1       1.568   3.293  18.684  0.00  0.00    +0.000 A 
ATOM      6  C   UNL     1       0.544   3.124  19.618  0.00  0.00    +0.000 A 
ATOM      7  C   UNL     1       0.842   2.780  20.936  0.00  0.00    +0.000 A 
ATOM      8  C   UNL     1       2.165   2.584  21.323  0.00  0.00    +0.000 A 
ATOM      9  C   UNL     1       3.193   2.790  20.402  0.00  0.00    +0.000 A 
ENDBRANCH   2   4
BRANCH   1  10
ATOM     10  C   UNL     1       6.039   4.709  17.464  0.00  0.00    +0.000 C 
BRANCH  10  11
ATOM     11  C   UNL     1       6.932   5.899  17.818  0.00  0.00    +0.000 A 
ATOM     12  C   UNL     1       7.805   5.906  18.918  0.00  0.00    +0.000 A 
ATOM     13  C   UNL     1       8.549   7.048  19.227  0.00  0.00    +0.000 A 
ATOM     14  C   UNL     1       8.447   8.190  18.436  0.00  0.00    +0.000 A 
ATOM     15  C   UNL     1       7.612   8.189  17.322  0.00  0.00    +0.000 A 
ATOM     16  C   UNL     1       6.865   7.051  17.012  0.00  0.00    +0.000 A 
ENDBRANCH  10  11
BRANCH  10  18
ATOM     17  N   UNL     1       6.121   3.677  15.204  0.00  0.00    +0.000 N 
ATOM     18  C   UNL     1       5.587   4.678  15.974  0.00  0.00    +0.000 C 
ATOM     19  O   UNL     1       4.837   5.501  15.448  0.00  0.00    +0.000 OA
ATOM     20  H   UNL     1       5.801   3.618  14.246  0.00  0.00    +0.000 HD
ATOM     21  H   UNL     1       6.520   2.845  15.620  0.00  0.00    +0.000 HD
ENDBRANCH  10  18
ENDBRANCH   1  10
BRANCH   1  22
ATOM     22  C   UNL     1       4.737   5.636  19.405  0.00  0.00    +0.000 C 
BRANCH  22  23
ATOM     23  C   UNL     1       3.612   6.624  19.172  0.00  0.00    +0.000 A 
ATOM     24  C   UNL     1       3.444   7.310  17.963  0.00  0.00    +0.000 A 
ATOM     25  C   UNL     1       2.383   8.195  17.793  0.00  0.00    +0.000 A 
ATOM     26  C   UNL     1       1.462   8.380  18.820  0.00  0.00    +0.000 A 
ATOM     27  C   UNL     1       1.601   7.707  20.035  0.00  0.00    +0.000 A 
ATOM     28  C   UNL     1       2.661   6.814  20.200  0.00  0.00    +0.000 A 
BRANCH  27  29
ATOM     29  O   UNL     1       0.613   7.970  20.933  0.00  0.00    +0.000 OA
BRANCH  29  30
ATOM     30  C   UNL     1       0.749   9.061  21.828  0.00  0.00    +0.000 C 
ATOM     31  F   UNL     1      -0.139   9.054  22.843  0.00  0.00    +0.000 F 
ATOM     32  F   UNL     1       1.991   9.015  22.365  0.00  0.00    +0.000 F 
ATOM     33  F   UNL     1       0.631  10.222  21.148  0.00  0.00    +0.000 F 
ENDBRANCH  29  30
ENDBRANCH  27  29
ENDBRANCH  22  23
ENDBRANCH   1  22
TORSDOF 8
ENDMDL
MODEL 8
REMARK VINA RESULT:      -8.3      1.939      3.194
REMARK  Name = 
REMARK  8 active torsions:
REMARK  status: ('A' for Active; 'I' for Inactive)
REMARK    1  A    between atoms: C_2  and  C_4
REMARK    2  A    between atoms: C_4  and  C_5
REMARK    3  A    between atoms: C_4  and  N_11
REMARK    4  A    between atoms: N_11  and  C_12
REMARK    5  A    between atoms: C_12  and  C_13
REMARK    6  A    between atoms: C_17  and  O_18
REMARK    7  A    between atoms: O_18  and  C_19
REMARK    8  A    between atoms: C_24  and  C_26
REMARK                            x       y       z     vdW  Elec       q    Type
REMARK                         _______ _______ _______ _____ _____    ______ ____
ROOT
ATOM      1  N   UNL     1       4.551   4.499  17.856  0.00  0.00    +0.000 N 
ATOM      2  C   UNL     1       4.499   3.569  18.905  0.00  0.00    +0.000 C 
ATOM      3  O   UNL     1       5.492   2.933  19.273  0.00  0.00    +0.000 OA
ENDROOT
BRANCH   2   4
ATOM      4  C   UNL     1       3.272   3.370  19.719  0.00  0.00    +0.000 A 
ATOM      5  C   UNL     1       3.176   3.754  21.056  0.00  0.00    +0.000 A 
ATOM      6  C   UNL     1       2.037   3.423  21.794  0.00  0.00    +0.000 A 
ATOM      7  C   UNL     1       0.964   2.776  21.183  0.00  0.00    +0.000 A 
ATOM      8  C   UNL     1       1.015   2.472  19.825  0.00  0.00    +0.000 A 
ATOM      9  C   UNL     1       2.167   2.766  19.093  0.00  0.00    +0.000 A 
ENDBRANCH   2   4
BRANCH   1  10
ATOM     10  C   UNL     1       5.847   4.617  17.148  0.00  0.00    +0.000 C 
BRANCH  10  11
ATOM     11  C   UNL     1       6.658   5.818  17.637  0.00  0.00    +0.000 A 
ATOM     12  C   UNL     1       6.584   7.089  17.046  0.00  0.00    +0.000 A 
ATOM     13  C   UNL     1       7.397   8.132  17.498  0.00  0.00    +0.000 A 
ATOM     14  C   UNL     1       8.281   7.927  18.555  0.00  0.00    +0.000 A 
ATOM     15  C   UNL     1       8.343   6.682  19.176  0.00  0.00    +0.000 A 
ATOM     16  C   UNL     1       7.534   5.638  18.723  0.00  0.00    +0.000 A 
ENDBRANCH  10  11
BRANCH  10  18
ATOM     17  N   UNL     1       6.120   3.345  15.030  0.00  0.00    +0.000 N 
ATOM     18  C   UNL     1       5.722   4.528  15.598  0.00  0.00    +0.000 C 
ATOM     19  O   UNL     1       5.341   5.442  14.868  0.00  0.00    +0.000 OA
ATOM     20  H   UNL     1       6.001   3.257  14.029  0.00  0.00    +0.000 HD
ATOM     21  H   UNL     1       6.191   2.494  15.573  0.00  0.00    +0.000 HD
ENDBRANCH  10  18
ENDBRANCH   1  10
BRANCH   1  22
ATOM     22  C   UNL     1       3.407   5.213  17.259  0.00  0.00    +0.000 C 
BRANCH  22  23
ATOM     23  C   UNL     1       2.954   6.505  17.906  0.00  0.00    +0.000 A 
ATOM     24  C   UNL     1       3.016   7.742  17.254  0.00  0.00    +0.000 A 
ATOM     25  C   UNL     1       2.571   8.899  17.886  0.00  0.00    +0.000 A 
ATOM     26  C   UNL     1       2.031   8.827  19.168  0.00  0.00    +0.000 A 
ATOM     27  C   UNL     1       1.954   7.607  19.842  0.00  0.00    +0.000 A 
ATOM     28  C   UNL     1       2.393   6.447  19.202  0.00  0.00    +0.000 A 
BRANCH  27  29
ATOM     29  O   UNL     1       1.383   7.688  21.075  0.00  0.00    +0.000 OA
BRANCH  29  30
ATOM     30  C   UNL     1       0.528   8.776  21.383  0.00  0.00    +0.000 C 
ATOM     31  F   UNL     1      -0.316   8.539  22.408  0.00  0.00    +0.000 F 
ATOM     32  F   UNL     1       1.299   9.837  21.722  0.00  0.00    +0.000 F 
ATOM     33  F   UNL     1      -0.189   9.114  20.290  0.00  0.00    +0.000 F 
ENDBRANCH  29  30
ENDBRANCH  27  29
ENDBRANCH  22  23
ENDBRANCH   1  22
TORSDOF 8
ENDMDL
MODEL 9
REMARK VINA RESULT:      -8.3      1.561      2.480
REMARK  Name = 
REMARK  8 active torsions:
REMARK  status: ('A' for Active; 'I' for Inactive)
REMARK    1  A    between atoms: C_2  and  C_4
REMARK    2  A    between atoms: C_4  and  C_5
REMARK    3  A    between atoms: C_4  and  N_11
REMARK    4  A    between atoms: N_11  and  C_12
REMARK    5  A    between atoms: C_12  and  C_13
REMARK    6  A    between atoms: C_17  and  O_18
REMARK    7  A    between atoms: O_18  and  C_19
REMARK    8  A    between atoms: C_24  and  C_26
REMARK                            x       y       z     vdW  Elec       q    Type
REMARK                         _______ _______ _______ _____ _____    ______ ____
ROOT
ATOM      1  N   UNL     1       4.568   4.421  17.867  0.00  0.00    +0.000 N 
ATOM      2  C   UNL     1       4.438   3.383  18.802  0.00  0.00    +0.000 C 
ATOM      3  O   UNL     1       5.385   2.655  19.115  0.00  0.00    +0.000 OA
ENDROOT
BRANCH   2   4
ATOM      4  C   UNL     1       3.181   3.165  19.564  0.00  0.00    +0.000 A 
ATOM      5  C   UNL     1       1.957   2.897  18.951  0.00  0.00    +0.000 A 
ATOM      6  C   UNL     1       0.794   2.828  19.721  0.00  0.00    +0.000 A 
ATOM      7  C   UNL     1       0.859   2.950  21.108  0.00  0.00    +0.000 A 
ATOM      8  C   UNL     1       2.089   3.124  21.736  0.00  0.00    +0.000 A 
ATOM      9  C   UNL     1       3.249   3.233  20.967  0.00  0.00    +0.000 A 
ENDBRANCH   2   4
BRANCH   1  10
ATOM     10  C   UNL     1       5.887   4.543  17.202  0.00  0.00    +0.000 C 
BRANCH  10  11
ATOM     11  C   UNL     1       6.637   5.798  17.651  0.00  0.00    +0.000 A 
ATOM     12  C   UNL     1       6.460   7.056  17.053  0.00  0.00    +0.000 A 
ATOM     13  C   UNL     1       7.221   8.153  17.465  0.00  0.00    +0.000 A 
ATOM     14  C   UNL     1       8.157   8.015  18.488  0.00  0.00    +0.000 A 
ATOM     15  C   UNL     1       8.322   6.783  19.115  0.00  0.00    +0.000 A 
ATOM     16  C   UNL     1       7.565   5.685  18.703  0.00  0.00    +0.000 A 
ENDBRANCH  10  11
BRANCH  10  18
ATOM     17  N   UNL     1       6.076   3.095  15.191  0.00  0.00    +0.000 N 
ATOM     18  C   UNL     1       5.826   4.360  15.657  0.00  0.00    +0.000 C 
ATOM     19  O   UNL     1       5.618   5.264  14.848  0.00  0.00    +0.000 OA
ATOM     20  H   UNL     1       5.996   2.953  14.192  0.00  0.00    +0.000 HD
ATOM     21  H   UNL     1       5.997   2.284  15.791  0.00  0.00    +0.000 HD
ENDBRANCH  10  18
ENDBRANCH   1  10
BRANCH   1  22
ATOM     22  C   UNL     1       3.480   5.261  17.332  0.00  0.00    +0.000 C 
BRANCH  22  23
ATOM     23  C   UNL     1       2.890   6.325  18.234  0.00  0.00    +0.000 A 
ATOM     24  C   UNL     1       2.820   6.186  19.625  0.00  0.00    +0.000 A 
ATOM     25  C   UNL     1       2.283   7.201  20.412  0.00  0.00    +0.000 A 
ATOM     26  C   UNL     1       1.838   8.379  19.818  0.00  0.00    +0.000 A 
ATOM     27  C   UNL     1       1.898   8.548  18.433  0.00  0.00    +0.000 A 
ATOM     28  C   UNL     1       2.445   7.532  17.648  0.00  0.00    +0.000 A 
BRANCH  27  29
ATOM     29  O   UNL     1       1.450   9.757  18.000  0.00  0.00    +0.000 OA
BRANCH  29  30
ATOM     30  C   UNL     1       0.104  10.134  18.238  0.00  0.00    +0.000 C 
ATOM     31  F   UNL     1      -0.759   9.719  17.288  0.00  0.00    +0.000 F 
ATOM     32  F   UNL     1      -0.286   9.590  19.415  0.00  0.00    +0.000 F 
ATOM     33  F   UNL     1       0.023  11.477  18.351  0.00  0.00    +0.000 F 
ENDBRANCH  29  30
ENDBRANCH  27  29
ENDBRANCH  22  23
ENDBRANCH   1  22
TORSDOF 8
ENDMDL
