MODEL 1
REMARK VINA RESULT:      -6.6      0.000      0.000
REMARK  Name = 
REMARK  3 active torsions:
REMARK  status: ('A' for Active; 'I' for Inactive)
REMARK    1  A    between atoms: C_1  and  C_2
REMARK    2  A    between atoms: N_7  and  C_8
REMARK    3  A    between atoms: C_8  and  C_9
REMARK                            x       y       z     vdW  Elec       q    Type
REMARK                         _______ _______ _______ _____ _____    ______ ____
ROOT
ATOM      1  C   UNL     1       1.879   5.538  20.506  0.00  0.00    +0.000 C 
ATOM      2  C   UNL     1       2.214   4.051  20.608  0.00  0.00    +0.000 C 
ATOM      3  F   UNL     1       2.349   3.752  21.935  0.00  0.00    +0.000 F 
ATOM      4  C   UNL     1       1.101   3.164  20.047  0.00  0.00    +0.000 C 
ATOM      5  C   UNL     1       1.049   3.218  18.524  0.00  0.00    +0.000 C 
ATOM      6  C   UNL     1       2.426   2.996  17.881  0.00  0.00    +0.000 C 
ATOM      7  N   UNL     1       3.445   3.907  18.430  0.00  0.00    +0.000 NA
ATOM      8  C   UNL     1       3.539   3.721  19.898  0.00  0.00    +0.000 C 
ENDROOT
BRANCH   7   9
ATOM      9  C   UNL     1       4.776   3.716  17.822  0.00  0.00    +0.000 C 
BRANCH   9  10
ATOM     10  C   UNL     1       5.025   4.487  16.499  0.00  0.00    +0.000 C 
ATOM     11  C   UNL     1       4.783   6.001  16.611  0.00  0.00    +0.000 C 
ATOM     12  C   UNL     1       5.881   6.705  17.405  0.00  0.00    +0.000 C 
ATOM     13  C   UNL     1       7.268   6.286  16.930  0.00  0.00    +0.000 C 
ATOM     14  O   UNL     1       7.403   4.867  16.910  0.00  0.00    +0.000 OA
ATOM     15  C   UNL     1       6.465   4.254  16.027  0.00  0.00    +0.000 C 
ENDBRANCH   9  10
ENDBRANCH   7   9
TORSDOF 2
ENDMDL
MODEL 2
REMARK VINA RESULT:      -6.6      2.715      5.439
REMARK  Name = 
REMARK  3 active torsions:
REMARK  status: ('A' for Active; 'I' for Inactive)
REMARK    1  A    between atoms: C_1  and  C_2
REMARK    2  A    between atoms: N_7  and  C_8
REMARK    3  A    between atoms: C_8  and  C_9
REMARK                            x       y       z     vdW  Elec       q    Type
REMARK                         _______ _______ _______ _____ _____    ______ ____
ROOT
ATOM      1  C   UNL     1       7.230   4.551  17.107  0.00  0.00    +0.000 C 
ATOM      2  C   UNL     1       6.925   5.746  18.010  0.00  0.00    +0.000 C 
ATOM      3  F   UNL     1       8.092   6.101  18.625  0.00  0.00    +0.000 F 
ATOM      4  C   UNL     1       6.431   6.960  17.222  0.00  0.00    +0.000 C 
ATOM      5  C   UNL     1       5.005   6.765  16.718  0.00  0.00    +0.000 C 
ATOM      6  C   UNL     1       4.051   6.293  17.824  0.00  0.00    +0.000 C 
ATOM      7  N   UNL     1       4.558   5.096  18.517  0.00  0.00    +0.000 NA
ATOM      8  C   UNL     1       5.894   5.385  19.094  0.00  0.00    +0.000 C 
ENDROOT
BRANCH   7   9
ATOM      9  C   UNL     1       3.653   4.620  19.582  0.00  0.00    +0.000 C 
BRANCH   9  10
ATOM     10  C   UNL     1       3.483   3.081  19.676  0.00  0.00    +0.000 C 
ATOM     11  C   UNL     1       2.403   2.638  20.676  0.00  0.00    +0.000 C 
ATOM     12  C   UNL     1       0.991   2.915  20.165  0.00  0.00    +0.000 C 
ATOM     13  C   UNL     1       0.811   2.426  18.733  0.00  0.00    +0.000 C 
ATOM     14  O   UNL     1       1.835   2.933  17.879  0.00  0.00    +0.000 OA
ATOM     15  C   UNL     1       3.134   2.514  18.295  0.00  0.00    +0.000 C 
ENDBRANCH   9  10
ENDBRANCH   7   9
TORSDOF 2
ENDMDL
MODEL 3
REMARK VINA RESULT:      -6.5      1.749      2.728
REMARK  Name = 
REMARK  3 active torsions:
REMARK  status: ('A' for Active; 'I' for Inactive)
REMARK    1  A    between atoms: C_1  and  C_2
REMARK    2  A    between atoms: N_7  and  C_8
REMARK    3  A    between atoms: C_8  and  C_9
REMARK                            x       y       z     vdW  Elec       q    Type
REMARK                         _______ _______ _______ _____ _____    ______ ____
ROOT
ATOM      1  C   UNL     1       2.466   1.988  19.239  0.00  0.00    +0.000 C 
ATOM      2  C   UNL     1       1.430   3.085  19.002  0.00  0.00    +0.000 C 
ATOM      3  F   UNL     1       0.367   2.511  18.362  0.00  0.00    +0.000 F 
ATOM      4  C   UNL     1       0.912   3.689  20.308  0.00  0.00    +0.000 C 
ATOM      5  C   UNL     1       1.953   4.586  20.968  0.00  0.00    +0.000 C 
ATOM      6  C   UNL     1       2.557   5.604  19.991  0.00  0.00    +0.000 C 
ATOM      7  N   UNL     1       3.078   4.960  18.773  0.00  0.00    +0.000 NA
ATOM      8  C   UNL     1       1.989   4.205  18.106  0.00  0.00    +0.000 C 
ENDROOT
BRANCH   7   9
ATOM      9  C   UNL     1       3.668   5.920  17.821  0.00  0.00    +0.000 C 
BRANCH   9  10
ATOM     10  C   UNL     1       5.213   5.866  17.687  0.00  0.00    +0.000 C 
ATOM     11  C   UNL     1       5.756   4.467  17.351  0.00  0.00    +0.000 C 
ATOM     12  C   UNL     1       5.465   4.065  15.907  0.00  0.00    +0.000 C 
ATOM     13  C   UNL     1       5.841   5.175  14.933  0.00  0.00    +0.000 C 
ATOM     14  O   UNL     1       5.246   6.417  15.307  0.00  0.00    +0.000 OA
ATOM     15  C   UNL     1       5.673   6.845  16.600  0.00  0.00    +0.000 C 
ENDBRANCH   9  10
ENDBRANCH   7   9
TORSDOF 2
ENDMDL
MODEL 4
REMARK VINA RESULT:      -6.5      2.942      5.662
REMARK  Name = 
REMARK  3 active torsions:
REMARK  status: ('A' for Active; 'I' for Inactive)
REMARK    1  A    between atoms: C_1  and  C_2
REMARK    2  A    between atoms: N_7  and  C_8
REMARK    3  A    between atoms: C_8  and  C_9
REMARK                            x       y       z     vdW  Elec       q    Type
REMARK                         _______ _______ _______ _____ _____    ______ ____
ROOT
ATOM      1  C   UNL     1       7.696   4.560  17.490  0.00  0.00    +0.000 C 
ATOM      2  C   UNL     1       7.301   5.802  18.289  0.00  0.00    +0.000 C 
ATOM      3  F   UNL     1       8.391   6.179  19.022  0.00  0.00    +0.000 F 
ATOM      4  C   UNL     1       6.923   6.978  17.387  0.00  0.00    +0.000 C 
ATOM      5  C   UNL     1       5.565   6.768  16.725  0.00  0.00    +0.000 C 
ATOM      6  C   UNL     1       4.478   6.361  17.729  0.00  0.00    +0.000 C 
ATOM      7  N   UNL     1       4.881   5.198  18.538  0.00  0.00    +0.000 NA
ATOM      8  C   UNL     1       6.142   5.505  19.257  0.00  0.00    +0.000 C 
ENDROOT
BRANCH   7   9
ATOM      9  C   UNL     1       3.848   4.784  19.507  0.00  0.00    +0.000 C 
BRANCH   9  10
ATOM     10  C   UNL     1       2.388   5.143  19.124  0.00  0.00    +0.000 C 
ATOM     11  C   UNL     1       1.786   4.220  18.052  0.00  0.00    +0.000 C 
ATOM     12  C   UNL     1       1.461   2.832  18.598  0.00  0.00    +0.000 C 
ATOM     13  C   UNL     1       0.692   2.916  19.912  0.00  0.00    +0.000 C 
ATOM     14  O   UNL     1       1.361   3.755  20.852  0.00  0.00    +0.000 OA
ATOM     15  C   UNL     1       1.498   5.091  20.372  0.00  0.00    +0.000 C 
ENDBRANCH   9  10
ENDBRANCH   7   9
TORSDOF 2
ENDMDL
MODEL 5
REMARK VINA RESULT:      -6.5      2.940      5.701
REMARK  Name = 
REMARK  3 active torsions:
REMARK  status: ('A' for Active; 'I' for Inactive)
REMARK    1  A    between atoms: C_1  and  C_2
REMARK    2  A    between atoms: N_7  and  C_8
REMARK    3  A    between atoms: C_8  and  C_9
REMARK                            x       y       z     vdW  Elec       q    Type
REMARK                         _______ _______ _______ _____ _____    ______ ____
ROOT
ATOM      1  C   UNL     1       5.493   5.603  15.487  0.00  0.00    +0.000 C 
ATOM      2  C   UNL     1       6.046   4.439  16.308  0.00  0.00    +0.000 C 
ATOM      3  F   UNL     1       6.141   3.360  15.474  0.00  0.00    +0.000 F 
ATOM      4  C   UNL     1       7.446   4.725  16.852  0.00  0.00    +0.000 C 
ATOM      5  C   UNL     1       7.413   5.732  17.997  0.00  0.00    +0.000 C 
ATOM      6  C   UNL     1       6.374   5.370  19.068  0.00  0.00    +0.000 C 
ATOM      7  N   UNL     1       5.038   5.150  18.490  0.00  0.00    +0.000 NA
ATOM      8  C   UNL     1       5.108   4.073  17.472  0.00  0.00    +0.000 C 
ENDROOT
BRANCH   7   9
ATOM      9  C   UNL     1       4.021   4.806  19.502  0.00  0.00    +0.000 C 
BRANCH   9  10
ATOM     10  C   UNL     1       2.594   5.351  19.230  0.00  0.00    +0.000 C 
ATOM     11  C   UNL     1       1.807   4.532  18.194  0.00  0.00    +0.000 C 
ATOM     12  C   UNL     1       1.350   3.184  18.748  0.00  0.00    +0.000 C 
ATOM     13  C   UNL     1       0.692   3.338  20.114  0.00  0.00    +0.000 C 
ATOM     14  O   UNL     1       1.525   4.068  21.013  0.00  0.00    +0.000 OA
ATOM     15  C   UNL     1       1.795   5.386  20.538  0.00  0.00    +0.000 C 
ENDBRANCH   9  10
ENDBRANCH   7   9
TORSDOF 2
ENDMDL
MODEL 6
REMARK VINA RESULT:      -6.5      1.365      2.022
REMARK  Name = 
REMARK  3 active torsions:
REMARK  status: ('A' for Active; 'I' for Inactive)
REMARK    1  A    between atoms: C_1  and  C_2
REMARK    2  A    between atoms: N_7  and  C_8
REMARK    3  A    between atoms: C_8  and  C_9
REMARK                            x       y       z     vdW  Elec       q    Type
REMARK                         _______ _______ _______ _____ _____    ______ ____
ROOT
ATOM      1  C   UNL     1       2.452   2.626  21.664  0.00  0.00    +0.000 C 
ATOM      2  C   UNL     1       1.945   2.990  20.270  0.00  0.00    +0.000 C 
ATOM      3  F   UNL     1       1.269   1.905  19.786  0.00  0.00    +0.000 F 
ATOM      4  C   UNL     1       0.970   4.168  20.294  0.00  0.00    +0.000 C 
ATOM      5  C   UNL     1       1.686   5.488  20.559  0.00  0.00    +0.000 C 
ATOM      6  C   UNL     1       2.905   5.689  19.648  0.00  0.00    +0.000 C 
ATOM      7  N   UNL     1       3.828   4.543  19.699  0.00  0.00    +0.000 NA
ATOM      8  C   UNL     1       3.107   3.306  19.311  0.00  0.00    +0.000 C 
ENDROOT
BRANCH   7   9
ATOM      9  C   UNL     1       5.012   4.716  18.835  0.00  0.00    +0.000 C 
BRANCH   9  10
ATOM     10  C   UNL     1       4.755   5.440  17.487  0.00  0.00    +0.000 C 
ATOM     11  C   UNL     1       5.730   6.597  17.211  0.00  0.00    +0.000 C 
ATOM     12  C   UNL     1       7.129   6.103  16.853  0.00  0.00    +0.000 C 
ATOM     13  C   UNL     1       7.079   5.009  15.793  0.00  0.00    +0.000 C 
ATOM     14  O   UNL     1       6.186   3.962  16.168  0.00  0.00    +0.000 OA
ATOM     15  C   UNL     1       4.849   4.434  16.333  0.00  0.00    +0.000 C 
ENDBRANCH   9  10
ENDBRANCH   7   9
TORSDOF 2
ENDMDL
MODEL 7
REMARK VINA RESULT:      -6.5      3.025      5.743
REMARK  Name = 
REMARK  3 active torsions:
REMARK  status: ('A' for Active; 'I' for Inactive)
REMARK    1  A    between atoms: C_1  and  C_2
REMARK    2  A    between atoms: N_7  and  C_8
REMARK    3  A    between atoms: C_8  and  C_9
REMARK                            x       y       z     vdW  Elec       q    Type
REMARK                         _______ _______ _______ _____ _____    ______ ____
ROOT
ATOM      1  C   UNL     1       5.589   5.546  15.261  0.00  0.00    +0.000 C 
ATOM      2  C   UNL     1       5.936   4.340  16.133  0.00  0.00    +0.000 C 
ATOM      3  F   UNL     1       6.125   3.274  15.298  0.00  0.00    +0.000 F 
ATOM      4  C   UNL     1       7.232   4.545  16.919  0.00  0.00    +0.000 C 
ATOM      5  C   UNL     1       7.046   5.530  18.068  0.00  0.00    +0.000 C 
ATOM      6  C   UNL     1       5.821   5.201  18.933  0.00  0.00    +0.000 C 
ATOM      7  N   UNL     1       4.597   5.058  18.126  0.00  0.00    +0.000 NA
ATOM      8  C   UNL     1       4.794   3.999  17.106  0.00  0.00    +0.000 C 
ENDROOT
BRANCH   7   9
ATOM      9  C   UNL     1       3.404   4.746  18.937  0.00  0.00    +0.000 C 
BRANCH   9  10
ATOM     10  C   UNL     1       2.984   3.253  18.962  0.00  0.00    +0.000 C 
ATOM     11  C   UNL     1       3.434   2.505  20.227  0.00  0.00    +0.000 C 
ATOM     12  C   UNL     1       2.627   2.910  21.458  0.00  0.00    +0.000 C 
ATOM     13  C   UNL     1       1.130   2.891  21.172  0.00  0.00    +0.000 C 
ATOM     14  O   UNL     1       0.813   3.654  20.009  0.00  0.00    +0.000 OA
ATOM     15  C   UNL     1       1.459   3.143  18.844  0.00  0.00    +0.000 C 
ENDBRANCH   9  10
ENDBRANCH   7   9
TORSDOF 2
ENDMDL
MODEL 8
REMARK VINA RESULT:      -6.5      2.736      5.517
REMARK  Name = 
REMARK  3 active torsions:
REMARK  status: ('A' for Active; 'I' for Inactive)
REMARK    1  A    between atoms: C_1  and  C_2
REMARK    2  A    between atoms: N_7  and  C_8
REMARK    3  A    between atoms: C_8  and  C_9
REMARK                            x       y       z     vdW  Elec       q    Type
REMARK                         _______ _______ _______ _____ _____    ______ ____
ROOT
ATOM      1  C   UNL     1       5.980   3.731  15.727  0.00  0.00    +0.000 C 
ATOM      2  C   UNL     1       6.523   4.652  16.817  0.00  0.00    +0.000 C 
ATOM      3  F   UNL     1       7.841   4.338  16.998  0.00  0.00    +0.000 F 
ATOM      4  C   UNL     1       6.452   6.128  16.421  0.00  0.00    +0.000 C 
ATOM      5  C   UNL     1       5.022   6.655  16.458  0.00  0.00    +0.000 C 
ATOM      6  C   UNL     1       4.303   6.312  17.771  0.00  0.00    +0.000 C 
ATOM      7  N   UNL     1       4.368   4.873  18.077  0.00  0.00    +0.000 NA
ATOM      8  C   UNL     1       5.786   4.444  18.152  0.00  0.00    +0.000 C 
ENDROOT
BRANCH   7   9
ATOM      9  C   UNL     1       3.678   4.519  19.333  0.00  0.00    +0.000 C 
BRANCH   9  10
ATOM     10  C   UNL     1       3.413   3.005  19.547  0.00  0.00    +0.000 C 
ATOM     11  C   UNL     1       2.385   2.708  20.651  0.00  0.00    +0.000 C 
ATOM     12  C   UNL     1       0.961   3.051  20.223  0.00  0.00    +0.000 C 
ATOM     13  C   UNL     1       0.641   2.483  18.845  0.00  0.00    +0.000 C 
ATOM     14  O   UNL     1       1.628   2.858  17.887  0.00  0.00    +0.000 OA
ATOM     15  C   UNL     1       2.924   2.376  18.238  0.00  0.00    +0.000 C 
ENDBRANCH   9  10
ENDBRANCH   7   9
TORSDOF 2
ENDMDL
MODEL 9
REMARK VINA RESULT:      -6.4      1.652      2.341
REMARK  Name = 
REMARK  3 active torsions:
REMARK  status: ('A' for Active; 'I' for Inactive)
REMARK    1  A    between atoms: C_1  and  C_2
REMARK    2  A    between atoms: N_7  and  C_8
REMARK    3  A    between atoms: C_8  and  C_9
REMARK                            x       y       z     vdW  Elec       q    Type
REMARK                         _______ _______ _______ _____ _____    ______ ____
ROOT
ATOM      1  C   UNL     1       2.365   2.015  19.492  0.00  0.00    +0.000 C 
ATOM      2  C   UNL     1       1.387   3.128  19.120  0.00  0.00    +0.000 C 
ATOM      3  F   UNL     1       0.292   2.537  18.554  0.00  0.00    +0.000 F 
ATOM      4  C   UNL     1       0.907   3.913  20.341  0.00  0.00    +0.000 C 
ATOM      5  C   UNL     1       1.998   4.828  20.889  0.00  0.00    +0.000 C 
ATOM      6  C   UNL     1       2.649   5.686  19.795  0.00  0.00    +0.000 C 
ATOM      7  N   UNL     1       3.130   4.871  18.666  0.00  0.00    +0.000 NA
ATOM      8  C   UNL     1       2.000   4.098  18.094  0.00  0.00    +0.000 C 
ENDROOT
BRANCH   7   9
ATOM      9  C   UNL     1       3.765   5.675  17.604  0.00  0.00    +0.000 C 
BRANCH   9  10
ATOM     10  C   UNL     1       5.053   5.069  16.986  0.00  0.00    +0.000 C 
ATOM     11  C   UNL     1       5.951   6.103  16.289  0.00  0.00    +0.000 C 
ATOM     12  C   UNL     1       6.672   7.009  17.284  0.00  0.00    +0.000 C 
ATOM     13  C   UNL     1       7.330   6.200  18.396  0.00  0.00    +0.000 C 
ATOM     14  O   UNL     1       6.400   5.309  19.010  0.00  0.00    +0.000 OA
ATOM     15  C   UNL     1       5.870   4.367  18.078  0.00  0.00    +0.000 C 
ENDBRANCH   9  10
ENDBRANCH   7   9
TORSDOF 2
ENDMDL
