MODEL 1
REMARK VINA RESULT:      -7.4      0.000      0.000
REMARK  Name = 
REMARK  9 active torsions:
REMARK  status: ('A' for Active; 'I' for Inactive)
REMARK    1  A    between atoms: C_1  and  C_2
REMARK    2  A    between atoms: C_2  and  O_3
REMARK    3  A    between atoms: O_3  and  C_4
REMARK    4  A    between atoms: C_4  and  C_6
REMARK    5  A    between atoms: C_6  and  C_7
REMARK    6  A    between atoms: C_7  and  C_9
REMARK    7  A    between atoms: C_9  and  S_10
REMARK    8  A    between atoms: S_10  and  C_11
REMARK    9  A    between atoms: N_19  and  C_20
REMARK                            x       y       z     vdW  Elec       q    Type
REMARK                         _______ _______ _______ _____ _____    ______ ____
ROOT
ATOM      1  C   UNL     1       3.442   4.518  18.685  0.00  0.00    +0.000 A 
ATOM      2  N   UNL     1       3.061   3.714  19.706  0.00  0.00    +0.000 NA
ATOM      3  C   UNL     1       2.325   4.266  20.697  0.00  0.00    +0.000 A 
ATOM      4  N   UNL     1       1.917   5.540  20.814  0.00  0.00    +0.000 NA
ATOM      5  C   UNL     1       2.315   6.299  19.771  0.00  0.00    +0.000 A 
ATOM      6  C   UNL     1       3.060   5.863  18.685  0.00  0.00    +0.000 A 
ATOM      7  N   UNL     1       3.262   6.901  17.821  0.00  0.00    +0.000 NA
ATOM      8  N   UNL     1       2.648   7.971  18.312  0.00  0.00    +0.000 NA
ATOM      9  N   UNL     1       2.075   7.643  19.506  0.00  0.00    +0.000 N 
ENDROOT
BRANCH   9  10
ATOM     10  C   UNL     1       1.345   8.605  20.257  0.00  0.00    +0.000 A 
ATOM     11  C   UNL     1       1.299   8.501  21.659  0.00  0.00    +0.000 A 
ATOM     12  C   UNL     1       0.626   9.464  22.415  0.00  0.00    +0.000 A 
ATOM     13  C   UNL     1      -0.025  10.521  21.783  0.00  0.00    +0.000 A 
ATOM     14  C   UNL     1      -0.007  10.617  20.392  0.00  0.00    +0.000 A 
ATOM     15  C   UNL     1       0.677   9.666  19.631  0.00  0.00    +0.000 A 
ENDBRANCH   9  10
BRANCH   1  16
ATOM     16  S   UNL     1       4.516   3.924  17.412  0.00  0.00    +0.000 S 
BRANCH  16  17
ATOM     17  C   UNL     1       6.131   4.578  17.947  0.00  0.00    +0.000 C 
BRANCH  17  18
ATOM     18  C   UNL     1       6.605   5.566  16.892  0.00  0.00    +0.000 C 
ATOM     19  O   UNL     1       7.582   6.299  17.093  0.00  0.00    +0.000 OA
BRANCH  18  20
ATOM     20  C   UNL     1       5.870   5.616  15.588  0.00  0.00    +0.000 C 
BRANCH  20  21
ATOM     21  C   UNL     1       6.623   4.955  14.486  0.00  0.00    +0.000 C 
ATOM     22  O   UNL     1       7.727   5.316  14.091  0.00  0.00    +0.000 OA
BRANCH  21  23
ATOM     23  O   UNL     1       5.846   4.009  13.885  0.00  0.00    +0.000 OA
BRANCH  23  25
ATOM     24  C   UNL     1       5.068   3.074  11.843  0.00  0.00    +0.000 C 
ATOM     25  C   UNL     1       6.291   3.570  12.592  0.00  0.00    +0.000 C 
ENDBRANCH  23  25
ENDBRANCH  21  23
ENDBRANCH  20  21
ENDBRANCH  18  20
ENDBRANCH  17  18
ENDBRANCH  16  17
ENDBRANCH   1  16
TORSDOF 8
ENDMDL
MODEL 2
REMARK VINA RESULT:      -7.1      0.591      1.158
REMARK  Name = 
REMARK  9 active torsions:
REMARK  status: ('A' for Active; 'I' for Inactive)
REMARK    1  A    between atoms: C_1  and  C_2
REMARK    2  A    between atoms: C_2  and  O_3
REMARK    3  A    between atoms: O_3  and  C_4
REMARK    4  A    between atoms: C_4  and  C_6
REMARK    5  A    between atoms: C_6  and  C_7
REMARK    6  A    between atoms: C_7  and  C_9
REMARK    7  A    between atoms: C_9  and  S_10
REMARK    8  A    between atoms: S_10  and  C_11
REMARK    9  A    between atoms: N_19  and  C_20
REMARK                            x       y       z     vdW  Elec       q    Type
REMARK                         _______ _______ _______ _____ _____    ______ ____
ROOT
ATOM      1  C   UNL     1       3.652   4.925  18.824  0.00  0.00    +0.000 A 
ATOM      2  N   UNL     1       3.198   4.217  19.885  0.00  0.00    +0.000 NA
ATOM      3  C   UNL     1       2.338   4.832  20.728  0.00  0.00    +0.000 A 
ATOM      4  N   UNL     1       1.869   6.089  20.659  0.00  0.00    +0.000 NA
ATOM      5  C   UNL     1       2.344   6.750  19.583  0.00  0.00    +0.000 A 
ATOM      6  C   UNL     1       3.217   6.240  18.634  0.00  0.00    +0.000 A 
ATOM      7  N   UNL     1       3.467   7.188  17.683  0.00  0.00    +0.000 NA
ATOM      8  N   UNL     1       2.761   8.271  17.986  0.00  0.00    +0.000 NA
ATOM      9  N   UNL     1       2.079   8.044  19.145  0.00  0.00    +0.000 N 
ENDROOT
BRANCH   9  10
ATOM     10  C   UNL     1       1.235   9.042  19.706  0.00  0.00    +0.000 A 
ATOM     11  C   UNL     1       0.530   9.912  18.856  0.00  0.00    +0.000 A 
ATOM     12  C   UNL     1      -0.340  10.867  19.389  0.00  0.00    +0.000 A 
ATOM     13  C   UNL     1      -0.496  10.978  20.769  0.00  0.00    +0.000 A 
ATOM     14  C   UNL     1       0.220  10.138  21.619  0.00  0.00    +0.000 A 
ATOM     15  C   UNL     1       1.079   9.171  21.093  0.00  0.00    +0.000 A 
ENDBRANCH   9  10
BRANCH   1  16
ATOM     16  S   UNL     1       4.878   4.253  17.741  0.00  0.00    +0.000 S 
BRANCH  16  17
ATOM     17  C   UNL     1       6.291   5.365  18.038  0.00  0.00    +0.000 C 
BRANCH  17  18
ATOM     18  C   UNL     1       6.722   5.938  16.697  0.00  0.00    +0.000 C 
ATOM     19  O   UNL     1       7.679   6.719  16.612  0.00  0.00    +0.000 OA
BRANCH  18  20
ATOM     20  C   UNL     1       5.971   5.516  15.472  0.00  0.00    +0.000 C 
BRANCH  20  21
ATOM     21  C   UNL     1       6.859   4.913  14.440  0.00  0.00    +0.000 C 
ATOM     22  O   UNL     1       7.947   5.376  14.110  0.00  0.00    +0.000 OA
BRANCH  21  23
ATOM     23  O   UNL     1       6.221   3.883  13.813  0.00  0.00    +0.000 OA
BRANCH  23  25
ATOM     24  C   UNL     1       5.610   2.645  11.878  0.00  0.00    +0.000 C 
ATOM     25  C   UNL     1       6.549   3.705  12.426  0.00  0.00    +0.000 C 
ENDBRANCH  23  25
ENDBRANCH  21  23
ENDBRANCH  20  21
ENDBRANCH  18  20
ENDBRANCH  17  18
ENDBRANCH  16  17
ENDBRANCH   1  16
TORSDOF 8
ENDMDL
MODEL 3
REMARK VINA RESULT:      -7.1      1.892      3.507
REMARK  Name = 
REMARK  9 active torsions:
REMARK  status: ('A' for Active; 'I' for Inactive)
REMARK    1  A    between atoms: C_1  and  C_2
REMARK    2  A    between atoms: C_2  and  O_3
REMARK    3  A    between atoms: O_3  and  C_4
REMARK    4  A    between atoms: C_4  and  C_6
REMARK    5  A    between atoms: C_6  and  C_7
REMARK    6  A    between atoms: C_7  and  C_9
REMARK    7  A    between atoms: C_9  and  S_10
REMARK    8  A    between atoms: S_10  and  C_11
REMARK    9  A    between atoms: N_19  and  C_20
REMARK                            x       y       z     vdW  Elec       q    Type
REMARK                         _______ _______ _______ _____ _____    ______ ____
ROOT
ATOM      1  C   UNL     1       3.276   4.840  18.194  0.00  0.00    +0.000 A 
ATOM      2  N   UNL     1       2.842   3.899  19.067  0.00  0.00    +0.000 NA
ATOM      3  C   UNL     1       2.103   4.315  20.121  0.00  0.00    +0.000 A 
ATOM      4  N   UNL     1       1.741   5.570  20.434  0.00  0.00    +0.000 NA
ATOM      5  C   UNL     1       2.191   6.468  19.533  0.00  0.00    +0.000 A 
ATOM      6  C   UNL     1       2.944   6.181  18.404  0.00  0.00    +0.000 A 
ATOM      7  N   UNL     1       3.205   7.335  17.721  0.00  0.00    +0.000 NA
ATOM      8  N   UNL     1       2.620   8.337  18.367  0.00  0.00    +0.000 NA
ATOM      9  N   UNL     1       2.008   7.846  19.483  0.00  0.00    +0.000 N 
ENDROOT
BRANCH   9  10
ATOM     10  C   UNL     1       1.297   8.705  20.367  0.00  0.00    +0.000 A 
ATOM     11  C   UNL     1       0.500   9.736  19.840  0.00  0.00    +0.000 A 
ATOM     12  C   UNL     1      -0.241  10.559  20.693  0.00  0.00    +0.000 A 
ATOM     13  C   UNL     1      -0.177  10.377  22.072  0.00  0.00    +0.000 A 
ATOM     14  C   UNL     1       0.632   9.374  22.604  0.00  0.00    +0.000 A 
ATOM     15  C   UNL     1       1.364   8.538  21.757  0.00  0.00    +0.000 A 
ENDBRANCH   9  10
BRANCH   1  16
ATOM     16  S   UNL     1       4.355   4.412  16.861  0.00  0.00    +0.000 S 
BRANCH  16  17
ATOM     17  C   UNL     1       5.956   4.240  17.715  0.00  0.00    +0.000 C 
BRANCH  17  18
ATOM     18  C   UNL     1       6.966   5.119  16.993  0.00  0.00    +0.000 C 
ATOM     19  O   UNL     1       7.884   4.625  16.326  0.00  0.00    +0.000 OA
BRANCH  18  20
ATOM     20  C   UNL     1       6.808   6.605  17.091  0.00  0.00    +0.000 C 
BRANCH  20  21
ATOM     21  C   UNL     1       7.778   7.217  18.041  0.00  0.00    +0.000 C 
ATOM     22  O   UNL     1       8.193   6.665  19.055  0.00  0.00    +0.000 OA
BRANCH  21  23
ATOM     23  O   UNL     1       8.004   8.521  17.709  0.00  0.00    +0.000 OA
BRANCH  23  25
ATOM     24  C   UNL     1       8.889  10.690  18.112  0.00  0.00    +0.000 C 
ATOM     25  C   UNL     1       8.755   9.284  18.666  0.00  0.00    +0.000 C 
ENDBRANCH  23  25
ENDBRANCH  21  23
ENDBRANCH  20  21
ENDBRANCH  18  20
ENDBRANCH  17  18
ENDBRANCH  16  17
ENDBRANCH   1  16
TORSDOF 8
ENDMDL
MODEL 4
REMARK VINA RESULT:      -6.9      0.962      1.453
REMARK  Name = 
REMARK  9 active torsions:
REMARK  status: ('A' for Active; 'I' for Inactive)
REMARK    1  A    between atoms: C_1  and  C_2
REMARK    2  A    between atoms: C_2  and  O_3
REMARK    3  A    between atoms: O_3  and  C_4
REMARK    4  A    between atoms: C_4  and  C_6
REMARK    5  A    between atoms: C_6  and  C_7
REMARK    6  A    between atoms: C_7  and  C_9
REMARK    7  A    between atoms: C_9  and  S_10
REMARK    8  A    between atoms: S_10  and  C_11
REMARK    9  A    between atoms: N_19  and  C_20
REMARK                            x       y       z     vdW  Elec       q    Type
REMARK                         _______ _______ _______ _____ _____    ______ ____
ROOT
ATOM      1  C   UNL     1       3.211   4.112  19.380  0.00  0.00    +0.000 A 
ATOM      2  N   UNL     1       2.588   3.438  20.376  0.00  0.00    +0.000 NA
ATOM      3  C   UNL     1       1.773   4.141  21.195  0.00  0.00    +0.000 A 
ATOM      4  N   UNL     1       1.499   5.456  21.161  0.00  0.00    +0.000 NA
ATOM      5  C   UNL     1       2.139   6.082  20.150  0.00  0.00    +0.000 A 
ATOM      6  C   UNL     1       2.989   5.485  19.231  0.00  0.00    +0.000 A 
ATOM      7  N   UNL     1       3.439   6.422  18.346  0.00  0.00    +0.000 NA
ATOM      8  N   UNL     1       2.882   7.585  18.659  0.00  0.00    +0.000 NA
ATOM      9  N   UNL     1       2.097   7.417  19.762  0.00  0.00    +0.000 N 
ENDROOT
BRANCH   9  10
ATOM     10  C   UNL     1       1.373   8.507  20.320  0.00  0.00    +0.000 A 
ATOM     11  C   UNL     1       0.847   9.497  19.472  0.00  0.00    +0.000 A 
ATOM     12  C   UNL     1       0.093  10.549  19.999  0.00  0.00    +0.000 A 
ATOM     13  C   UNL     1      -0.122  10.636  21.373  0.00  0.00    +0.000 A 
ATOM     14  C   UNL     1       0.419   9.674  22.223  0.00  0.00    +0.000 A 
ATOM     15  C   UNL     1       1.161   8.611  21.701  0.00  0.00    +0.000 A 
ENDBRANCH   9  10
BRANCH   1  16
ATOM     16  S   UNL     1       4.395   3.309  18.342  0.00  0.00    +0.000 S 
BRANCH  16  17
ATOM     17  C   UNL     1       5.873   4.348  18.582  0.00  0.00    +0.000 C 
BRANCH  17  18
ATOM     18  C   UNL     1       6.612   4.421  17.255  0.00  0.00    +0.000 C 
ATOM     19  O   UNL     1       7.842   4.550  17.213  0.00  0.00    +0.000 OA
BRANCH  18  20
ATOM     20  C   UNL     1       5.813   4.309  15.993  0.00  0.00    +0.000 C 
BRANCH  20  21
ATOM     21  C   UNL     1       5.911   5.532  15.149  0.00  0.00    +0.000 C 
ATOM     22  O   UNL     1       5.385   6.606  15.426  0.00  0.00    +0.000 OA
BRANCH  21  23
ATOM     23  O   UNL     1       6.523   5.240  13.965  0.00  0.00    +0.000 OA
BRANCH  23  25
ATOM     24  C   UNL     1       6.865   3.820  12.090  0.00  0.00    +0.000 C 
ATOM     25  C   UNL     1       6.439   3.869  13.546  0.00  0.00    +0.000 C 
ENDBRANCH  23  25
ENDBRANCH  21  23
ENDBRANCH  20  21
ENDBRANCH  18  20
ENDBRANCH  17  18
ENDBRANCH  16  17
ENDBRANCH   1  16
TORSDOF 8
ENDMDL
MODEL 5
REMARK VINA RESULT:      -6.8      2.560      4.367
REMARK  Name = 
REMARK  9 active torsions:
REMARK  status: ('A' for Active; 'I' for Inactive)
REMARK    1  A    between atoms: C_1  and  C_2
REMARK    2  A    between atoms: C_2  and  O_3
REMARK    3  A    between atoms: O_3  and  C_4
REMARK    4  A    between atoms: C_4  and  C_6
REMARK    5  A    between atoms: C_6  and  C_7
REMARK    6  A    between atoms: C_7  and  C_9
REMARK    7  A    between atoms: C_9  and  S_10
REMARK    8  A    between atoms: S_10  and  C_11
REMARK    9  A    between atoms: N_19  and  C_20
REMARK                            x       y       z     vdW  Elec       q    Type
REMARK                         _______ _______ _______ _____ _____    ______ ____
ROOT
ATOM      1  C   UNL     1       2.865   6.908  18.686  0.00  0.00    +0.000 A 
ATOM      2  N   UNL     1       2.628   6.135  19.773  0.00  0.00    +0.000 NA
ATOM      3  C   UNL     1       1.808   6.630  20.727  0.00  0.00    +0.000 A 
ATOM      4  N   UNL     1       1.186   7.821  20.748  0.00  0.00    +0.000 NA
ATOM      5  C   UNL     1       1.448   8.550  19.643  0.00  0.00    +0.000 A 
ATOM      6  C   UNL     1       2.257   8.162  18.585  0.00  0.00    +0.000 A 
ATOM      7  N   UNL     1       2.277   9.146  17.638  0.00  0.00    +0.000 NA
ATOM      8  N   UNL     1       1.488  10.131  18.051  0.00  0.00    +0.000 NA
ATOM      9  N   UNL     1       0.980   9.807  19.275  0.00  0.00    +0.000 N 
ENDROOT
BRANCH   9  10
ATOM     10  C   UNL     1       0.095  10.687  19.957  0.00  0.00    +0.000 A 
ATOM     11  C   UNL     1      -1.039  11.184  19.291  0.00  0.00    +0.000 A 
ATOM     12  C   UNL     1      -1.943  12.012  19.962  0.00  0.00    +0.000 A 
ATOM     13  C   UNL     1      -1.714  12.369  21.288  0.00  0.00    +0.000 A 
ATOM     14  C   UNL     1      -0.578  11.902  21.948  0.00  0.00    +0.000 A 
ATOM     15  C   UNL     1       0.322  11.062  21.288  0.00  0.00    +0.000 A 
ENDBRANCH   9  10
BRANCH   1  16
ATOM     16  S   UNL     1       4.026   6.405  17.450  0.00  0.00    +0.000 S 
BRANCH  16  17
ATOM     17  C   UNL     1       4.748   4.909  18.199  0.00  0.00    +0.000 C 
BRANCH  17  18
ATOM     18  C   UNL     1       4.444   3.735  17.279  0.00  0.00    +0.000 C 
ATOM     19  O   UNL     1       4.839   3.722  16.107  0.00  0.00    +0.000 OA
BRANCH  18  20
ATOM     20  C   UNL     1       3.670   2.581  17.837  0.00  0.00    +0.000 C 
BRANCH  20  21
ATOM     21  C   UNL     1       2.221   2.891  17.992  0.00  0.00    +0.000 C 
ATOM     22  O   UNL     1       1.598   3.657  17.263  0.00  0.00    +0.000 OA
BRANCH  21  23
ATOM     23  O   UNL     1       1.740   2.335  19.141  0.00  0.00    +0.000 OA
BRANCH  23  25
ATOM     24  C   UNL     1       1.551   2.882  21.446  0.00  0.00    +0.000 C 
ATOM     25  C   UNL     1       2.523   2.576  20.321  0.00  0.00    +0.000 C 
ENDBRANCH  23  25
ENDBRANCH  21  23
ENDBRANCH  20  21
ENDBRANCH  18  20
ENDBRANCH  17  18
ENDBRANCH  16  17
ENDBRANCH   1  16
TORSDOF 8
ENDMDL
MODEL 6
REMARK VINA RESULT:      -6.8      5.348      8.308
REMARK  Name = 
REMARK  9 active torsions:
REMARK  status: ('A' for Active; 'I' for Inactive)
REMARK    1  A    between atoms: C_1  and  C_2
REMARK    2  A    between atoms: C_2  and  O_3
REMARK    3  A    between atoms: O_3  and  C_4
REMARK    4  A    between atoms: C_4  and  C_6
REMARK    5  A    between atoms: C_6  and  C_7
REMARK    6  A    between atoms: C_7  and  C_9
REMARK    7  A    between atoms: C_9  and  S_10
REMARK    8  A    between atoms: S_10  and  C_11
REMARK    9  A    between atoms: N_19  and  C_20
REMARK                            x       y       z     vdW  Elec       q    Type
REMARK                         _______ _______ _______ _____ _____    ______ ____
ROOT
ATOM      1  C   UNL     1       0.733  10.515  20.591  0.00  0.00    +0.000 A 
ATOM      2  N   UNL     1       0.628   9.856  21.769  0.00  0.00    +0.000 NA
ATOM      3  C   UNL     1       1.059   8.575  21.812  0.00  0.00    +0.000 A 
ATOM      4  N   UNL     1       1.583   7.844  20.813  0.00  0.00    +0.000 NA
ATOM      5  C   UNL     1       1.672   8.545  19.663  0.00  0.00    +0.000 A 
ATOM      6  C   UNL     1       1.282   9.864  19.482  0.00  0.00    +0.000 A 
ATOM      7  N   UNL     1       1.534  10.244  18.194  0.00  0.00    +0.000 NA
ATOM      8  N   UNL     1       2.094   9.218  17.565  0.00  0.00    +0.000 NA
ATOM      9  N   UNL     1       2.178   8.163  18.425  0.00  0.00    +0.000 N 
ENDROOT
BRANCH   9  10
ATOM     10  C   UNL     1       2.742   6.924  18.013  0.00  0.00    +0.000 A 
ATOM     11  C   UNL     1       4.015   6.906  17.417  0.00  0.00    +0.000 A 
ATOM     12  C   UNL     1       4.603   5.693  17.049  0.00  0.00    +0.000 A 
ATOM     13  C   UNL     1       3.922   4.495  17.250  0.00  0.00    +0.000 A 
ATOM     14  C   UNL     1       2.649   4.506  17.817  0.00  0.00    +0.000 A 
ATOM     15  C   UNL     1       2.061   5.714  18.200  0.00  0.00    +0.000 A 
ENDBRANCH   9  10
BRANCH   1  16
ATOM     16  S   UNL     1       0.077  12.146  20.400  0.00  0.00    +0.000 S 
BRANCH  16  17
ATOM     17  C   UNL     1      -1.648  11.803  19.921  0.00  0.00    +0.000 C 
BRANCH  17  18
ATOM     18  C   UNL     1      -1.712  11.780  18.401  0.00  0.00    +0.000 C 
ATOM     19  O   UNL     1      -1.069  12.589  17.721  0.00  0.00    +0.000 OA
BRANCH  18  20
ATOM     20  C   UNL     1      -2.561  10.736  17.745  0.00  0.00    +0.000 C 
BRANCH  20  21
ATOM     21  C   UNL     1      -3.859  11.281  17.260  0.00  0.00    +0.000 C 
ATOM     22  O   UNL     1      -4.701  11.806  17.983  0.00  0.00    +0.000 OA
BRANCH  21  23
ATOM     23  O   UNL     1      -4.041  10.968  15.944  0.00  0.00    +0.000 OA
BRANCH  23  25
ATOM     24  C   UNL     1      -3.345  10.041  13.870  0.00  0.00    +0.000 C 
ATOM     25  C   UNL     1      -2.930  10.322  15.302  0.00  0.00    +0.000 C 
ENDBRANCH  23  25
ENDBRANCH  21  23
ENDBRANCH  20  21
ENDBRANCH  18  20
ENDBRANCH  17  18
ENDBRANCH  16  17
ENDBRANCH   1  16
TORSDOF 8
ENDMDL
MODEL 7
REMARK VINA RESULT:      -6.8      3.978      6.099
REMARK  Name = 
REMARK  9 active torsions:
REMARK  status: ('A' for Active; 'I' for Inactive)
REMARK    1  A    between atoms: C_1  and  C_2
REMARK    2  A    between atoms: C_2  and  O_3
REMARK    3  A    between atoms: O_3  and  C_4
REMARK    4  A    between atoms: C_4  and  C_6
REMARK    5  A    between atoms: C_6  and  C_7
REMARK    6  A    between atoms: C_7  and  C_9
REMARK    7  A    between atoms: C_9  and  S_10
REMARK    8  A    between atoms: S_10  and  C_11
REMARK    9  A    between atoms: N_19  and  C_20
REMARK                            x       y       z     vdW  Elec       q    Type
REMARK                         _______ _______ _______ _____ _____    ______ ____
ROOT
ATOM      1  C   UNL     1       1.023   8.995  20.327  0.00  0.00    +0.000 A 
ATOM      2  N   UNL     1       0.835   9.576  19.118  0.00  0.00    +0.000 NA
ATOM      3  C   UNL     1       0.097  10.709  19.075  0.00  0.00    +0.000 A 
ATOM      4  N   UNL     1      -0.499  11.348  20.095  0.00  0.00    +0.000 NA
ATOM      5  C   UNL     1      -0.278  10.735  21.277  0.00  0.00    +0.000 A 
ATOM      6  C   UNL     1       0.467   9.580  21.468  0.00  0.00    +0.000 A 
ATOM      7  N   UNL     1       0.486   9.261  22.796  0.00  0.00    +0.000 NA
ATOM      8  N   UNL     1      -0.200  10.189  23.452  0.00  0.00    +0.000 NA
ATOM      9  N   UNL     1      -0.691  11.092  22.556  0.00  0.00    +0.000 N 
ENDROOT
BRANCH   9  10
ATOM     10  C   UNL     1      -1.468  12.203  22.986  0.00  0.00    +0.000 A 
ATOM     11  C   UNL     1      -2.809  12.008  23.361  0.00  0.00    +0.000 A 
ATOM     12  C   UNL     1      -3.572  13.080  23.831  0.00  0.00    +0.000 A 
ATOM     13  C   UNL     1      -3.016  14.355  23.908  0.00  0.00    +0.000 A 
ATOM     14  C   UNL     1      -1.696  14.562  23.512  0.00  0.00    +0.000 A 
ATOM     15  C   UNL     1      -0.923  13.492  23.056  0.00  0.00    +0.000 A 
ENDBRANCH   9  10
BRANCH   1  16
ATOM     16  S   UNL     1       1.859   7.443  20.468  0.00  0.00    +0.000 S 
BRANCH  16  17
ATOM     17  C   UNL     1       2.517   7.216  18.784  0.00  0.00    +0.000 C 
BRANCH  17  18
ATOM     18  C   UNL     1       2.723   5.725  18.562  0.00  0.00    +0.000 C 
ATOM     19  O   UNL     1       3.718   5.142  19.011  0.00  0.00    +0.000 OA
BRANCH  18  20
ATOM     20  C   UNL     1       1.676   4.972  17.801  0.00  0.00    +0.000 C 
BRANCH  20  21
ATOM     21  C   UNL     1       1.747   3.504  18.039  0.00  0.00    +0.000 C 
ATOM     22  O   UNL     1       2.247   2.701  17.258  0.00  0.00    +0.000 OA
BRANCH  21  23
ATOM     23  O   UNL     1       1.038   3.174  19.158  0.00  0.00    +0.000 OA
BRANCH  23  25
ATOM     24  C   UNL     1       1.571   3.015  21.468  0.00  0.00    +0.000 C 
ATOM     25  C   UNL     1       1.732   2.355  20.111  0.00  0.00    +0.000 C 
ENDBRANCH  23  25
ENDBRANCH  21  23
ENDBRANCH  20  21
ENDBRANCH  18  20
ENDBRANCH  17  18
ENDBRANCH  16  17
ENDBRANCH   1  16
TORSDOF 8
ENDMDL
MODEL 8
REMARK VINA RESULT:      -6.8      3.141      4.858
REMARK  Name = 
REMARK  9 active torsions:
REMARK  status: ('A' for Active; 'I' for Inactive)
REMARK    1  A    between atoms: C_1  and  C_2
REMARK    2  A    between atoms: C_2  and  O_3
REMARK    3  A    between atoms: O_3  and  C_4
REMARK    4  A    between atoms: C_4  and  C_6
REMARK    5  A    between atoms: C_6  and  C_7
REMARK    6  A    between atoms: C_7  and  C_9
REMARK    7  A    between atoms: C_9  and  S_10
REMARK    8  A    between atoms: S_10  and  C_11
REMARK    9  A    between atoms: N_19  and  C_20
REMARK                            x       y       z     vdW  Elec       q    Type
REMARK                         _______ _______ _______ _____ _____    ______ ____
ROOT
ATOM      1  C   UNL     1       2.409   7.568  18.469  0.00  0.00    +0.000 A 
ATOM      2  N   UNL     1       2.547   8.472  17.470  0.00  0.00    +0.000 NA
ATOM      3  C   UNL     1       2.047   9.712  17.672  0.00  0.00    +0.000 A 
ATOM      4  N   UNL     1       1.404  10.178  18.756  0.00  0.00    +0.000 NA
ATOM      5  C   UNL     1       1.297   9.244  19.724  0.00  0.00    +0.000 A 
ATOM      6  C   UNL     1       1.774   7.943  19.656  0.00  0.00    +0.000 A 
ATOM      7  N   UNL     1       1.498   7.292  20.825  0.00  0.00    +0.000 NA
ATOM      8  N   UNL     1       0.886   8.145  21.637  0.00  0.00    +0.000 NA
ATOM      9  N   UNL     1       0.733   9.338  20.992  0.00  0.00    +0.000 N 
ENDROOT
BRANCH   9  10
ATOM     10  C   UNL     1       0.106  10.442  21.632  0.00  0.00    +0.000 A 
ATOM     11  C   UNL     1       0.427  11.751  21.232  0.00  0.00    +0.000 A 
ATOM     12  C   UNL     1      -0.215  12.845  21.818  0.00  0.00    +0.000 A 
ATOM     13  C   UNL     1      -1.161  12.647  22.820  0.00  0.00    +0.000 A 
ATOM     14  C   UNL     1      -1.466  11.354  23.242  0.00  0.00    +0.000 A 
ATOM     15  C   UNL     1      -0.839  10.255  22.650  0.00  0.00    +0.000 A 
ENDBRANCH   9  10
BRANCH   1  16
ATOM     16  S   UNL     1       2.912   5.887  18.249  0.00  0.00    +0.000 S 
BRANCH  16  17
ATOM     17  C   UNL     1       4.380   5.790  19.324  0.00  0.00    +0.000 C 
BRANCH  17  18
ATOM     18  C   UNL     1       5.124   4.509  18.981  0.00  0.00    +0.000 C 
ATOM     19  O   UNL     1       6.356   4.438  19.079  0.00  0.00    +0.000 OA
BRANCH  18  20
ATOM     20  C   UNL     1       4.324   3.322  18.540  0.00  0.00    +0.000 C 
BRANCH  20  21
ATOM     21  C   UNL     1       4.028   2.388  19.662  0.00  0.00    +0.000 C 
ATOM     22  O   UNL     1       4.869   1.970  20.452  0.00  0.00    +0.000 OA
BRANCH  21  23
ATOM     23  O   UNL     1       2.739   1.947  19.582  0.00  0.00    +0.000 OA
BRANCH  23  25
ATOM     24  C   UNL     1       1.677   2.667  21.582  0.00  0.00    +0.000 C 
ATOM     25  C   UNL     1       1.742   2.854  20.077  0.00  0.00    +0.000 C 
ENDBRANCH  23  25
ENDBRANCH  21  23
ENDBRANCH  20  21
ENDBRANCH  18  20
ENDBRANCH  17  18
ENDBRANCH  16  17
ENDBRANCH   1  16
TORSDOF 8
ENDMDL
MODEL 9
REMARK VINA RESULT:      -6.7      2.792      4.139
REMARK  Name = 
REMARK  9 active torsions:
REMARK  status: ('A' for Active; 'I' for Inactive)
REMARK    1  A    between atoms: C_1  and  C_2
REMARK    2  A    between atoms: C_2  and  O_3
REMARK    3  A    between atoms: O_3  and  C_4
REMARK    4  A    between atoms: C_4  and  C_6
REMARK    5  A    between atoms: C_6  and  C_7
REMARK    6  A    between atoms: C_7  and  C_9
REMARK    7  A    between atoms: C_9  and  S_10
REMARK    8  A    between atoms: S_10  and  C_11
REMARK    9  A    between atoms: N_19  and  C_20
REMARK                            x       y       z     vdW  Elec       q    Type
REMARK                         _______ _______ _______ _____ _____    ______ ____
ROOT
ATOM      1  C   UNL     1       2.672   6.734  18.970  0.00  0.00    +0.000 A 
ATOM      2  N   UNL     1       2.272   6.269  20.177  0.00  0.00    +0.000 NA
ATOM      3  C   UNL     1       1.516   7.086  20.944  0.00  0.00    +0.000 A 
ATOM      4  N   UNL     1       1.104   8.334  20.668  0.00  0.00    +0.000 NA
ATOM      5  C   UNL     1       1.522   8.749  19.453  0.00  0.00    +0.000 A 
ATOM      6  C   UNL     1       2.288   8.014  18.561  0.00  0.00    +0.000 A 
ATOM      7  N   UNL     1       2.506   8.748  17.430  0.00  0.00    +0.000 NA
ATOM      8  N   UNL     1       1.882   9.912  17.568  0.00  0.00    +0.000 NA
ATOM      9  N   UNL     1       1.286   9.951  18.794  0.00  0.00    +0.000 N 
ENDROOT
BRANCH   9  10
ATOM     10  C   UNL     1       0.540  11.089  19.210  0.00  0.00    +0.000 A 
ATOM     11  C   UNL     1      -0.801  11.222  18.812  0.00  0.00    +0.000 A 
ATOM     12  C   UNL     1      -1.562  12.310  19.251  0.00  0.00    +0.000 A 
ATOM     13  C   UNL     1      -0.988  13.281  20.067  0.00  0.00    +0.000 A 
ATOM     14  C   UNL     1       0.349  13.171  20.444  0.00  0.00    +0.000 A 
ATOM     15  C   UNL     1       1.111  12.079  20.022  0.00  0.00    +0.000 A 
ENDBRANCH   9  10
BRANCH   1  16
ATOM     16  S   UNL     1       3.772   5.793  17.953  0.00  0.00    +0.000 S 
BRANCH  16  17
ATOM     17  C   UNL     1       5.038   5.269  19.154  0.00  0.00    +0.000 C 
BRANCH  17  18
ATOM     18  C   UNL     1       6.352   5.106  18.404  0.00  0.00    +0.000 C 
ATOM     19  O   UNL     1       6.455   4.315  17.458  0.00  0.00    +0.000 OA
BRANCH  18  20
ATOM     20  C   UNL     1       7.517   5.946  18.828  0.00  0.00    +0.000 C 
BRANCH  20  21
ATOM     21  C   UNL     1       7.686   7.155  17.975  0.00  0.00    +0.000 C 
ATOM     22  O   UNL     1       7.217   7.274  16.847  0.00  0.00    +0.000 OA
BRANCH  21  23
ATOM     23  O   UNL     1       8.560   8.025  18.558  0.00  0.00    +0.000 OA
BRANCH  23  25
ATOM     24  C   UNL     1       9.208  10.228  19.170  0.00  0.00    +0.000 C 
ATOM     25  C   UNL     1       8.409   9.402  18.179  0.00  0.00    +0.000 C 
ENDBRANCH  23  25
ENDBRANCH  21  23
ENDBRANCH  20  21
ENDBRANCH  18  20
ENDBRANCH  17  18
ENDBRANCH  16  17
ENDBRANCH   1  16
TORSDOF 8
ENDMDL
