MODEL 1
REMARK VINA RESULT:      -7.8      0.000      0.000
REMARK  Name = 
REMARK  5 active torsions:
REMARK  status: ('A' for Active; 'I' for Inactive)
REMARK    1  A    between atoms: C_5  and  C_6
REMARK    2  A    between atoms: C_9  and  C_10
REMARK    3  A    between atoms: C_10  and  N_11
REMARK    4  A    between atoms: N_11  and  C_12
REMARK    5  A    between atoms: C_12  and  C_13
REMARK                            x       y       z     vdW  Elec       q    Type
REMARK                         _______ _______ _______ _____ _____    ______ ____
ROOT
ATOM      1  C   UNL     1       1.794   7.793  20.237  0.00  0.00    +0.000 A 
ATOM      2  C   UNL     1       2.093   6.491  20.670  0.00  0.00    +0.000 A 
ATOM      3  C   UNL     1       2.407   5.556  19.656  0.00  0.00    +0.000 A 
ATOM      4  C   UNL     1       2.791   4.183  19.453  0.00  0.00    +0.000 A 
ATOM      5  N   UNL     1       2.335   3.776  18.250  0.00  0.00    +0.000 NA
ATOM      6  N   UNL     1       2.324   4.921  17.559  0.00  0.00    +0.000 N 
ATOM      7  C   UNL     1       2.382   6.021  18.352  0.00  0.00    +0.000 A 
ATOM      8  C   UNL     1       2.404   7.360  18.027  0.00  0.00    +0.000 A 
ATOM      9  N   UNL     1       2.099   8.240  18.989  0.00  0.00    +0.000 NA
ATOM     10  H   UNL     1       2.192   4.868  16.563  0.00  0.00    +0.000 HD
ENDROOT
BRANCH   1  15
ATOM     11  C   UNL     1      -0.573  10.670  20.966  0.00  0.00    +0.000 A 
ATOM     12  C   UNL     1      -0.354  10.797  22.327  0.00  0.00    +0.000 A 
ATOM     13  N   UNL     1       0.446   9.972  23.028  0.00  0.00    +0.000 NA
ATOM     14  C   UNL     1       1.071   8.988  22.325  0.00  0.00    +0.000 A 
ATOM     15  C   UNL     1       0.920   8.747  20.953  0.00  0.00    +0.000 A 
ATOM     16  C   UNL     1       0.066   9.633  20.279  0.00  0.00    +0.000 A 
ENDBRANCH   1  15
BRANCH   4  17
ATOM     17  C   UNL     1       3.945   3.329  19.906  0.00  0.00    +0.000 C 
BRANCH  17  18
ATOM     18  N   UNL     1       5.127   3.276  19.057  0.00  0.00    +0.000 NA
ATOM     19  H   UNL     1       4.829   3.068  18.107  0.00  0.00    +0.000 HD
BRANCH  18  20
ATOM     20  C   UNL     1       5.756   4.616  19.088  0.00  0.00    +0.000 C 
BRANCH  20  21
ATOM     21  C   UNL     1       6.821   4.764  17.990  0.00  0.00    +0.000 C 
ATOM     22  C   UNL     1       7.320   6.212  17.863  0.00  0.00    +0.000 C 
ATOM     23  C   UNL     1       6.282   7.123  17.206  0.00  0.00    +0.000 C 
ATOM     24  N   UNL     1       5.886   6.625  15.887  0.00  0.00    +0.000 NA
ATOM     25  C   UNL     1       5.327   5.275  15.972  0.00  0.00    +0.000 C 
ATOM     26  C   UNL     1       6.299   4.288  16.620  0.00  0.00    +0.000 C 
ATOM     27  H   UNL     1       6.709   6.605  15.285  0.00  0.00    +0.000 HD
ENDBRANCH  20  21
ENDBRANCH  18  20
ENDBRANCH  17  18
ENDBRANCH   4  17
TORSDOF 5
ENDMDL
MODEL 2
REMARK VINA RESULT:      -7.8      3.200      7.664
REMARK  Name = 
REMARK  5 active torsions:
REMARK  status: ('A' for Active; 'I' for Inactive)
REMARK    1  A    between atoms: C_5  and  C_6
REMARK    2  A    between atoms: C_9  and  C_10
REMARK    3  A    between atoms: C_10  and  N_11
REMARK    4  A    between atoms: N_11  and  C_12
REMARK    5  A    between atoms: C_12  and  C_13
REMARK                            x       y       z     vdW  Elec       q    Type
REMARK                         _______ _______ _______ _____ _____    ______ ____
ROOT
ATOM      1  C   UNL     1       6.058   5.441  15.522  0.00  0.00    +0.000 A 
ATOM      2  C   UNL     1       4.986   5.141  16.379  0.00  0.00    +0.000 A 
ATOM      3  C   UNL     1       5.254   5.235  17.764  0.00  0.00    +0.000 A 
ATOM      4  C   UNL     1       4.633   5.090  19.056  0.00  0.00    +0.000 A 
ATOM      5  N   UNL     1       5.572   4.718  19.951  0.00  0.00    +0.000 NA
ATOM      6  N   UNL     1       6.678   5.263  19.432  0.00  0.00    +0.000 N 
ATOM      7  C   UNL     1       6.538   5.606  18.127  0.00  0.00    +0.000 A 
ATOM      8  C   UNL     1       7.428   6.195  17.254  0.00  0.00    +0.000 A 
ATOM      9  N   UNL     1       7.174   6.096  15.943  0.00  0.00    +0.000 NA
ATOM     10  H   UNL     1       7.504   5.287  20.005  0.00  0.00    +0.000 HD
ENDROOT
BRANCH   1  15
ATOM     11  C   UNL     1       5.717   3.250  12.440  0.00  0.00    +0.000 A 
ATOM     12  C   UNL     1       6.882   3.609  11.784  0.00  0.00    +0.000 A 
ATOM     13  N   UNL     1       7.723   4.558  12.236  0.00  0.00    +0.000 NA
ATOM     14  C   UNL     1       7.389   5.158  13.411  0.00  0.00    +0.000 A 
ATOM     15  C   UNL     1       6.235   4.896  14.159  0.00  0.00    +0.000 A 
ATOM     16  C   UNL     1       5.392   3.905  13.633  0.00  0.00    +0.000 A 
ENDBRANCH   1  15
BRANCH   4  17
ATOM     17  C   UNL     1       3.461   5.736  19.745  0.00  0.00    +0.000 C 
BRANCH  17  18
ATOM     18  N   UNL     1       2.802   4.992  20.809  0.00  0.00    +0.000 NA
ATOM     19  H   UNL     1       2.867   5.536  21.666  0.00  0.00    +0.000 HD
BRANCH  18  20
ATOM     20  C   UNL     1       1.377   4.847  20.431  0.00  0.00    +0.000 C 
BRANCH  20  21
ATOM     21  C   UNL     1       0.922   3.381  20.506  0.00  0.00    +0.000 C 
ATOM     22  C   UNL     1       1.992   2.478  21.139  0.00  0.00    +0.000 C 
ATOM     23  C   UNL     1       3.170   2.233  20.195  0.00  0.00    +0.000 C 
ATOM     24  N   UNL     1       2.731   1.655  18.923  0.00  0.00    +0.000 NA
ATOM     25  C   UNL     1       1.769   2.524  18.245  0.00  0.00    +0.000 C 
ATOM     26  C   UNL     1       0.549   2.826  19.117  0.00  0.00    +0.000 C 
ATOM     27  H   UNL     1       2.290   0.754  19.110  0.00  0.00    +0.000 HD
ENDBRANCH  20  21
ENDBRANCH  18  20
ENDBRANCH  17  18
ENDBRANCH   4  17
TORSDOF 5
ENDMDL
MODEL 3
REMARK VINA RESULT:      -7.8      3.886      6.267
REMARK  Name = 
REMARK  5 active torsions:
REMARK  status: ('A' for Active; 'I' for Inactive)
REMARK    1  A    between atoms: C_5  and  C_6
REMARK    2  A    between atoms: C_9  and  C_10
REMARK    3  A    between atoms: C_10  and  N_11
REMARK    4  A    between atoms: N_11  and  C_12
REMARK    5  A    between atoms: C_12  and  C_13
REMARK                            x       y       z     vdW  Elec       q    Type
REMARK                         _______ _______ _______ _____ _____    ______ ____
ROOT
ATOM      1  C   UNL     1       3.831   5.414  19.021  0.00  0.00    +0.000 A 
ATOM      2  C   UNL     1       5.215   5.536  19.229  0.00  0.00    +0.000 A 
ATOM      3  C   UNL     1       5.943   6.176  18.200  0.00  0.00    +0.000 A 
ATOM      4  C   UNL     1       7.272   6.599  17.840  0.00  0.00    +0.000 A 
ATOM      5  N   UNL     1       7.384   6.587  16.495  0.00  0.00    +0.000 NA
ATOM      6  N   UNL     1       6.124   6.824  16.113  0.00  0.00    +0.000 N 
ATOM      7  C   UNL     1       5.220   6.609  17.101  0.00  0.00    +0.000 A 
ATOM      8  C   UNL     1       3.848   6.751  17.109  0.00  0.00    +0.000 A 
ATOM      9  N   UNL     1       3.164   6.136  18.080  0.00  0.00    +0.000 NA
ATOM     10  H   UNL     1       5.960   7.045  15.145  0.00  0.00    +0.000 HD
ENDROOT
BRANCH   1  15
ATOM     11  C   UNL     1       0.793   3.502  20.257  0.00  0.00    +0.000 A 
ATOM     12  C   UNL     1       1.429   2.570  21.058  0.00  0.00    +0.000 A 
ATOM     13  N   UNL     1       2.768   2.475  21.163  0.00  0.00    +0.000 NA
ATOM     14  C   UNL     1       3.499   3.374  20.447  0.00  0.00    +0.000 A 
ATOM     15  C   UNL     1       2.976   4.352  19.593  0.00  0.00    +0.000 A 
ATOM     16  C   UNL     1       1.575   4.393  19.516  0.00  0.00    +0.000 A 
ENDBRANCH   1  15
BRANCH   4  17
ATOM     17  C   UNL     1       8.293   7.519  18.454  0.00  0.00    +0.000 C 
BRANCH  17  18
ATOM     18  N   UNL     1       8.255   8.926  18.079  0.00  0.00    +0.000 NA
ATOM     19  H   UNL     1       7.319   9.279  18.258  0.00  0.00    +0.000 HD
BRANCH  18  20
ATOM     20  C   UNL     1       9.219   9.641  18.947  0.00  0.00    +0.000 C 
BRANCH  20  21
ATOM     21  C   UNL     1       9.250  11.145  18.633  0.00  0.00    +0.000 C 
ATOM     22  C   UNL     1      10.494  11.538  17.822  0.00  0.00    +0.000 C 
ATOM     23  C   UNL     1      11.764  11.525  18.674  0.00  0.00    +0.000 C 
ATOM     24  N   UNL     1      11.641  12.404  19.839  0.00  0.00    +0.000 NA
ATOM     25  C   UNL     1      10.514  12.014  20.686  0.00  0.00    +0.000 C 
ATOM     26  C   UNL     1       9.192  11.999  19.915  0.00  0.00    +0.000 C 
ATOM     27  H   UNL     1      11.496  13.359  19.512  0.00  0.00    +0.000 HD
ENDBRANCH  20  21
ENDBRANCH  18  20
ENDBRANCH  17  18
ENDBRANCH   4  17
TORSDOF 5
ENDMDL
MODEL 4
REMARK VINA RESULT:      -7.6      3.840      6.422
REMARK  Name = 
REMARK  5 active torsions:
REMARK  status: ('A' for Active; 'I' for Inactive)
REMARK    1  A    between atoms: C_5  and  C_6
REMARK    2  A    between atoms: C_9  and  C_10
REMARK    3  A    between atoms: C_10  and  N_11
REMARK    4  A    between atoms: N_11  and  C_12
REMARK    5  A    between atoms: C_12  and  C_13
REMARK                            x       y       z     vdW  Elec       q    Type
REMARK                         _______ _______ _______ _____ _____    ______ ____
ROOT
ATOM      1  C   UNL     1       3.749   4.814  17.704  0.00  0.00    +0.000 A 
ATOM      2  C   UNL     1       4.529   5.885  18.172  0.00  0.00    +0.000 A 
ATOM      3  C   UNL     1       5.897   5.859  17.816  0.00  0.00    +0.000 A 
ATOM      4  C   UNL     1       7.123   6.604  17.949  0.00  0.00    +0.000 A 
ATOM      5  N   UNL     1       8.162   5.744  17.915  0.00  0.00    +0.000 NA
ATOM      6  N   UNL     1       7.674   4.754  17.159  0.00  0.00    +0.000 N 
ATOM      7  C   UNL     1       6.322   4.784  17.052  0.00  0.00    +0.000 A 
ATOM      8  C   UNL     1       5.457   3.960  16.364  0.00  0.00    +0.000 A 
ATOM      9  N   UNL     1       4.165   3.983  16.711  0.00  0.00    +0.000 NA
ATOM     10  H   UNL     1       8.317   4.057  16.825  0.00  0.00    +0.000 HD
ENDROOT
BRANCH   1  15
ATOM     11  C   UNL     1       1.090   4.090  20.315  0.00  0.00    +0.000 A 
ATOM     12  C   UNL     1       0.490   2.993  19.721  0.00  0.00    +0.000 A 
ATOM     13  N   UNL     1       0.840   2.525  18.508  0.00  0.00    +0.000 NA
ATOM     14  C   UNL     1       1.854   3.176  17.874  0.00  0.00    +0.000 A 
ATOM     15  C   UNL     1       2.528   4.302  18.361  0.00  0.00    +0.000 A 
ATOM     16  C   UNL     1       2.112   4.750  19.625  0.00  0.00    +0.000 A 
ENDBRANCH   1  15
BRANCH   4  17
ATOM     17  C   UNL     1       7.563   7.993  17.570  0.00  0.00    +0.000 C 
BRANCH  17  18
ATOM     18  N   UNL     1       8.523   8.663  18.436  0.00  0.00    +0.000 NA
ATOM     19  H   UNL     1       9.452   8.313  18.215  0.00  0.00    +0.000 HD
BRANCH  18  20
ATOM     20  C   UNL     1       8.462  10.111  18.127  0.00  0.00    +0.000 C 
BRANCH  20  21
ATOM     21  C   UNL     1       9.791  10.812  18.451  0.00  0.00    +0.000 C 
ATOM     22  C   UNL     1      10.004  10.971  19.964  0.00  0.00    +0.000 C 
ATOM     23  C   UNL     1       9.102  12.052  20.561  0.00  0.00    +0.000 C 
ATOM     24  N   UNL     1       9.299  13.344  19.900  0.00  0.00    +0.000 NA
ATOM     25  C   UNL     1       9.026  13.257  18.465  0.00  0.00    +0.000 C 
ATOM     26  C   UNL     1       9.887  12.195  17.778  0.00  0.00    +0.000 C 
ATOM     27  H   UNL     1      10.267  13.636  20.037  0.00  0.00    +0.000 HD
ENDBRANCH  20  21
ENDBRANCH  18  20
ENDBRANCH  17  18
ENDBRANCH   4  17
TORSDOF 5
ENDMDL
MODEL 5
REMARK VINA RESULT:      -7.6      3.834      6.319
REMARK  Name = 
REMARK  5 active torsions:
REMARK  status: ('A' for Active; 'I' for Inactive)
REMARK    1  A    between atoms: C_5  and  C_6
REMARK    2  A    between atoms: C_9  and  C_10
REMARK    3  A    between atoms: C_10  and  N_11
REMARK    4  A    between atoms: N_11  and  C_12
REMARK    5  A    between atoms: C_12  and  C_13
REMARK                            x       y       z     vdW  Elec       q    Type
REMARK                         _______ _______ _______ _____ _____    ______ ____
ROOT
ATOM      1  C   UNL     1       3.816   5.495  18.992  0.00  0.00    +0.000 A 
ATOM      2  C   UNL     1       5.185   5.664  19.254  0.00  0.00    +0.000 A 
ATOM      3  C   UNL     1       5.952   6.233  18.211  0.00  0.00    +0.000 A 
ATOM      4  C   UNL     1       7.289   6.653  17.879  0.00  0.00    +0.000 A 
ATOM      5  N   UNL     1       7.466   6.532  16.547  0.00  0.00    +0.000 NA
ATOM      6  N   UNL     1       6.222   6.709  16.087  0.00  0.00    +0.000 N 
ATOM      7  C   UNL     1       5.275   6.557  17.046  0.00  0.00    +0.000 A 
ATOM      8  C   UNL     1       3.903   6.669  16.978  0.00  0.00    +0.000 A 
ATOM      9  N   UNL     1       3.182   6.122  17.964  0.00  0.00    +0.000 NA
ATOM     10  H   UNL     1       6.102   6.845  15.098  0.00  0.00    +0.000 HD
ENDROOT
BRANCH   1  15
ATOM     11  C   UNL     1       1.851   3.498  21.554  0.00  0.00    +0.000 A 
ATOM     12  C   UNL     1       1.716   2.312  20.853  0.00  0.00    +0.000 A 
ATOM     13  N   UNL     1       2.151   2.145  19.590  0.00  0.00    +0.000 NA
ATOM     14  C   UNL     1       2.769   3.212  19.013  0.00  0.00    +0.000 A 
ATOM     15  C   UNL     1       2.953   4.466  19.610  0.00  0.00    +0.000 A 
ATOM     16  C   UNL     1       2.469   4.582  20.922  0.00  0.00    +0.000 A 
ENDBRANCH   1  15
BRANCH   4  17
ATOM     17  C   UNL     1       8.262   7.643  18.461  0.00  0.00    +0.000 C 
BRANCH  17  18
ATOM     18  N   UNL     1       8.220   9.012  17.966  0.00  0.00    +0.000 NA
ATOM     19  H   UNL     1       7.253   9.325  17.974  0.00  0.00    +0.000 HD
BRANCH  18  20
ATOM     20  C   UNL     1       9.010   9.846  18.902  0.00  0.00    +0.000 C 
BRANCH  20  21
ATOM     21  C   UNL     1       9.794  10.938  18.157  0.00  0.00    +0.000 C 
ATOM     22  C   UNL     1      11.114  11.282  18.864  0.00  0.00    +0.000 C 
ATOM     23  C   UNL     1      10.888  12.089  20.143  0.00  0.00    +0.000 C 
ATOM     24  N   UNL     1      10.139  13.319  19.880  0.00  0.00    +0.000 NA
ATOM     25  C   UNL     1       8.835  13.033  19.280  0.00  0.00    +0.000 C 
ATOM     26  C   UNL     1       8.961  12.224  17.987  0.00  0.00    +0.000 C 
ATOM     27  H   UNL     1      10.680  13.899  19.238  0.00  0.00    +0.000 HD
ENDBRANCH  20  21
ENDBRANCH  18  20
ENDBRANCH  17  18
ENDBRANCH   4  17
TORSDOF 5
ENDMDL
MODEL 6
REMARK VINA RESULT:      -7.5      3.837      6.409
REMARK  Name = 
REMARK  5 active torsions:
REMARK  status: ('A' for Active; 'I' for Inactive)
REMARK    1  A    between atoms: C_5  and  C_6
REMARK    2  A    between atoms: C_9  and  C_10
REMARK    3  A    between atoms: C_10  and  N_11
REMARK    4  A    between atoms: N_11  and  C_12
REMARK    5  A    between atoms: C_12  and  C_13
REMARK                            x       y       z     vdW  Elec       q    Type
REMARK                         _______ _______ _______ _____ _____    ______ ____
ROOT
ATOM      1  C   UNL     1       3.716   4.882  17.765  0.00  0.00    +0.000 A 
ATOM      2  C   UNL     1       4.529   5.929  18.230  0.00  0.00    +0.000 A 
ATOM      3  C   UNL     1       5.879   5.900  17.810  0.00  0.00    +0.000 A 
ATOM      4  C   UNL     1       7.119   6.628  17.909  0.00  0.00    +0.000 A 
ATOM      5  N   UNL     1       8.145   5.758  17.799  0.00  0.00    +0.000 NA
ATOM      6  N   UNL     1       7.610   4.798  17.036  0.00  0.00    +0.000 N 
ATOM      7  C   UNL     1       6.255   4.845  16.994  0.00  0.00    +0.000 A 
ATOM      8  C   UNL     1       5.350   4.052  16.321  0.00  0.00    +0.000 A 
ATOM      9  N   UNL     1       4.075   4.078  16.728  0.00  0.00    +0.000 NA
ATOM     10  H   UNL     1       8.229   4.104  16.651  0.00  0.00    +0.000 HD
ENDROOT
BRANCH   1  15
ATOM     11  C   UNL     1       1.102   4.215  20.436  0.00  0.00    +0.000 A 
ATOM     12  C   UNL     1       0.545   3.059  19.917  0.00  0.00    +0.000 A 
ATOM     13  N   UNL     1       0.909   2.529  18.733  0.00  0.00    +0.000 NA
ATOM     14  C   UNL     1       1.891   3.180  18.052  0.00  0.00    +0.000 A 
ATOM     15  C   UNL     1       2.520   4.362  18.462  0.00  0.00    +0.000 A 
ATOM     16  C   UNL     1       2.092   4.872  19.698  0.00  0.00    +0.000 A 
ENDBRANCH   1  15
BRANCH   4  17
ATOM     17  C   UNL     1       7.558   8.022  17.553  0.00  0.00    +0.000 C 
BRANCH  17  18
ATOM     18  N   UNL     1       8.415   8.729  18.496  0.00  0.00    +0.000 NA
ATOM     19  H   UNL     1       9.237   8.157  18.670  0.00  0.00    +0.000 HD
BRANCH  18  20
ATOM     20  C   UNL     1       8.830   9.996  17.852  0.00  0.00    +0.000 C 
BRANCH  20  21
ATOM     21  C   UNL     1       8.983  11.126  18.883  0.00  0.00    +0.000 C 
ATOM     22  C   UNL     1       8.898  12.515  18.231  0.00  0.00    +0.000 C 
ATOM     23  C   UNL     1      10.157  12.854  17.432  0.00  0.00    +0.000 C 
ATOM     24  N   UNL     1      11.360  12.776  18.262  0.00  0.00    +0.000 NA
ATOM     25  C   UNL     1      11.526  11.441  18.839  0.00  0.00    +0.000 C 
ATOM     26  C   UNL     1      10.308  11.014  19.662  0.00  0.00    +0.000 C 
ATOM     27  H   UNL     1      11.279  13.456  19.018  0.00  0.00    +0.000 HD
ENDBRANCH  20  21
ENDBRANCH  18  20
ENDBRANCH  17  18
ENDBRANCH   4  17
TORSDOF 5
ENDMDL
MODEL 7
REMARK VINA RESULT:      -7.5      3.017      7.732
REMARK  Name = 
REMARK  5 active torsions:
REMARK  status: ('A' for Active; 'I' for Inactive)
REMARK    1  A    between atoms: C_5  and  C_6
REMARK    2  A    between atoms: C_9  and  C_10
REMARK    3  A    between atoms: C_10  and  N_11
REMARK    4  A    between atoms: N_11  and  C_12
REMARK    5  A    between atoms: C_12  and  C_13
REMARK                            x       y       z     vdW  Elec       q    Type
REMARK                         _______ _______ _______ _____ _____    ______ ____
ROOT
ATOM      1  C   UNL     1       6.208   5.401  15.437  0.00  0.00    +0.000 A 
ATOM      2  C   UNL     1       5.020   5.255  16.171  0.00  0.00    +0.000 A 
ATOM      3  C   UNL     1       5.117   5.485  17.563  0.00  0.00    +0.000 A 
ATOM      4  C   UNL     1       4.332   5.516  18.770  0.00  0.00    +0.000 A 
ATOM      5  N   UNL     1       5.123   5.193  19.814  0.00  0.00    +0.000 NA
ATOM      6  N   UNL     1       6.320   5.616  19.392  0.00  0.00    +0.000 N 
ATOM      7  C   UNL     1       6.369   5.822  18.052  0.00  0.00    +0.000 A 
ATOM      8  C   UNL     1       7.399   6.262  17.249  0.00  0.00    +0.000 A 
ATOM      9  N   UNL     1       7.305   6.035  15.933  0.00  0.00    +0.000 NA
ATOM     10  H   UNL     1       7.068   5.657  20.064  0.00  0.00    +0.000 HD
ENDROOT
BRANCH   1  15
ATOM     11  C   UNL     1       7.639   4.599  12.013  0.00  0.00    +0.000 A 
ATOM     12  C   UNL     1       6.746   3.614  11.626  0.00  0.00    +0.000 A 
ATOM     13  N   UNL     1       5.768   3.147  12.424  0.00  0.00    +0.000 NA
ATOM     14  C   UNL     1       5.668   3.712  13.659  0.00  0.00    +0.000 A 
ATOM     15  C   UNL     1       6.516   4.701  14.172  0.00  0.00    +0.000 A 
ATOM     16  C   UNL     1       7.523   5.140  13.298  0.00  0.00    +0.000 A 
ENDBRANCH   1  15
BRANCH   4  17
ATOM     17  C   UNL     1       3.130   6.297  19.230  0.00  0.00    +0.000 C 
BRANCH  17  18
ATOM     18  N   UNL     1       1.905   5.560  19.510  0.00  0.00    +0.000 NA
ATOM     19  H   UNL     1       1.116   6.184  19.361  0.00  0.00    +0.000 HD
BRANCH  18  20
ATOM     20  C   UNL     1       1.830   4.441  18.542  0.00  0.00    +0.000 C 
BRANCH  20  21
ATOM     21  C   UNL     1       1.333   3.150  19.212  0.00  0.00    +0.000 C 
ATOM     22  C   UNL     1       0.969   3.372  20.688  0.00  0.00    +0.000 C 
ATOM     23  C   UNL     1       2.209   3.542  21.567  0.00  0.00    +0.000 C 
ATOM     24  N   UNL     1       3.113   2.396  21.453  0.00  0.00    +0.000 NA
ATOM     25  C   UNL     1       3.552   2.198  20.071  0.00  0.00    +0.000 C 
ATOM     26  C   UNL     1       2.373   2.017  19.113  0.00  0.00    +0.000 C 
ATOM     27  H   UNL     1       2.621   1.560  21.768  0.00  0.00    +0.000 HD
ENDBRANCH  20  21
ENDBRANCH  18  20
ENDBRANCH  17  18
ENDBRANCH   4  17
TORSDOF 5
ENDMDL
MODEL 8
REMARK VINA RESULT:      -7.4      3.039      7.725
REMARK  Name = 
REMARK  5 active torsions:
REMARK  status: ('A' for Active; 'I' for Inactive)
REMARK    1  A    between atoms: C_5  and  C_6
REMARK    2  A    between atoms: C_9  and  C_10
REMARK    3  A    between atoms: C_10  and  N_11
REMARK    4  A    between atoms: N_11  and  C_12
REMARK    5  A    between atoms: C_12  and  C_13
REMARK                            x       y       z     vdW  Elec       q    Type
REMARK                         _______ _______ _______ _____ _____    ______ ____
ROOT
ATOM      1  C   UNL     1       6.225   5.392  15.419  0.00  0.00    +0.000 A 
ATOM      2  C   UNL     1       5.049   5.202  16.163  0.00  0.00    +0.000 A 
ATOM      3  C   UNL     1       5.150   5.428  17.555  0.00  0.00    +0.000 A 
ATOM      4  C   UNL     1       4.374   5.426  18.768  0.00  0.00    +0.000 A 
ATOM      5  N   UNL     1       5.185   5.124  19.804  0.00  0.00    +0.000 NA
ATOM      6  N   UNL     1       6.364   5.590  19.374  0.00  0.00    +0.000 N 
ATOM      7  C   UNL     1       6.394   5.805  18.035  0.00  0.00    +0.000 A 
ATOM      8  C   UNL     1       7.402   6.284  17.226  0.00  0.00    +0.000 A 
ATOM      9  N   UNL     1       7.304   6.060  15.910  0.00  0.00    +0.000 NA
ATOM     10  H   UNL     1       7.115   5.652  20.040  0.00  0.00    +0.000 HD
ENDROOT
BRANCH   1  15
ATOM     11  C   UNL     1       7.654   4.657  11.979  0.00  0.00    +0.000 A 
ATOM     12  C   UNL     1       6.792   3.645  11.594  0.00  0.00    +0.000 A 
ATOM     13  N   UNL     1       5.835   3.142  12.397  0.00  0.00    +0.000 NA
ATOM     14  C   UNL     1       5.727   3.696  13.636  0.00  0.00    +0.000 A 
ATOM     15  C   UNL     1       6.546   4.710  14.148  0.00  0.00    +0.000 A 
ATOM     16  C   UNL     1       7.531   5.186  13.268  0.00  0.00    +0.000 A 
ENDBRANCH   1  15
BRANCH   4  17
ATOM     17  C   UNL     1       3.151   6.163  19.242  0.00  0.00    +0.000 C 
BRANCH  17  18
ATOM     18  N   UNL     1       1.885   5.442  19.261  0.00  0.00    +0.000 NA
ATOM     19  H   UNL     1       1.959   4.651  18.626  0.00  0.00    +0.000 HD
BRANCH  18  20
ATOM     20  C   UNL     1       1.681   4.942  20.640  0.00  0.00    +0.000 C 
BRANCH  20  21
ATOM     21  C   UNL     1       1.120   3.511  20.642  0.00  0.00    +0.000 C 
ATOM     22  C   UNL     1       2.141   2.494  21.176  0.00  0.00    +0.000 C 
ATOM     23  C   UNL     1       3.264   2.226  20.173  0.00  0.00    +0.000 C 
ATOM     24  N   UNL     1       2.739   1.764  18.886  0.00  0.00    +0.000 NA
ATOM     25  C   UNL     1       1.823   2.742  18.300  0.00  0.00    +0.000 C 
ATOM     26  C   UNL     1       0.659   3.075  19.237  0.00  0.00    +0.000 C 
ATOM     27  H   UNL     1       2.238   0.887  19.034  0.00  0.00    +0.000 HD
ENDBRANCH  20  21
ENDBRANCH  18  20
ENDBRANCH  17  18
ENDBRANCH   4  17
TORSDOF 5
ENDMDL
MODEL 9
REMARK VINA RESULT:      -7.4      3.778      6.309
REMARK  Name = 
REMARK  5 active torsions:
REMARK  status: ('A' for Active; 'I' for Inactive)
REMARK    1  A    between atoms: C_5  and  C_6
REMARK    2  A    between atoms: C_9  and  C_10
REMARK    3  A    between atoms: C_10  and  N_11
REMARK    4  A    between atoms: N_11  and  C_12
REMARK    5  A    between atoms: C_12  and  C_13
REMARK                            x       y       z     vdW  Elec       q    Type
REMARK                         _______ _______ _______ _____ _____    ______ ____
ROOT
ATOM      1  C   UNL     1       3.846   4.824  18.470  0.00  0.00    +0.000 A 
ATOM      2  C   UNL     1       4.916   5.675  18.795  0.00  0.00    +0.000 A 
ATOM      3  C   UNL     1       5.835   5.943  17.755  0.00  0.00    +0.000 A 
ATOM      4  C   UNL     1       7.032   6.686  17.457  0.00  0.00    +0.000 A 
ATOM      5  N   UNL     1       7.725   6.032  16.502  0.00  0.00    +0.000 NA
ATOM      6  N   UNL     1       6.749   5.404  15.836  0.00  0.00    +0.000 N 
ATOM      7  C   UNL     1       5.589   5.336  16.535  0.00  0.00    +0.000 A 
ATOM      8  C   UNL     1       4.368   4.790  16.196  0.00  0.00    +0.000 A 
ATOM      9  N   UNL     1       3.505   4.533  17.186  0.00  0.00    +0.000 NA
ATOM     10  H   UNL     1       6.979   4.981  14.953  0.00  0.00    +0.000 HD
ENDROOT
BRANCH   1  15
ATOM     11  C   UNL     1       1.130   3.401  20.709  0.00  0.00    +0.000 A 
ATOM     12  C   UNL     1       1.916   2.627  21.545  0.00  0.00    +0.000 A 
ATOM     13  N   UNL     1       3.245   2.481  21.385  0.00  0.00    +0.000 NA
ATOM     14  C   UNL     1       3.812   3.160  20.351  0.00  0.00    +0.000 A 
ATOM     15  C   UNL     1       3.126   3.961  19.429  0.00  0.00    +0.000 A 
ATOM     16  C   UNL     1       1.742   4.066  19.641  0.00  0.00    +0.000 A 
ENDBRANCH   1  15
BRANCH   4  17
ATOM     17  C   UNL     1       7.408   8.143  17.489  0.00  0.00    +0.000 C 
BRANCH  17  18
ATOM     18  N   UNL     1       8.421   8.565  18.447  0.00  0.00    +0.000 NA
ATOM     19  H   UNL     1       9.314   8.168  18.163  0.00  0.00    +0.000 HD
BRANCH  18  20
ATOM     20  C   UNL     1       8.503  10.042  18.383  0.00  0.00    +0.000 C 
BRANCH  20  21
ATOM     21  C   UNL     1       9.870  10.552  18.865  0.00  0.00    +0.000 C 
ATOM     22  C   UNL     1       9.766  11.305  20.200  0.00  0.00    +0.000 C 
ATOM     23  C   UNL     1       9.130  12.685  20.033  0.00  0.00    +0.000 C 
ATOM     24  N   UNL     1       9.863  13.503  19.065  0.00  0.00    +0.000 NA
ATOM     25  C   UNL     1       9.917  12.859  17.753  0.00  0.00    +0.000 C 
ATOM     26  C   UNL     1      10.542  11.464  17.821  0.00  0.00    +0.000 C 
ATOM     27  H   UNL     1      10.815  13.639  19.408  0.00  0.00    +0.000 HD
ENDBRANCH  20  21
ENDBRANCH  18  20
ENDBRANCH  17  18
ENDBRANCH   4  17
TORSDOF 5
ENDMDL
