MODEL 1
REMARK VINA RESULT:      -8.1      0.000      0.000
REMARK  Name = 
REMARK  9 active torsions:
REMARK  status: ('A' for Active; 'I' for Inactive)
REMARK    1  A    between atoms: C_1  and  O_2
REMARK    2  A    between atoms: O_2  and  C_3
REMARK    3  A    between atoms: C_6  and  C_7
REMARK    4  A    between atoms: C_12  and  C_14
REMARK    5  A    between atoms: C_14  and  C_15
REMARK    6  A    between atoms: C_14  and  O_16
REMARK    7  A    between atoms: O_16  and  C_17
REMARK    8  A    between atoms: C_20  and  C_21
REMARK    9  A    between atoms: N_23  and  C_24
REMARK                            x       y       z     vdW  Elec       q    Type
REMARK                         _______ _______ _______ _____ _____    ______ ____
ROOT
ATOM      1  C   UNL     1       3.226   5.816  19.052  0.00  0.00    +0.000 A 
ATOM      2  C   UNL     1       3.049   4.872  20.038  0.00  0.00    +0.000 A 
ATOM      3  N   UNL     1       2.252   5.481  20.966  0.00  0.00    +0.000 N 
ATOM      4  C   UNL     1       1.964   6.747  20.522  0.00  0.00    +0.000 A 
ATOM      5  N   UNL     1       1.176   7.585  21.271  0.00  0.00    +0.000 N 
ATOM      6  C   UNL     1       0.831   8.856  20.847  0.00  0.00    +0.000 C 
ATOM      7  O   UNL     1       1.234   9.414  19.825  0.00  0.00    +0.000 OA
ATOM      8  N   UNL     1       2.523   6.956  19.354  0.00  0.00    +0.000 NA
ATOM      9  H   UNL     1       1.925   5.068  21.826  0.00  0.00    +0.000 HD
ATOM     10  H   UNL     1       0.831   7.244  22.153  0.00  0.00    +0.000 HD
ENDROOT
BRANCH   1  14
ATOM     11  C   UNL     1       5.516   5.322  15.490  0.00  0.00    +0.000 A 
ATOM     12  C   UNL     1       5.230   6.598  15.976  0.00  0.00    +0.000 A 
ATOM     13  C   UNL     1       4.497   6.762  17.157  0.00  0.00    +0.000 A 
ATOM     14  C   UNL     1       4.014   5.644  17.848  0.00  0.00    +0.000 A 
ATOM     15  C   UNL     1       4.301   4.367  17.351  0.00  0.00    +0.000 A 
ATOM     16  C   UNL     1       5.045   4.205  16.180  0.00  0.00    +0.000 A 
BRANCH  11  18
ATOM     17  C   UNL     1       6.308   3.996  13.707  0.00  0.00    +0.000 C 
ATOM     18  O   UNL     1       6.226   5.277  14.322  0.00  0.00    +0.000 OA
ENDBRANCH  11  18
ENDBRANCH   1  14
BRANCH   6  19
ATOM     19  C   UNL     1      -0.143   9.606  21.786  0.00  0.00    +0.000 C 
ATOM     20  C   UNL     1       0.202   9.435  23.265  0.00  0.00    +0.000 C 
BRANCH  19  21
ATOM     21  O   UNL     1      -0.139  10.996  21.459  0.00  0.00    +0.000 OA
BRANCH  21  22
ATOM     22  C   UNL     1      -1.318  11.689  21.545  0.00  0.00    +0.000 A 
ATOM     23  C   UNL     1      -1.855  12.101  20.321  0.00  0.00    +0.000 A 
ATOM     24  C   UNL     1      -3.063  12.812  20.267  0.00  0.00    +0.000 A 
ATOM     25  C   UNL     1      -3.770  13.097  21.441  0.00  0.00    +0.000 A 
ATOM     26  C   UNL     1      -3.230  12.683  22.662  0.00  0.00    +0.000 A 
ATOM     27  C   UNL     1      -2.020  11.977  22.715  0.00  0.00    +0.000 A 
BRANCH  25  28
ATOM     28  C   UNL     1      -5.060  13.765  21.426  0.00  0.00    +0.000 A 
ATOM     29  C   UNL     1      -5.514  14.628  20.448  0.00  0.00    +0.000 A 
ATOM     30  N   UNL     1      -6.803  14.915  20.799  0.00  0.00    +0.000 N 
ATOM     31  C   UNL     1      -7.735  15.713  20.049  0.00  0.00    +0.000 C 
ATOM     32  C   UNL     1      -7.073  14.264  21.964  0.00  0.00    +0.000 A 
ATOM     33  N   UNL     1      -6.043  13.552  22.366  0.00  0.00    +0.000 NA
ENDBRANCH  25  28
ENDBRANCH  21  22
ENDBRANCH  19  21
ENDBRANCH   6  19
TORSDOF 6
ENDMDL
MODEL 2
REMARK VINA RESULT:      -8.1      2.033      2.705
REMARK  Name = 
REMARK  9 active torsions:
REMARK  status: ('A' for Active; 'I' for Inactive)
REMARK    1  A    between atoms: C_1  and  O_2
REMARK    2  A    between atoms: O_2  and  C_3
REMARK    3  A    between atoms: C_6  and  C_7
REMARK    4  A    between atoms: C_12  and  C_14
REMARK    5  A    between atoms: C_14  and  C_15
REMARK    6  A    between atoms: C_14  and  O_16
REMARK    7  A    between atoms: O_16  and  C_17
REMARK    8  A    between atoms: C_20  and  C_21
REMARK    9  A    between atoms: N_23  and  C_24
REMARK                            x       y       z     vdW  Elec       q    Type
REMARK                         _______ _______ _______ _____ _____    ______ ____
ROOT
ATOM      1  C   UNL     1       4.448   5.492  18.031  0.00  0.00    +0.000 A 
ATOM      2  C   UNL     1       4.487   4.734  19.179  0.00  0.00    +0.000 A 
ATOM      3  N   UNL     1       3.654   5.377  20.051  0.00  0.00    +0.000 N 
ATOM      4  C   UNL     1       3.135   6.478  19.417  0.00  0.00    +0.000 A 
ATOM      5  N   UNL     1       2.263   7.311  20.073  0.00  0.00    +0.000 N 
ATOM      6  C   UNL     1       1.686   8.412  19.463  0.00  0.00    +0.000 C 
ATOM      7  O   UNL     1       1.932   8.823  18.328  0.00  0.00    +0.000 OA
ATOM      8  N   UNL     1       3.583   6.547  18.187  0.00  0.00    +0.000 NA
ATOM      9  H   UNL     1       3.450   5.088  20.995  0.00  0.00    +0.000 HD
ATOM     10  H   UNL     1       2.030   7.093  21.028  0.00  0.00    +0.000 HD
ENDROOT
BRANCH   1  14
ATOM     11  C   UNL     1       6.614   4.658  14.455  0.00  0.00    +0.000 A 
ATOM     12  C   UNL     1       5.292   4.234  14.597  0.00  0.00    +0.000 A 
ATOM     13  C   UNL     1       4.572   4.526  15.760  0.00  0.00    +0.000 A 
ATOM     14  C   UNL     1       5.183   5.220  16.812  0.00  0.00    +0.000 A 
ATOM     15  C   UNL     1       6.511   5.638  16.664  0.00  0.00    +0.000 A 
ATOM     16  C   UNL     1       7.224   5.358  15.495  0.00  0.00    +0.000 A 
BRANCH  11  18
ATOM     17  C   UNL     1       6.441   3.520  12.396  0.00  0.00    +0.000 C 
ATOM     18  O   UNL     1       7.227   4.306  13.284  0.00  0.00    +0.000 OA
ENDBRANCH  11  18
ENDBRANCH   1  14
BRANCH   6  19
ATOM     19  C   UNL     1       0.657   9.166  20.336  0.00  0.00    +0.000 C 
ATOM     20  C   UNL     1       1.102   9.317  21.791  0.00  0.00    +0.000 C 
BRANCH  19  21
ATOM     21  O   UNL     1       0.423  10.461  19.779  0.00  0.00    +0.000 OA
BRANCH  21  22
ATOM     22  C   UNL     1      -0.848  10.776  19.376  0.00  0.00    +0.000 A 
ATOM     23  C   UNL     1      -1.473  11.785  20.117  0.00  0.00    +0.000 A 
ATOM     24  C   UNL     1      -2.772  12.209  19.804  0.00  0.00    +0.000 A 
ATOM     25  C   UNL     1      -3.460  11.648  18.722  0.00  0.00    +0.000 A 
ATOM     26  C   UNL     1      -2.832  10.640  17.984  0.00  0.00    +0.000 A 
ATOM     27  C   UNL     1      -1.535  10.213  18.300  0.00  0.00    +0.000 A 
BRANCH  25  28
ATOM     28  C   UNL     1      -4.777  12.108  18.317  0.00  0.00    +0.000 A 
ATOM     29  C   UNL     1      -5.689  12.760  19.122  0.00  0.00    +0.000 A 
ATOM     30  N   UNL     1      -6.723  13.090  18.291  0.00  0.00    +0.000 N 
ATOM     31  C   UNL     1      -7.889  13.856  18.641  0.00  0.00    +0.000 C 
ATOM     32  C   UNL     1      -6.430  12.611  17.051  0.00  0.00    +0.000 A 
ATOM     33  N   UNL     1      -5.256  12.020  17.029  0.00  0.00    +0.000 NA
ENDBRANCH  25  28
ENDBRANCH  21  22
ENDBRANCH  19  21
ENDBRANCH   6  19
TORSDOF 6
ENDMDL
MODEL 3
REMARK VINA RESULT:      -7.9      1.727      2.140
REMARK  Name = 
REMARK  9 active torsions:
REMARK  status: ('A' for Active; 'I' for Inactive)
REMARK    1  A    between atoms: C_1  and  O_2
REMARK    2  A    between atoms: O_2  and  C_3
REMARK    3  A    between atoms: C_6  and  C_7
REMARK    4  A    between atoms: C_12  and  C_14
REMARK    5  A    between atoms: C_14  and  C_15
REMARK    6  A    between atoms: C_14  and  O_16
REMARK    7  A    between atoms: O_16  and  C_17
REMARK    8  A    between atoms: C_20  and  C_21
REMARK    9  A    between atoms: N_23  and  C_24
REMARK                            x       y       z     vdW  Elec       q    Type
REMARK                         _______ _______ _______ _____ _____    ______ ____
ROOT
ATOM      1  C   UNL     1       3.327   6.400  18.274  0.00  0.00    +0.000 A 
ATOM      2  C   UNL     1       2.891   5.871  19.468  0.00  0.00    +0.000 A 
ATOM      3  N   UNL     1       2.162   6.872  20.046  0.00  0.00    +0.000 N 
ATOM      4  C   UNL     1       2.166   7.953  19.201  0.00  0.00    +0.000 A 
ATOM      5  N   UNL     1       1.505   9.106  19.543  0.00  0.00    +0.000 N 
ATOM      6  C   UNL     1       1.453  10.208  18.707  0.00  0.00    +0.000 C 
ATOM      7  O   UNL     1       2.037  10.328  17.628  0.00  0.00    +0.000 OA
ATOM      8  N   UNL     1       2.844   7.675  18.113  0.00  0.00    +0.000 NA
ATOM      9  H   UNL     1       1.694   6.822  20.938  0.00  0.00    +0.000 HD
ATOM     10  H   UNL     1       1.032   9.133  20.431  0.00  0.00    +0.000 HD
ENDROOT
BRANCH   1  14
ATOM     11  C   UNL     1       5.742   4.402  15.384  0.00  0.00    +0.000 A 
ATOM     12  C   UNL     1       5.653   5.795  15.390  0.00  0.00    +0.000 A 
ATOM     13  C   UNL     1       4.879   6.453  16.352  0.00  0.00    +0.000 A 
ATOM     14  C   UNL     1       4.156   5.718  17.300  0.00  0.00    +0.000 A 
ATOM     15  C   UNL     1       4.247   4.321  17.284  0.00  0.00    +0.000 A 
ATOM     16  C   UNL     1       5.033   3.666  16.331  0.00  0.00    +0.000 A 
BRANCH  11  18
ATOM     17  C   UNL     1       5.872   3.716  13.130  0.00  0.00    +0.000 C 
ATOM     18  O   UNL     1       6.514   3.861  14.392  0.00  0.00    +0.000 OA
ENDBRANCH  11  18
ENDBRANCH   1  14
BRANCH   6  19
ATOM     19  C   UNL     1       0.578  11.371  19.228  0.00  0.00    +0.000 C 
ATOM     20  C   UNL     1       0.735  12.652  18.407  0.00  0.00    +0.000 C 
BRANCH  19  21
ATOM     21  O   UNL     1      -0.793  10.972  19.219  0.00  0.00    +0.000 OA
BRANCH  21  22
ATOM     22  C   UNL     1      -1.665  11.620  20.055  0.00  0.00    +0.000 A 
ATOM     23  C   UNL     1      -2.851  12.055  19.454  0.00  0.00    +0.000 A 
ATOM     24  C   UNL     1      -3.832  12.725  20.198  0.00  0.00    +0.000 A 
ATOM     25  C   UNL     1      -3.654  12.946  21.570  0.00  0.00    +0.000 A 
ATOM     26  C   UNL     1      -2.468  12.508  22.166  0.00  0.00    +0.000 A 
ATOM     27  C   UNL     1      -1.486  11.844  21.420  0.00  0.00    +0.000 A 
BRANCH  25  28
ATOM     28  C   UNL     1      -4.675  13.569  22.394  0.00  0.00    +0.000 A 
ATOM     29  C   UNL     1      -5.914  13.036  22.687  0.00  0.00    +0.000 A 
ATOM     30  N   UNL     1      -6.477  13.914  23.571  0.00  0.00    +0.000 N 
ATOM     31  C   UNL     1      -7.742  13.761  24.239  0.00  0.00    +0.000 C 
ATOM     32  C   UNL     1      -5.602  14.940  23.754  0.00  0.00    +0.000 A 
ATOM     33  N   UNL     1      -4.498  14.759  23.064  0.00  0.00    +0.000 NA
ENDBRANCH  25  28
ENDBRANCH  21  22
ENDBRANCH  19  21
ENDBRANCH   6  19
TORSDOF 6
ENDMDL
MODEL 4
REMARK VINA RESULT:      -7.9      1.458      1.943
REMARK  Name = 
REMARK  9 active torsions:
REMARK  status: ('A' for Active; 'I' for Inactive)
REMARK    1  A    between atoms: C_1  and  O_2
REMARK    2  A    between atoms: O_2  and  C_3
REMARK    3  A    between atoms: C_6  and  C_7
REMARK    4  A    between atoms: C_12  and  C_14
REMARK    5  A    between atoms: C_14  and  C_15
REMARK    6  A    between atoms: C_14  and  O_16
REMARK    7  A    between atoms: O_16  and  C_17
REMARK    8  A    between atoms: C_20  and  C_21
REMARK    9  A    between atoms: N_23  and  C_24
REMARK                            x       y       z     vdW  Elec       q    Type
REMARK                         _______ _______ _______ _____ _____    ______ ____
ROOT
ATOM      1  C   UNL     1       4.120   5.389  18.149  0.00  0.00    +0.000 A 
ATOM      2  C   UNL     1       4.159   4.598  19.274  0.00  0.00    +0.000 A 
ATOM      3  N   UNL     1       3.406   5.267  20.198  0.00  0.00    +0.000 N 
ATOM      4  C   UNL     1       2.932   6.416  19.616  0.00  0.00    +0.000 A 
ATOM      5  N   UNL     1       2.143   7.283  20.330  0.00  0.00    +0.000 N 
ATOM      6  C   UNL     1       1.613   8.435  19.775  0.00  0.00    +0.000 C 
ATOM      7  O   UNL     1       1.836   8.862  18.640  0.00  0.00    +0.000 OA
ATOM      8  N   UNL     1       3.332   6.492  18.369  0.00  0.00    +0.000 NA
ATOM      9  H   UNL     1       3.225   4.965  21.143  0.00  0.00    +0.000 HD
ATOM     10  H   UNL     1       1.938   7.053  21.289  0.00  0.00    +0.000 HD
ENDROOT
BRANCH   1  14
ATOM     11  C   UNL     1       6.104   4.548  14.470  0.00  0.00    +0.000 A 
ATOM     12  C   UNL     1       5.682   3.508  15.300  0.00  0.00    +0.000 A 
ATOM     13  C   UNL     1       5.011   3.782  16.497  0.00  0.00    +0.000 A 
ATOM     14  C   UNL     1       4.784   5.106  16.892  0.00  0.00    +0.000 A 
ATOM     15  C   UNL     1       5.215   6.144  16.056  0.00  0.00    +0.000 A 
ATOM     16  C   UNL     1       5.872   5.868  14.854  0.00  0.00    +0.000 A 
BRANCH  11  18
ATOM     17  C   UNL     1       5.995   3.401  12.411  0.00  0.00    +0.000 C 
ATOM     18  O   UNL     1       6.762   4.168  13.332  0.00  0.00    +0.000 OA
ENDBRANCH  11  18
ENDBRANCH   1  14
BRANCH   6  19
ATOM     19  C   UNL     1       0.671   9.227  20.711  0.00  0.00    +0.000 C 
ATOM     20  C   UNL     1       1.070   9.128  22.183  0.00  0.00    +0.000 C 
BRANCH  19  21
ATOM     21  O   UNL     1       0.660  10.600  20.317  0.00  0.00    +0.000 OA
BRANCH  21  22
ATOM     22  C   UNL     1      -0.549  11.238  20.218  0.00  0.00    +0.000 A 
ATOM     23  C   UNL     1      -1.313  10.894  19.099  0.00  0.00    +0.000 A 
ATOM     24  C   UNL     1      -2.573  11.468  18.882  0.00  0.00    +0.000 A 
ATOM     25  C   UNL     1      -3.105  12.380  19.802  0.00  0.00    +0.000 A 
ATOM     26  C   UNL     1      -2.338  12.721  20.920  0.00  0.00    +0.000 A 
ATOM     27  C   UNL     1      -1.076  12.150  21.133  0.00  0.00    +0.000 A 
BRANCH  25  28
ATOM     28  C   UNL     1      -4.436  12.942  19.656  0.00  0.00    +0.000 A 
ATOM     29  C   UNL     1      -5.403  12.513  18.768  0.00  0.00    +0.000 A 
ATOM     30  N   UNL     1      -6.511  13.256  19.065  0.00  0.00    +0.000 N 
ATOM     31  C   UNL     1      -7.813  13.125  18.468  0.00  0.00    +0.000 C 
ATOM     32  C   UNL     1      -6.181  14.114  20.070  0.00  0.00    +0.000 A 
ATOM     33  N   UNL     1      -4.936  13.944  20.457  0.00  0.00    +0.000 NA
ENDBRANCH  25  28
ENDBRANCH  21  22
ENDBRANCH  19  21
ENDBRANCH   6  19
TORSDOF 6
ENDMDL
MODEL 5
REMARK VINA RESULT:      -7.9      1.686      2.157
REMARK  Name = 
REMARK  9 active torsions:
REMARK  status: ('A' for Active; 'I' for Inactive)
REMARK    1  A    between atoms: C_1  and  O_2
REMARK    2  A    between atoms: O_2  and  C_3
REMARK    3  A    between atoms: C_6  and  C_7
REMARK    4  A    between atoms: C_12  and  C_14
REMARK    5  A    between atoms: C_14  and  C_15
REMARK    6  A    between atoms: C_14  and  O_16
REMARK    7  A    between atoms: O_16  and  C_17
REMARK    8  A    between atoms: C_20  and  C_21
REMARK    9  A    between atoms: N_23  and  C_24
REMARK                            x       y       z     vdW  Elec       q    Type
REMARK                         _______ _______ _______ _____ _____    ______ ____
ROOT
ATOM      1  C   UNL     1       2.780   6.565  18.961  0.00  0.00    +0.000 A 
ATOM      2  C   UNL     1       2.315   6.131  20.182  0.00  0.00    +0.000 A 
ATOM      3  N   UNL     1       1.631   7.197  20.694  0.00  0.00    +0.000 N 
ATOM      4  C   UNL     1       1.689   8.223  19.784  0.00  0.00    +0.000 A 
ATOM      5  N   UNL     1       1.081   9.425  20.050  0.00  0.00    +0.000 N 
ATOM      6  C   UNL     1       1.082  10.474  19.148  0.00  0.00    +0.000 C 
ATOM      7  O   UNL     1       1.675  10.501  18.068  0.00  0.00    +0.000 OA
ATOM      8  N   UNL     1       2.357   7.848  18.720  0.00  0.00    +0.000 NA
ATOM      9  H   UNL     1       1.158   7.224  21.584  0.00  0.00    +0.000 HD
ATOM     10  H   UNL     1       0.606   9.528  20.932  0.00  0.00    +0.000 HD
ENDROOT
BRANCH   1  14
ATOM     11  C   UNL     1       5.114   4.290  16.213  0.00  0.00    +0.000 A 
ATOM     12  C   UNL     1       5.285   5.672  16.312  0.00  0.00    +0.000 A 
ATOM     13  C   UNL     1       4.536   6.417  17.230  0.00  0.00    +0.000 A 
ATOM     14  C   UNL     1       3.580   5.787  18.036  0.00  0.00    +0.000 A 
ATOM     15  C   UNL     1       3.411   4.401  17.927  0.00  0.00    +0.000 A 
ATOM     16  C   UNL     1       4.171   3.657  17.021  0.00  0.00    +0.000 A 
BRANCH  11  18
ATOM     17  C   UNL     1       6.800   4.503  14.576  0.00  0.00    +0.000 C 
ATOM     18  O   UNL     1       5.888   3.663  15.274  0.00  0.00    +0.000 OA
ENDBRANCH  11  18
ENDBRANCH   1  14
BRANCH   6  19
ATOM     19  C   UNL     1       0.260  11.706  19.592  0.00  0.00    +0.000 C 
ATOM     20  C   UNL     1       0.917  13.033  19.209  0.00  0.00    +0.000 C 
BRANCH  19  21
ATOM     21  O   UNL     1      -1.042  11.641  19.007  0.00  0.00    +0.000 OA
BRANCH  21  22
ATOM     22  C   UNL     1      -2.119  11.998  19.776  0.00  0.00    +0.000 A 
ATOM     23  C   UNL     1      -1.840  12.201  21.131  0.00  0.00    +0.000 A 
ATOM     24  C   UNL     1      -2.851  12.578  22.026  0.00  0.00    +0.000 A 
ATOM     25  C   UNL     1      -4.158  12.787  21.572  0.00  0.00    +0.000 A 
ATOM     26  C   UNL     1      -4.433  12.584  20.217  0.00  0.00    +0.000 A 
ATOM     27  C   UNL     1      -3.423  12.201  19.324  0.00  0.00    +0.000 A 
BRANCH  25  28
ATOM     28  C   UNL     1      -5.220  13.249  22.449  0.00  0.00    +0.000 A 
ATOM     29  C   UNL     1      -5.760  14.520  22.466  0.00  0.00    +0.000 A 
ATOM     30  N   UNL     1      -6.788  14.456  23.365  0.00  0.00    +0.000 N 
ATOM     31  C   UNL     1      -7.716  15.509  23.678  0.00  0.00    +0.000 C 
ATOM     32  C   UNL     1      -6.817  13.194  23.877  0.00  0.00    +0.000 A 
ATOM     33  N   UNL     1      -5.887  12.436  23.338  0.00  0.00    +0.000 NA
ENDBRANCH  25  28
ENDBRANCH  21  22
ENDBRANCH  19  21
ENDBRANCH   6  19
TORSDOF 6
ENDMDL
MODEL 6
REMARK VINA RESULT:      -7.8      1.096      1.541
REMARK  Name = 
REMARK  9 active torsions:
REMARK  status: ('A' for Active; 'I' for Inactive)
REMARK    1  A    between atoms: C_1  and  O_2
REMARK    2  A    between atoms: O_2  and  C_3
REMARK    3  A    between atoms: C_6  and  C_7
REMARK    4  A    between atoms: C_12  and  C_14
REMARK    5  A    between atoms: C_14  and  C_15
REMARK    6  A    between atoms: C_14  and  O_16
REMARK    7  A    between atoms: O_16  and  C_17
REMARK    8  A    between atoms: C_20  and  C_21
REMARK    9  A    between atoms: N_23  and  C_24
REMARK                            x       y       z     vdW  Elec       q    Type
REMARK                         _______ _______ _______ _____ _____    ______ ____
ROOT
ATOM      1  C   UNL     1       3.503   5.616  18.806  0.00  0.00    +0.000 A 
ATOM      2  C   UNL     1       3.345   4.724  19.842  0.00  0.00    +0.000 A 
ATOM      3  N   UNL     1       2.544   5.370  20.740  0.00  0.00    +0.000 N 
ATOM      4  C   UNL     1       2.235   6.607  20.231  0.00  0.00    +0.000 A 
ATOM      5  N   UNL     1       1.439   7.472  20.939  0.00  0.00    +0.000 N 
ATOM      6  C   UNL     1       1.073   8.714  20.450  0.00  0.00    +0.000 C 
ATOM      7  O   UNL     1       1.463   9.222  19.397  0.00  0.00    +0.000 OA
ATOM      8  N   UNL     1       2.786   6.761  19.051  0.00  0.00    +0.000 NA
ATOM      9  H   UNL     1       2.227   4.999  21.623  0.00  0.00    +0.000 HD
ATOM     10  H   UNL     1       1.103   7.174  21.840  0.00  0.00    +0.000 HD
ENDROOT
BRANCH   1  14
ATOM     11  C   UNL     1       5.840   4.951  15.303  0.00  0.00    +0.000 A 
ATOM     12  C   UNL     1       5.468   3.882  16.118  0.00  0.00    +0.000 A 
ATOM     13  C   UNL     1       4.682   4.095  17.256  0.00  0.00    +0.000 A 
ATOM     14  C   UNL     1       4.288   5.392  17.608  0.00  0.00    +0.000 A 
ATOM     15  C   UNL     1       4.670   6.461  16.787  0.00  0.00    +0.000 A 
ATOM     16  C   UNL     1       5.443   6.243  15.643  0.00  0.00    +0.000 A 
BRANCH  11  18
ATOM     17  C   UNL     1       6.016   3.763  13.272  0.00  0.00    +0.000 C 
ATOM     18  O   UNL     1       6.620   4.631  14.224  0.00  0.00    +0.000 OA
ENDBRANCH  11  18
ENDBRANCH   1  14
BRANCH   6  19
ATOM     19  C   UNL     1       0.093   9.499  21.352  0.00  0.00    +0.000 C 
ATOM     20  C   UNL     1       0.325   9.251  22.843  0.00  0.00    +0.000 C 
BRANCH  19  21
ATOM     21  O   UNL     1       0.217  10.896  21.082  0.00  0.00    +0.000 OA
BRANCH  21  22
ATOM     22  C   UNL     1      -0.798  11.727  21.476  0.00  0.00    +0.000 A 
ATOM     23  C   UNL     1      -1.794  11.944  20.519  0.00  0.00    +0.000 A 
ATOM     24  C   UNL     1      -2.894  12.768  20.796  0.00  0.00    +0.000 A 
ATOM     25  C   UNL     1      -3.030  13.369  22.054  0.00  0.00    +0.000 A 
ATOM     26  C   UNL     1      -2.033  13.149  23.008  0.00  0.00    +0.000 A 
ATOM     27  C   UNL     1      -0.931  12.329  22.728  0.00  0.00    +0.000 A 
BRANCH  25  28
ATOM     28  C   UNL     1      -4.189  14.169  22.409  0.00  0.00    +0.000 A 
ATOM     29  C   UNL     1      -4.186  15.275  23.235  0.00  0.00    +0.000 A 
ATOM     30  N   UNL     1      -5.465  15.756  23.188  0.00  0.00    +0.000 N 
ATOM     31  C   UNL     1      -5.951  16.953  23.821  0.00  0.00    +0.000 C 
ATOM     32  C   UNL     1      -6.191  14.930  22.386  0.00  0.00    +0.000 A 
ATOM     33  N   UNL     1      -5.448  13.965  21.891  0.00  0.00    +0.000 NA
ENDBRANCH  25  28
ENDBRANCH  21  22
ENDBRANCH  19  21
ENDBRANCH   6  19
TORSDOF 6
ENDMDL
MODEL 7
REMARK VINA RESULT:      -7.7      4.044     10.813
REMARK  Name = 
REMARK  9 active torsions:
REMARK  status: ('A' for Active; 'I' for Inactive)
REMARK    1  A    between atoms: C_1  and  O_2
REMARK    2  A    between atoms: O_2  and  C_3
REMARK    3  A    between atoms: C_6  and  C_7
REMARK    4  A    between atoms: C_12  and  C_14
REMARK    5  A    between atoms: C_14  and  C_15
REMARK    6  A    between atoms: C_14  and  O_16
REMARK    7  A    between atoms: O_16  and  C_17
REMARK    8  A    between atoms: C_20  and  C_21
REMARK    9  A    between atoms: N_23  and  C_24
REMARK                            x       y       z     vdW  Elec       q    Type
REMARK                         _______ _______ _______ _____ _____    ______ ____
ROOT
ATOM      1  C   UNL     1       1.524   8.672  19.343  0.00  0.00    +0.000 A 
ATOM      2  C   UNL     1       1.520   9.040  18.016  0.00  0.00    +0.000 A 
ATOM      3  N   UNL     1       2.314   8.117  17.396  0.00  0.00    +0.000 N 
ATOM      4  C   UNL     1       2.760   7.227  18.342  0.00  0.00    +0.000 A 
ATOM      5  N   UNL     1       3.586   6.190  17.986  0.00  0.00    +0.000 N 
ATOM      6  C   UNL     1       4.031   5.249  18.898  0.00  0.00    +0.000 C 
ATOM      7  O   UNL     1       3.824   5.262  20.113  0.00  0.00    +0.000 OA
ATOM      8  N   UNL     1       2.270   7.533  19.519  0.00  0.00    +0.000 NA
ATOM      9  H   UNL     1       2.530   8.090  16.411  0.00  0.00    +0.000 HD
ATOM     10  H   UNL     1       3.859   6.115  17.020  0.00  0.00    +0.000 HD
ENDROOT
BRANCH   1  14
ATOM     11  C   UNL     1      -0.496  10.707  22.498  0.00  0.00    +0.000 A 
ATOM     12  C   UNL     1      -0.181  11.374  21.313  0.00  0.00    +0.000 A 
ATOM     13  C   UNL     1       0.462  10.703  20.268  0.00  0.00    +0.000 A 
ATOM     14  C   UNL     1       0.827   9.358  20.413  0.00  0.00    +0.000 A 
ATOM     15  C   UNL     1       0.511   8.697  21.606  0.00  0.00    +0.000 A 
ATOM     16  C   UNL     1      -0.144   9.367  22.643  0.00  0.00    +0.000 A 
BRANCH  11  18
ATOM     17  C   UNL     1      -1.504  12.768  23.049  0.00  0.00    +0.000 C 
ATOM     18  O   UNL     1      -1.112  11.463  23.459  0.00  0.00    +0.000 OA
ENDBRANCH  11  18
ENDBRANCH   1  14
BRANCH   6  19
ATOM     19  C   UNL     1       4.871   4.105  18.285  0.00  0.00    +0.000 C 
ATOM     20  C   UNL     1       4.015   2.995  17.676  0.00  0.00    +0.000 C 
BRANCH  19  21
ATOM     21  O   UNL     1       5.734   4.639  17.279  0.00  0.00    +0.000 OA
BRANCH  21  22
ATOM     22  C   UNL     1       6.499   5.732  17.592  0.00  0.00    +0.000 A 
ATOM     23  C   UNL     1       6.239   6.876  16.831  0.00  0.00    +0.000 A 
ATOM     24  C   UNL     1       6.946   8.066  17.054  0.00  0.00    +0.000 A 
ATOM     25  C   UNL     1       7.909   8.139  18.067  0.00  0.00    +0.000 A 
ATOM     26  C   UNL     1       8.165   6.994  18.826  0.00  0.00    +0.000 A 
ATOM     27  C   UNL     1       7.462   5.803  18.599  0.00  0.00    +0.000 A 
BRANCH  25  28
ATOM     28  C   UNL     1       8.612   9.371  18.382  0.00  0.00    +0.000 A 
ATOM     29  C   UNL     1       8.633  10.512  17.606  0.00  0.00    +0.000 A 
ATOM     30  N   UNL     1       9.319  11.433  18.347  0.00  0.00    +0.000 N 
ATOM     31  C   UNL     1       9.541  12.812  18.003  0.00  0.00    +0.000 C 
ATOM     32  C   UNL     1       9.713  10.829  19.502  0.00  0.00    +0.000 A 
ATOM     33  N   UNL     1       9.294   9.584  19.560  0.00  0.00    +0.000 NA
ENDBRANCH  25  28
ENDBRANCH  21  22
ENDBRANCH  19  21
ENDBRANCH   6  19
TORSDOF 6
ENDMDL
MODEL 8
REMARK VINA RESULT:      -7.6      2.959     11.915
REMARK  Name = 
REMARK  9 active torsions:
REMARK  status: ('A' for Active; 'I' for Inactive)
REMARK    1  A    between atoms: C_1  and  O_2
REMARK    2  A    between atoms: O_2  and  C_3
REMARK    3  A    between atoms: C_6  and  C_7
REMARK    4  A    between atoms: C_12  and  C_14
REMARK    5  A    between atoms: C_14  and  C_15
REMARK    6  A    between atoms: C_14  and  O_16
REMARK    7  A    between atoms: O_16  and  C_17
REMARK    8  A    between atoms: C_20  and  C_21
REMARK    9  A    between atoms: N_23  and  C_24
REMARK                            x       y       z     vdW  Elec       q    Type
REMARK                         _______ _______ _______ _____ _____    ______ ____
ROOT
ATOM      1  C   UNL     1      -0.431  11.192  20.269  0.00  0.00    +0.000 A 
ATOM      2  C   UNL     1       0.128  11.618  19.086  0.00  0.00    +0.000 A 
ATOM      3  N   UNL     1       0.982  10.615  18.722  0.00  0.00    +0.000 N 
ATOM      4  C   UNL     1       0.911   9.624  19.669  0.00  0.00    +0.000 A 
ATOM      5  N   UNL     1       1.677   8.491  19.550  0.00  0.00    +0.000 N 
ATOM      6  C   UNL     1       1.611   7.451  20.460  0.00  0.00    +0.000 C 
ATOM      7  O   UNL     1       0.949   7.438  21.500  0.00  0.00    +0.000 OA
ATOM      8  N   UNL     1       0.042   9.945  20.597  0.00  0.00    +0.000 NA
ATOM      9  H   UNL     1       1.561  10.602  17.896  0.00  0.00    +0.000 HD
ATOM     10  H   UNL     1       2.293   8.420  18.757  0.00  0.00    +0.000 HD
ENDROOT
BRANCH   1  14
ATOM     11  C   UNL     1      -3.297  13.317  22.602  0.00  0.00    +0.000 A 
ATOM     12  C   UNL     1      -2.223  12.671  23.217  0.00  0.00    +0.000 A 
ATOM     13  C   UNL     1      -1.269  11.992  22.451  0.00  0.00    +0.000 A 
ATOM     14  C   UNL     1      -1.401  11.925  21.058  0.00  0.00    +0.000 A 
ATOM     15  C   UNL     1      -2.484  12.571  20.450  0.00  0.00    +0.000 A 
ATOM     16  C   UNL     1      -3.428  13.261  21.216  0.00  0.00    +0.000 A 
BRANCH  11  18
ATOM     17  C   UNL     1      -5.296  13.154  23.845  0.00  0.00    +0.000 C 
ATOM     18  O   UNL     1      -4.177  13.938  23.446  0.00  0.00    +0.000 OA
ENDBRANCH  11  18
ENDBRANCH   1  14
BRANCH   6  19
ATOM     19  C   UNL     1       2.477   6.222  20.098  0.00  0.00    +0.000 C 
ATOM     20  C   UNL     1       2.340   5.078  21.102  0.00  0.00    +0.000 C 
BRANCH  19  21
ATOM     21  O   UNL     1       2.113   5.754  18.798  0.00  0.00    +0.000 OA
BRANCH  21  22
ATOM     22  C   UNL     1       3.101   5.604  17.861  0.00  0.00    +0.000 A 
ATOM     23  C   UNL     1       3.296   4.295  17.408  0.00  0.00    +0.000 A 
ATOM     24  C   UNL     1       4.270   4.003  16.442  0.00  0.00    +0.000 A 
ATOM     25  C   UNL     1       5.050   5.027  15.891  0.00  0.00    +0.000 A 
ATOM     26  C   UNL     1       4.852   6.334  16.346  0.00  0.00    +0.000 A 
ATOM     27  C   UNL     1       3.882   6.623  17.315  0.00  0.00    +0.000 A 
BRANCH  25  28
ATOM     28  C   UNL     1       6.018   4.782  14.836  0.00  0.00    +0.000 A 
ATOM     29  C   UNL     1       5.866   3.897  13.788  0.00  0.00    +0.000 A 
ATOM     30  N   UNL     1       6.967   4.086  13.001  0.00  0.00    +0.000 N 
ATOM     31  C   UNL     1       7.235   3.451  11.738  0.00  0.00    +0.000 C 
ATOM     32  C   UNL     1       7.749   5.027  13.598  0.00  0.00    +0.000 A 
ATOM     33  N   UNL     1       7.200   5.476  14.705  0.00  0.00    +0.000 NA
ENDBRANCH  25  28
ENDBRANCH  21  22
ENDBRANCH  19  21
ENDBRANCH   6  19
TORSDOF 6
ENDMDL
MODEL 9
REMARK VINA RESULT:      -7.5      1.921      2.512
REMARK  Name = 
REMARK  9 active torsions:
REMARK  status: ('A' for Active; 'I' for Inactive)
REMARK    1  A    between atoms: C_1  and  O_2
REMARK    2  A    between atoms: O_2  and  C_3
REMARK    3  A    between atoms: C_6  and  C_7
REMARK    4  A    between atoms: C_12  and  C_14
REMARK    5  A    between atoms: C_14  and  C_15
REMARK    6  A    between atoms: C_14  and  O_16
REMARK    7  A    between atoms: O_16  and  C_17
REMARK    8  A    between atoms: C_20  and  C_21
REMARK    9  A    between atoms: N_23  and  C_24
REMARK                            x       y       z     vdW  Elec       q    Type
REMARK                         _______ _______ _______ _____ _____    ______ ____
ROOT
ATOM      1  C   UNL     1       2.878   6.609  18.764  0.00  0.00    +0.000 A 
ATOM      2  C   UNL     1       2.412   6.123  19.965  0.00  0.00    +0.000 A 
ATOM      3  N   UNL     1       1.741   7.170  20.529  0.00  0.00    +0.000 N 
ATOM      4  C   UNL     1       1.808   8.238  19.669  0.00  0.00    +0.000 A 
ATOM      5  N   UNL     1       1.213   9.432  19.994  0.00  0.00    +0.000 N 
ATOM      6  C   UNL     1       1.224  10.523  19.143  0.00  0.00    +0.000 C 
ATOM      7  O   UNL     1       1.814  10.595  18.064  0.00  0.00    +0.000 OA
ATOM      8  N   UNL     1       2.469   7.907  18.586  0.00  0.00    +0.000 NA
ATOM      9  H   UNL     1       1.271   7.159  21.421  0.00  0.00    +0.000 HD
ATOM     10  H   UNL     1       0.742   9.498  20.881  0.00  0.00    +0.000 HD
ENDROOT
BRANCH   1  14
ATOM     11  C   UNL     1       5.222   4.420  15.955  0.00  0.00    +0.000 A 
ATOM     12  C   UNL     1       4.418   3.751  16.879  0.00  0.00    +0.000 A 
ATOM     13  C   UNL     1       3.631   4.468  17.787  0.00  0.00    +0.000 A 
ATOM     14  C   UNL     1       3.667   5.868  17.801  0.00  0.00    +0.000 A 
ATOM     15  C   UNL     1       4.480   6.532  16.873  0.00  0.00    +0.000 A 
ATOM     16  C   UNL     1       5.254   5.814  15.957  0.00  0.00    +0.000 A 
BRANCH  11  18
ATOM     17  C   UNL     1       6.727   4.310  14.142  0.00  0.00    +0.000 C 
ATOM     18  O   UNL     1       5.960   3.622  15.124  0.00  0.00    +0.000 OA
ENDBRANCH  11  18
ENDBRANCH   1  14
BRANCH   6  19
ATOM     19  C   UNL     1       0.417  11.742  19.648  0.00  0.00    +0.000 C 
ATOM     20  C   UNL     1       0.187  12.797  18.565  0.00  0.00    +0.000 C 
BRANCH  19  21
ATOM     21  O   UNL     1      -0.846  11.298  20.147  0.00  0.00    +0.000 OA
BRANCH  21  22
ATOM     22  C   UNL     1      -1.571  12.153  20.935  0.00  0.00    +0.000 A 
ATOM     23  C   UNL     1      -2.815  12.527  20.417  0.00  0.00    +0.000 A 
ATOM     24  C   UNL     1      -3.660  13.392  21.127  0.00  0.00    +0.000 A 
ATOM     25  C   UNL     1      -3.285  13.875  22.386  0.00  0.00    +0.000 A 
ATOM     26  C   UNL     1      -2.041  13.498  22.900  0.00  0.00    +0.000 A 
ATOM     27  C   UNL     1      -1.194  12.638  22.187  0.00  0.00    +0.000 A 
BRANCH  25  28
ATOM     28  C   UNL     1      -4.160  14.712  23.188  0.00  0.00    +0.000 A 
ATOM     29  C   UNL     1      -3.766  15.777  23.972  0.00  0.00    +0.000 A 
ATOM     30  N   UNL     1      -4.928  16.321  24.443  0.00  0.00    +0.000 N 
ATOM     31  C   UNL     1      -5.053  17.508  25.245  0.00  0.00    +0.000 C 
ATOM     32  C   UNL     1      -5.961  15.569  23.972  0.00  0.00    +0.000 A 
ATOM     33  N   UNL     1      -5.532  14.593  23.202  0.00  0.00    +0.000 NA
ENDBRANCH  25  28
ENDBRANCH  21  22
ENDBRANCH  19  21
ENDBRANCH   6  19
TORSDOF 6
ENDMDL
