MODEL 1
REMARK VINA RESULT:      -8.5      0.000      0.000
REMARK  Name = 
REMARK  6 active torsions:
REMARK  status: ('A' for Active; 'I' for Inactive)
REMARK    1  A    between atoms: C_1  and  N_2
REMARK    2  A    between atoms: C_3  and  C_4
REMARK    3  A    between atoms: C_15  and  C_16
REMARK    4  A    between atoms: N_18  and  C_19
REMARK    5  A    between atoms: C_19  and  C_20
REMARK    6  A    between atoms: C_27  and  O_28
REMARK                            x       y       z     vdW  Elec       q    Type
REMARK                         _______ _______ _______ _____ _____    ______ ____
ROOT
ATOM      1  C   UNL     1       3.646   6.976  17.124  0.00  0.00    +0.000 C 
ATOM      2  N   UNL     1       2.748   7.161  18.255  0.00  0.00    +0.000 N 
ATOM      3  C   UNL     1       2.424   6.194  19.202  0.00  0.00    +0.000 A 
ATOM      4  N   UNL     1       1.759   6.481  20.284  0.00  0.00    +0.000 NA
ATOM      5  C   UNL     1       1.320   7.794  20.506  0.00  0.00    +0.000 A 
ATOM      6  C   UNL     1       0.646   8.069  21.698  0.00  0.00    +0.000 A 
ATOM      7  C   UNL     1       0.164   9.347  21.986  0.00  0.00    +0.000 A 
ATOM      8  C   UNL     1       0.351  10.377  21.059  0.00  0.00    +0.000 A 
ATOM      9  C   UNL     1       1.010  10.109  19.846  0.00  0.00    +0.000 A 
ATOM     10  C   UNL     1       1.506   8.820  19.582  0.00  0.00    +0.000 A 
ATOM     11  C   UNL     1       2.264   8.474  18.359  0.00  0.00    +0.000 A 
ATOM     12  O   UNL     1       2.469   9.306  17.473  0.00  0.00    +0.000 OA
ENDROOT
BRANCH   3  13
ATOM     13  C   UNL     1       2.839   4.763  19.031  0.00  0.00    +0.000 A 
ATOM     14  C   UNL     1       2.043   3.924  18.229  0.00  0.00    +0.000 A 
ATOM     15  C   UNL     1       2.404   2.590  18.021  0.00  0.00    +0.000 A 
ATOM     16  C   UNL     1       3.551   2.089  18.625  0.00  0.00    +0.000 A 
ATOM     17  F   UNL     1       3.887   0.805  18.447  0.00  0.00    +0.000 F 
ATOM     18  C   UNL     1       4.365   2.909  19.396  0.00  0.00    +0.000 A 
ATOM     19  C   UNL     1       4.031   4.256  19.564  0.00  0.00    +0.000 A 
ENDBRANCH   3  13
BRANCH   8  20
ATOM     20  C   UNL     1      -0.164  11.752  21.312  0.00  0.00    +0.000 C 
ATOM     21  O   UNL     1       0.630  12.624  21.657  0.00  0.00    +0.000 OA
ATOM     22  N   UNL     1      -1.518  11.964  21.197  0.00  0.00    +0.000 N 
ATOM     23  H   UNL     1      -2.151  11.189  21.066  0.00  0.00    +0.000 HD
BRANCH  22  24
ATOM     24  C   UNL     1      -2.103  13.249  21.523  0.00  0.00    +0.000 C 
BRANCH  24  25
ATOM     25  C   UNL     1      -3.344  13.094  22.361  0.00  0.00    +0.000 A 
ATOM     26  C   UNL     1      -4.617  13.248  21.790  0.00  0.00    +0.000 A 
ATOM     27  C   UNL     1      -5.764  13.055  22.559  0.00  0.00    +0.000 A 
ATOM     28  C   UNL     1      -5.642  12.708  23.900  0.00  0.00    +0.000 A 
ATOM     29  F   UNL     1      -6.746  12.515  24.633  0.00  0.00    +0.000 F 
ATOM     30  C   UNL     1      -4.393  12.552  24.487  0.00  0.00    +0.000 A 
ATOM     31  C   UNL     1      -3.243  12.742  23.719  0.00  0.00    +0.000 A 
ENDBRANCH  24  25
ENDBRANCH  22  24
ENDBRANCH   8  20
BRANCH   9  32
ATOM     32  O   UNL     1       1.191  11.100  18.916  0.00  0.00    +0.000 OA
ATOM     33  H   UNL     1       1.824  11.768  19.266  0.00  0.00    +0.000 HD
ENDBRANCH   9  32
TORSDOF 5
ENDMDL
MODEL 2
REMARK VINA RESULT:      -8.4      1.955     10.238
REMARK  Name = 
REMARK  6 active torsions:
REMARK  status: ('A' for Active; 'I' for Inactive)
REMARK    1  A    between atoms: C_1  and  N_2
REMARK    2  A    between atoms: C_3  and  C_4
REMARK    3  A    between atoms: C_15  and  C_16
REMARK    4  A    between atoms: N_18  and  C_19
REMARK    5  A    between atoms: C_19  and  C_20
REMARK    6  A    between atoms: C_27  and  O_28
REMARK                            x       y       z     vdW  Elec       q    Type
REMARK                         _______ _______ _______ _____ _____    ______ ____
ROOT
ATOM      1  C   UNL     1      -2.176  13.136  23.344  0.00  0.00    +0.000 C 
ATOM      2  N   UNL     1      -2.130  12.505  22.032  0.00  0.00    +0.000 N 
ATOM      3  C   UNL     1      -2.989  12.776  20.970  0.00  0.00    +0.000 A 
ATOM      4  N   UNL     1      -2.777  12.308  19.774  0.00  0.00    +0.000 NA
ATOM      5  C   UNL     1      -1.673  11.477  19.534  0.00  0.00    +0.000 A 
ATOM      6  C   UNL     1      -1.459  11.029  18.229  0.00  0.00    +0.000 A 
ATOM      7  C   UNL     1      -0.392  10.187  17.912  0.00  0.00    +0.000 A 
ATOM      8  C   UNL     1       0.481   9.774  18.924  0.00  0.00    +0.000 A 
ATOM      9  C   UNL     1       0.265  10.201  20.246  0.00  0.00    +0.000 A 
ATOM     10  C   UNL     1      -0.804  11.066  20.542  0.00  0.00    +0.000 A 
ATOM     11  C   UNL     1      -1.060  11.608  21.895  0.00  0.00    +0.000 A 
ATOM     12  O   UNL     1      -0.359  11.293  22.858  0.00  0.00    +0.000 OA
ENDROOT
BRANCH   3  13
ATOM     13  C   UNL     1      -4.202  13.640  21.147  0.00  0.00    +0.000 A 
ATOM     14  C   UNL     1      -5.401  13.035  21.567  0.00  0.00    +0.000 A 
ATOM     15  C   UNL     1      -6.551  13.803  21.769  0.00  0.00    +0.000 A 
ATOM     16  C   UNL     1      -6.508  15.173  21.537  0.00  0.00    +0.000 A 
ATOM     17  F   UNL     1      -7.614  15.908  21.706  0.00  0.00    +0.000 F 
ATOM     18  C   UNL     1      -5.327  15.792  21.150  0.00  0.00    +0.000 A 
ATOM     19  C   UNL     1      -4.163  15.032  20.996  0.00  0.00    +0.000 A 
ENDBRANCH   3  13
BRANCH   8  20
ATOM     20  C   UNL     1       1.622   8.858  18.638  0.00  0.00    +0.000 C 
ATOM     21  O   UNL     1       2.252   9.012  17.594  0.00  0.00    +0.000 OA
ATOM     22  N   UNL     1       1.881   7.850  19.537  0.00  0.00    +0.000 N 
ATOM     23  H   UNL     1       1.244   7.664  20.297  0.00  0.00    +0.000 HD
BRANCH  22  24
ATOM     24  C   UNL     1       2.909   6.864  19.277  0.00  0.00    +0.000 C 
BRANCH  24  25
ATOM     25  C   UNL     1       2.326   5.484  19.126  0.00  0.00    +0.000 A 
ATOM     26  C   UNL     1       1.709   4.845  20.212  0.00  0.00    +0.000 A 
ATOM     27  C   UNL     1       1.126   3.588  20.054  0.00  0.00    +0.000 A 
ATOM     28  C   UNL     1       1.160   2.967  18.811  0.00  0.00    +0.000 A 
ATOM     29  F   UNL     1       0.592   1.763  18.660  0.00  0.00    +0.000 F 
ATOM     30  C   UNL     1       1.767   3.579  17.721  0.00  0.00    +0.000 A 
ATOM     31  C   UNL     1       2.347   4.839  17.877  0.00  0.00    +0.000 A 
ENDBRANCH  24  25
ENDBRANCH  22  24
ENDBRANCH   8  20
BRANCH   9  32
ATOM     32  O   UNL     1       1.100   9.796  21.255  0.00  0.00    +0.000 OA
ATOM     33  H   UNL     1       1.664   9.055  20.938  0.00  0.00    +0.000 HD
ENDBRANCH   9  32
TORSDOF 5
ENDMDL
MODEL 3
REMARK VINA RESULT:      -8.3      2.082     10.310
REMARK  Name = 
REMARK  6 active torsions:
REMARK  status: ('A' for Active; 'I' for Inactive)
REMARK    1  A    between atoms: C_1  and  N_2
REMARK    2  A    between atoms: C_3  and  C_4
REMARK    3  A    between atoms: C_15  and  C_16
REMARK    4  A    between atoms: N_18  and  C_19
REMARK    5  A    between atoms: C_19  and  C_20
REMARK    6  A    between atoms: C_27  and  O_28
REMARK                            x       y       z     vdW  Elec       q    Type
REMARK                         _______ _______ _______ _____ _____    ______ ____
ROOT
ATOM      1  C   UNL     1      -5.166  12.445  18.987  0.00  0.00    +0.000 C 
ATOM      2  N   UNL     1      -3.828  12.345  19.553  0.00  0.00    +0.000 N 
ATOM      3  C   UNL     1      -3.425  12.862  20.782  0.00  0.00    +0.000 A 
ATOM      4  N   UNL     1      -2.267  12.580  21.304  0.00  0.00    +0.000 NA
ATOM      5  C   UNL     1      -1.369  11.758  20.609  0.00  0.00    +0.000 A 
ATOM      6  C   UNL     1      -0.153  11.447  21.221  0.00  0.00    +0.000 A 
ATOM      7  C   UNL     1       0.800  10.647  20.588  0.00  0.00    +0.000 A 
ATOM      8  C   UNL     1       0.539  10.151  19.307  0.00  0.00    +0.000 A 
ATOM      9  C   UNL     1      -0.673  10.473  18.670  0.00  0.00    +0.000 A 
ATOM     10  C   UNL     1      -1.629  11.264  19.333  0.00  0.00    +0.000 A 
ATOM     11  C   UNL     1      -2.951  11.594  18.756  0.00  0.00    +0.000 A 
ATOM     12  O   UNL     1      -3.272  11.219  17.626  0.00  0.00    +0.000 OA
ENDROOT
BRANCH   3  13
ATOM     13  C   UNL     1      -4.318  13.764  21.581  0.00  0.00    +0.000 A 
ATOM     14  C   UNL     1      -4.351  15.133  21.257  0.00  0.00    +0.000 A 
ATOM     15  C   UNL     1      -5.187  16.008  21.958  0.00  0.00    +0.000 A 
ATOM     16  C   UNL     1      -5.978  15.519  22.990  0.00  0.00    +0.000 A 
ATOM     17  F   UNL     1      -6.761  16.358  23.679  0.00  0.00    +0.000 F 
ATOM     18  C   UNL     1      -5.980  14.166  23.305  0.00  0.00    +0.000 A 
ATOM     19  C   UNL     1      -5.182  13.282  22.572  0.00  0.00    +0.000 A 
ENDBRANCH   3  13
BRANCH   8  20
ATOM     20  C   UNL     1       1.535   9.311  18.582  0.00  0.00    +0.000 C 
ATOM     21  O   UNL     1       1.955   9.703  17.496  0.00  0.00    +0.000 OA
ATOM     22  N   UNL     1       1.896   8.109  19.145  0.00  0.00    +0.000 N 
ATOM     23  H   UNL     1       1.410   7.755  19.955  0.00  0.00    +0.000 HD
BRANCH  22  24
ATOM     24  C   UNL     1       2.782   7.197  18.452  0.00  0.00    +0.000 C 
BRANCH  24  25
ATOM     25  C   UNL     1       2.441   5.761  18.751  0.00  0.00    +0.000 A 
ATOM     26  C   UNL     1       2.043   5.374  20.040  0.00  0.00    +0.000 A 
ATOM     27  C   UNL     1       1.680   4.053  20.300  0.00  0.00    +0.000 A 
ATOM     28  C   UNL     1       1.716   3.116  19.274  0.00  0.00    +0.000 A 
ATOM     29  F   UNL     1       1.360   1.849  19.525  0.00  0.00    +0.000 F 
ATOM     30  C   UNL     1       2.110   3.475  17.991  0.00  0.00    +0.000 A 
ATOM     31  C   UNL     1       2.469   4.798  17.727  0.00  0.00    +0.000 A 
ENDBRANCH  24  25
ENDBRANCH  22  24
ENDBRANCH   8  20
BRANCH   9  32
ATOM     32  O   UNL     1      -0.943  10.010  17.409  0.00  0.00    +0.000 OA
ATOM     33  H   UNL     1      -1.011   9.029  17.426  0.00  0.00    +0.000 HD
ENDBRANCH   9  32
TORSDOF 5
ENDMDL
MODEL 4
REMARK VINA RESULT:      -8.2      2.483     10.314
REMARK  Name = 
REMARK  6 active torsions:
REMARK  status: ('A' for Active; 'I' for Inactive)
REMARK    1  A    between atoms: C_1  and  N_2
REMARK    2  A    between atoms: C_3  and  C_4
REMARK    3  A    between atoms: C_15  and  C_16
REMARK    4  A    between atoms: N_18  and  C_19
REMARK    5  A    between atoms: C_19  and  C_20
REMARK    6  A    between atoms: C_27  and  O_28
REMARK                            x       y       z     vdW  Elec       q    Type
REMARK                         _______ _______ _______ _____ _____    ______ ____
ROOT
ATOM      1  C   UNL     1      -2.402  12.876  19.851  0.00  0.00    +0.000 C 
ATOM      2  N   UNL     1      -1.428  11.959  20.426  0.00  0.00    +0.000 N 
ATOM      3  C   UNL     1      -1.220  11.743  21.786  0.00  0.00    +0.000 A 
ATOM      4  N   UNL     1      -0.462  10.780  22.225  0.00  0.00    +0.000 NA
ATOM      5  C   UNL     1       0.200   9.942  21.316  0.00  0.00    +0.000 A 
ATOM      6  C   UNL     1       0.971   8.897  21.827  0.00  0.00    +0.000 A 
ATOM      7  C   UNL     1       1.672   8.029  20.989  0.00  0.00    +0.000 A 
ATOM      8  C   UNL     1       1.611   8.213  19.604  0.00  0.00    +0.000 A 
ATOM      9  C   UNL     1       0.855   9.274  19.076  0.00  0.00    +0.000 A 
ATOM     10  C   UNL     1       0.139  10.126  19.936  0.00  0.00    +0.000 A 
ATOM     11  C   UNL     1      -0.728  11.225  19.456  0.00  0.00    +0.000 A 
ATOM     12  O   UNL     1      -0.837  11.480  18.255  0.00  0.00    +0.000 OA
ENDROOT
BRANCH   3  13
ATOM     13  C   UNL     1      -1.875  12.606  22.823  0.00  0.00    +0.000 A 
ATOM     14  C   UNL     1      -1.220  13.783  23.228  0.00  0.00    +0.000 A 
ATOM     15  C   UNL     1      -1.804  14.632  24.174  0.00  0.00    +0.000 A 
ATOM     16  C   UNL     1      -3.034  14.296  24.725  0.00  0.00    +0.000 A 
ATOM     17  F   UNL     1      -3.585  15.094  25.649  0.00  0.00    +0.000 F 
ATOM     18  C   UNL     1      -3.710  13.153  24.318  0.00  0.00    +0.000 A 
ATOM     19  C   UNL     1      -3.149  12.330  23.335  0.00  0.00    +0.000 A 
ENDBRANCH   3  13
BRANCH   8  20
ATOM     20  C   UNL     1       2.360   7.325  18.669  0.00  0.00    +0.000 C 
ATOM     21  O   UNL     1       2.113   6.122  18.676  0.00  0.00    +0.000 OA
ATOM     22  N   UNL     1       3.331   7.895  17.878  0.00  0.00    +0.000 N 
ATOM     23  H   UNL     1       3.609   8.854  18.017  0.00  0.00    +0.000 HD
BRANCH  22  24
ATOM     24  C   UNL     1       4.165   7.080  17.019  0.00  0.00    +0.000 C 
BRANCH  24  25
ATOM     25  C   UNL     1       5.405   6.614  17.734  0.00  0.00    +0.000 A 
ATOM     26  C   UNL     1       5.358   5.516  18.607  0.00  0.00    +0.000 A 
ATOM     27  C   UNL     1       6.520   5.057  19.228  0.00  0.00    +0.000 A 
ATOM     28  C   UNL     1       7.730   5.694  18.979  0.00  0.00    +0.000 A 
ATOM     29  F   UNL     1       8.845   5.245  19.571  0.00  0.00    +0.000 F 
ATOM     30  C   UNL     1       7.801   6.783  18.120  0.00  0.00    +0.000 A 
ATOM     31  C   UNL     1       6.640   7.243  17.495  0.00  0.00    +0.000 A 
ENDBRANCH  24  25
ENDBRANCH  22  24
ENDBRANCH   8  20
BRANCH   9  32
ATOM     32  O   UNL     1       0.793   9.482  17.723  0.00  0.00    +0.000 OA
ATOM     33  H   UNL     1       1.423   8.878  17.268  0.00  0.00    +0.000 HD
ENDBRANCH   9  32
TORSDOF 5
ENDMDL
MODEL 5
REMARK VINA RESULT:      -8.2      1.824      9.987
REMARK  Name = 
REMARK  6 active torsions:
REMARK  status: ('A' for Active; 'I' for Inactive)
REMARK    1  A    between atoms: C_1  and  N_2
REMARK    2  A    between atoms: C_3  and  C_4
REMARK    3  A    between atoms: C_15  and  C_16
REMARK    4  A    between atoms: N_18  and  C_19
REMARK    5  A    between atoms: C_19  and  C_20
REMARK    6  A    between atoms: C_27  and  O_28
REMARK                            x       y       z     vdW  Elec       q    Type
REMARK                         _______ _______ _______ _____ _____    ______ ____
ROOT
ATOM      1  C   UNL     1      -1.106  14.550  20.159  0.00  0.00    +0.000 C 
ATOM      2  N   UNL     1      -0.746  13.290  20.794  0.00  0.00    +0.000 N 
ATOM      3  C   UNL     1      -1.185  12.854  22.041  0.00  0.00    +0.000 A 
ATOM      4  N   UNL     1      -0.969  11.643  22.466  0.00  0.00    +0.000 NA
ATOM      5  C   UNL     1      -0.247  10.742  21.670  0.00  0.00    +0.000 A 
ATOM      6  C   UNL     1      -0.072   9.441  22.144  0.00  0.00    +0.000 A 
ATOM      7  C   UNL     1       0.648   8.490  21.418  0.00  0.00    +0.000 A 
ATOM      8  C   UNL     1       1.216   8.848  20.191  0.00  0.00    +0.000 A 
ATOM      9  C   UNL     1       1.064  10.161  19.712  0.00  0.00    +0.000 A 
ATOM     10  C   UNL     1       0.319  11.099  20.448  0.00  0.00    +0.000 A 
ATOM     11  C   UNL     1       0.063  12.480  19.982  0.00  0.00    +0.000 A 
ATOM     12  O   UNL     1       0.532  12.899  18.922  0.00  0.00    +0.000 OA
ENDROOT
BRANCH   3  13
ATOM     13  C   UNL     1      -1.948  13.760  22.961  0.00  0.00    +0.000 A 
ATOM     14  C   UNL     1      -3.350  13.647  23.004  0.00  0.00    +0.000 A 
ATOM     15  C   UNL     1      -4.101  14.454  23.864  0.00  0.00    +0.000 A 
ATOM     16  C   UNL     1      -3.453  15.383  24.670  0.00  0.00    +0.000 A 
ATOM     17  F   UNL     1      -4.172  16.174  25.478  0.00  0.00    +0.000 F 
ATOM     18  C   UNL     1      -2.069  15.489  24.663  0.00  0.00    +0.000 A 
ATOM     19  C   UNL     1      -1.313  14.649  23.839  0.00  0.00    +0.000 A 
ENDBRANCH   3  13
BRANCH   8  20
ATOM     20  C   UNL     1       2.011   7.873  19.390  0.00  0.00    +0.000 C 
ATOM     21  O   UNL     1       1.908   7.895  18.166  0.00  0.00    +0.000 OA
ATOM     22  N   UNL     1       2.785   6.961  20.069  0.00  0.00    +0.000 N 
ATOM     23  H   UNL     1       2.719   6.876  21.072  0.00  0.00    +0.000 HD
BRANCH  22  24
ATOM     24  C   UNL     1       3.507   5.923  19.362  0.00  0.00    +0.000 C 
BRANCH  24  25
ATOM     25  C   UNL     1       2.663   4.689  19.180  0.00  0.00    +0.000 A 
ATOM     26  C   UNL     1       1.654   4.370  20.102  0.00  0.00    +0.000 A 
ATOM     27  C   UNL     1       0.842   3.253  19.902  0.00  0.00    +0.000 A 
ATOM     28  C   UNL     1       1.037   2.454  18.782  0.00  0.00    +0.000 A 
ATOM     29  F   UNL     1       0.251   1.387  18.589  0.00  0.00    +0.000 F 
ATOM     30  C   UNL     1       2.031   2.749  17.857  0.00  0.00    +0.000 A 
ATOM     31  C   UNL     1       2.842   3.868  18.053  0.00  0.00    +0.000 A 
ENDBRANCH  24  25
ENDBRANCH  22  24
ENDBRANCH   8  20
BRANCH   9  32
ATOM     32  O   UNL     1       1.626  10.537  18.519  0.00  0.00    +0.000 OA
ATOM     33  H   UNL     1       1.398   9.878  17.825  0.00  0.00    +0.000 HD
ENDBRANCH   9  32
TORSDOF 5
ENDMDL
MODEL 6
REMARK VINA RESULT:      -8.2      3.079     10.799
REMARK  Name = 
REMARK  6 active torsions:
REMARK  status: ('A' for Active; 'I' for Inactive)
REMARK    1  A    between atoms: C_1  and  N_2
REMARK    2  A    between atoms: C_3  and  C_4
REMARK    3  A    between atoms: C_15  and  C_16
REMARK    4  A    between atoms: N_18  and  C_19
REMARK    5  A    between atoms: C_19  and  C_20
REMARK    6  A    between atoms: C_27  and  O_28
REMARK                            x       y       z     vdW  Elec       q    Type
REMARK                         _______ _______ _______ _____ _____    ______ ____
ROOT
ATOM      1  C   UNL     1      -0.573  10.809  22.892  0.00  0.00    +0.000 C 
ATOM      2  N   UNL     1      -0.139  10.508  21.535  0.00  0.00    +0.000 N 
ATOM      3  C   UNL     1      -0.217  11.372  20.447  0.00  0.00    +0.000 A 
ATOM      4  N   UNL     1       0.353  11.103  19.308  0.00  0.00    +0.000 NA
ATOM      5  C   UNL     1       1.046   9.894  19.142  0.00  0.00    +0.000 A 
ATOM      6  C   UNL     1       1.677   9.661  17.919  0.00  0.00    +0.000 A 
ATOM      7  C   UNL     1       2.373   8.477  17.671  0.00  0.00    +0.000 A 
ATOM      8  C   UNL     1       2.435   7.495  18.664  0.00  0.00    +0.000 A 
ATOM      9  C   UNL     1       1.786   7.708  19.893  0.00  0.00    +0.000 A 
ATOM     10  C   UNL     1       1.106   8.916  20.132  0.00  0.00    +0.000 A 
ATOM     11  C   UNL     1       0.453   9.241  21.420  0.00  0.00    +0.000 A 
ATOM     12  O   UNL     1       0.436   8.436  22.353  0.00  0.00    +0.000 OA
ENDROOT
BRANCH   3  13
ATOM     13  C   UNL     1      -0.954  12.675  20.535  0.00  0.00    +0.000 A 
ATOM     14  C   UNL     1      -2.354  12.646  20.671  0.00  0.00    +0.000 A 
ATOM     15  C   UNL     1      -3.082  13.835  20.781  0.00  0.00    +0.000 A 
ATOM     16  C   UNL     1      -2.412  15.052  20.741  0.00  0.00    +0.000 A 
ATOM     17  F   UNL     1      -3.108  16.194  20.823  0.00  0.00    +0.000 F 
ATOM     18  C   UNL     1      -1.028  15.101  20.637  0.00  0.00    +0.000 A 
ATOM     19  C   UNL     1      -0.296  13.911  20.576  0.00  0.00    +0.000 A 
ENDBRANCH   3  13
BRANCH   8  20
ATOM     20  C   UNL     1       3.148   6.205  18.438  0.00  0.00    +0.000 C 
ATOM     21  O   UNL     1       2.482   5.186  18.277  0.00  0.00    +0.000 OA
ATOM     22  N   UNL     1       4.523   6.215  18.472  0.00  0.00    +0.000 N 
ATOM     23  H   UNL     1       5.024   7.040  18.763  0.00  0.00    +0.000 HD
BRANCH  22  24
ATOM     24  C   UNL     1       5.280   4.985  18.358  0.00  0.00    +0.000 C 
BRANCH  24  25
ATOM     25  C   UNL     1       5.748   4.753  16.946  0.00  0.00    +0.000 A 
ATOM     26  C   UNL     1       4.924   4.099  16.017  0.00  0.00    +0.000 A 
ATOM     27  C   UNL     1       5.343   3.932  14.697  0.00  0.00    +0.000 A 
ATOM     28  C   UNL     1       6.585   4.416  14.303  0.00  0.00    +0.000 A 
ATOM     29  F   UNL     1       6.981   4.260  13.033  0.00  0.00    +0.000 F 
ATOM     30  C   UNL     1       7.418   5.065  15.205  0.00  0.00    +0.000 A 
ATOM     31  C   UNL     1       7.000   5.237  16.526  0.00  0.00    +0.000 A 
ENDBRANCH  24  25
ENDBRANCH  22  24
ENDBRANCH   8  20
BRANCH   9  32
ATOM     32  O   UNL     1       1.820   6.753  20.876  0.00  0.00    +0.000 OA
ATOM     33  H   UNL     1       2.510   6.085  20.661  0.00  0.00    +0.000 HD
ENDBRANCH   9  32
TORSDOF 5
ENDMDL
MODEL 7
REMARK VINA RESULT:      -8.2      3.038     10.842
REMARK  Name = 
REMARK  6 active torsions:
REMARK  status: ('A' for Active; 'I' for Inactive)
REMARK    1  A    between atoms: C_1  and  N_2
REMARK    2  A    between atoms: C_3  and  C_4
REMARK    3  A    between atoms: C_15  and  C_16
REMARK    4  A    between atoms: N_18  and  C_19
REMARK    5  A    between atoms: C_19  and  C_20
REMARK    6  A    between atoms: C_27  and  O_28
REMARK                            x       y       z     vdW  Elec       q    Type
REMARK                         _______ _______ _______ _____ _____    ______ ____
ROOT
ATOM      1  C   UNL     1      -0.727  10.809  23.026  0.00  0.00    +0.000 C 
ATOM      2  N   UNL     1      -0.294  10.518  21.666  0.00  0.00    +0.000 N 
ATOM      3  C   UNL     1      -0.418  11.372  20.574  0.00  0.00    +0.000 A 
ATOM      4  N   UNL     1       0.151  11.120  19.431  0.00  0.00    +0.000 NA
ATOM      5  C   UNL     1       0.891   9.941  19.265  0.00  0.00    +0.000 A 
ATOM      6  C   UNL     1       1.520   9.727  18.036  0.00  0.00    +0.000 A 
ATOM      7  C   UNL     1       2.262   8.571  17.787  0.00  0.00    +0.000 A 
ATOM      8  C   UNL     1       2.374   7.598  18.785  0.00  0.00    +0.000 A 
ATOM      9  C   UNL     1       1.729   7.791  20.020  0.00  0.00    +0.000 A 
ATOM     10  C   UNL     1       1.002   8.971  20.259  0.00  0.00    +0.000 A 
ATOM     11  C   UNL     1       0.349   9.276  21.551  0.00  0.00    +0.000 A 
ATOM     12  O   UNL     1       0.374   8.476  22.489  0.00  0.00    +0.000 OA
ENDROOT
BRANCH   3  13
ATOM     13  C   UNL     1      -1.207  12.644  20.663  0.00  0.00    +0.000 A 
ATOM     14  C   UNL     1      -0.509  13.865  20.711  0.00  0.00    +0.000 A 
ATOM     15  C   UNL     1      -1.203  15.078  20.769  0.00  0.00    +0.000 A 
ATOM     16  C   UNL     1      -2.592  15.070  20.795  0.00  0.00    +0.000 A 
ATOM     17  F   UNL     1      -3.259  16.229  20.875  0.00  0.00    +0.000 F 
ATOM     18  C   UNL     1      -3.299  13.877  20.720  0.00  0.00    +0.000 A 
ATOM     19  C   UNL     1      -2.607  12.667  20.612  0.00  0.00    +0.000 A 
ENDBRANCH   3  13
BRANCH   8  20
ATOM     20  C   UNL     1       3.137   6.338  18.558  0.00  0.00    +0.000 C 
ATOM     21  O   UNL     1       2.524   5.273  18.550  0.00  0.00    +0.000 OA
ATOM     22  N   UNL     1       4.502   6.427  18.419  0.00  0.00    +0.000 N 
ATOM     23  H   UNL     1       4.980   7.300  18.589  0.00  0.00    +0.000 HD
BRANCH  22  24
ATOM     24  C   UNL     1       5.319   5.238  18.294  0.00  0.00    +0.000 C 
BRANCH  24  25
ATOM     25  C   UNL     1       5.728   4.996  16.865  0.00  0.00    +0.000 A 
ATOM     26  C   UNL     1       7.017   5.331  16.424  0.00  0.00    +0.000 A 
ATOM     27  C   UNL     1       7.408   5.059  15.112  0.00  0.00    +0.000 A 
ATOM     28  C   UNL     1       6.511   4.454  14.240  0.00  0.00    +0.000 A 
ATOM     29  F   UNL     1       6.891   4.187  12.984  0.00  0.00    +0.000 F 
ATOM     30  C   UNL     1       5.229   4.115  14.654  0.00  0.00    +0.000 A 
ATOM     31  C   UNL     1       4.837   4.383  15.967  0.00  0.00    +0.000 A 
ENDBRANCH  24  25
ENDBRANCH  22  24
ENDBRANCH   8  20
BRANCH   9  32
ATOM     32  O   UNL     1       1.812   6.843  21.006  0.00  0.00    +0.000 OA
ATOM     33  H   UNL     1       2.623   6.996  21.542  0.00  0.00    +0.000 HD
ENDBRANCH   9  32
TORSDOF 5
ENDMDL
MODEL 8
REMARK VINA RESULT:      -8.1      0.804      1.273
REMARK  Name = 
REMARK  6 active torsions:
REMARK  status: ('A' for Active; 'I' for Inactive)
REMARK    1  A    between atoms: C_1  and  N_2
REMARK    2  A    between atoms: C_3  and  C_4
REMARK    3  A    between atoms: C_15  and  C_16
REMARK    4  A    between atoms: N_18  and  C_19
REMARK    5  A    between atoms: C_19  and  C_20
REMARK    6  A    between atoms: C_27  and  O_28
REMARK                            x       y       z     vdW  Elec       q    Type
REMARK                         _______ _______ _______ _____ _____    ______ ____
ROOT
ATOM      1  C   UNL     1       3.756   6.801  17.144  0.00  0.00    +0.000 C 
ATOM      2  N   UNL     1       2.800   6.958  18.232  0.00  0.00    +0.000 N 
ATOM      3  C   UNL     1       2.454   5.976  19.157  0.00  0.00    +0.000 A 
ATOM      4  N   UNL     1       1.732   6.240  20.207  0.00  0.00    +0.000 NA
ATOM      5  C   UNL     1       1.252   7.541  20.416  0.00  0.00    +0.000 A 
ATOM      6  C   UNL     1       0.515   7.791  21.575  0.00  0.00    +0.000 A 
ATOM      7  C   UNL     1      -0.010   9.056  21.847  0.00  0.00    +0.000 A 
ATOM      8  C   UNL     1       0.197  10.096  20.936  0.00  0.00    +0.000 A 
ATOM      9  C   UNL     1       0.919   9.853  19.755  0.00  0.00    +0.000 A 
ATOM     10  C   UNL     1       1.458   8.577  19.508  0.00  0.00    +0.000 A 
ATOM     11  C   UNL     1       2.281   8.258  18.320  0.00  0.00    +0.000 A 
ATOM     12  O   UNL     1       2.508   9.101  17.450  0.00  0.00    +0.000 OA
ENDROOT
BRANCH   3  13
ATOM     13  C   UNL     1       2.911   4.557  18.998  0.00  0.00    +0.000 A 
ATOM     14  C   UNL     1       2.210   3.722  18.108  0.00  0.00    +0.000 A 
ATOM     15  C   UNL     1       2.614   2.398  17.908  0.00  0.00    +0.000 A 
ATOM     16  C   UNL     1       3.709   1.905  18.608  0.00  0.00    +0.000 A 
ATOM     17  F   UNL     1       4.084   0.631  18.437  0.00  0.00    +0.000 F 
ATOM     18  C   UNL     1       4.431   2.721  19.469  0.00  0.00    +0.000 A 
ATOM     19  C   UNL     1       4.057   4.059  19.631  0.00  0.00    +0.000 A 
ENDBRANCH   3  13
BRANCH   8  20
ATOM     20  C   UNL     1      -0.363  11.458  21.173  0.00  0.00    +0.000 C 
ATOM     21  O   UNL     1       0.002  12.078  22.168  0.00  0.00    +0.000 OA
ATOM     22  N   UNL     1      -1.303  11.931  20.287  0.00  0.00    +0.000 N 
ATOM     23  H   UNL     1      -1.688  11.328  19.576  0.00  0.00    +0.000 HD
BRANCH  22  24
ATOM     24  C   UNL     1      -1.962  13.202  20.507  0.00  0.00    +0.000 C 
BRANCH  24  25
ATOM     25  C   UNL     1      -3.375  13.015  20.992  0.00  0.00    +0.000 A 
ATOM     26  C   UNL     1      -3.696  13.189  22.347  0.00  0.00    +0.000 A 
ATOM     27  C   UNL     1      -5.015  13.064  22.782  0.00  0.00    +0.000 A 
ATOM     28  C   UNL     1      -6.015  12.764  21.865  0.00  0.00    +0.000 A 
ATOM     29  F   UNL     1      -7.283  12.652  22.285  0.00  0.00    +0.000 F 
ATOM     30  C   UNL     1      -5.722  12.585  20.520  0.00  0.00    +0.000 A 
ATOM     31  C   UNL     1      -4.403  12.713  20.081  0.00  0.00    +0.000 A 
ENDBRANCH  24  25
ENDBRANCH  22  24
ENDBRANCH   8  20
BRANCH   9  32
ATOM     32  O   UNL     1       1.121  10.854  18.841  0.00  0.00    +0.000 OA
ATOM     33  H   UNL     1       1.607  10.497  18.063  0.00  0.00    +0.000 HD
ENDBRANCH   9  32
TORSDOF 5
ENDMDL
MODEL 9
REMARK VINA RESULT:      -8.1      2.007     10.322
REMARK  Name = 
REMARK  6 active torsions:
REMARK  status: ('A' for Active; 'I' for Inactive)
REMARK    1  A    between atoms: C_1  and  N_2
REMARK    2  A    between atoms: C_3  and  C_4
REMARK    3  A    between atoms: C_15  and  C_16
REMARK    4  A    between atoms: N_18  and  C_19
REMARK    5  A    between atoms: C_19  and  C_20
REMARK    6  A    between atoms: C_27  and  O_28
REMARK                            x       y       z     vdW  Elec       q    Type
REMARK                         _______ _______ _______ _____ _____    ______ ____
ROOT
ATOM      1  C   UNL     1      -2.249  13.684  23.203  0.00  0.00    +0.000 C 
ATOM      2  N   UNL     1      -2.284  12.923  21.961  0.00  0.00    +0.000 N 
ATOM      3  C   UNL     1      -3.260  13.024  20.975  0.00  0.00    +0.000 A 
ATOM      4  N   UNL     1      -3.133  12.448  19.814  0.00  0.00    +0.000 NA
ATOM      5  C   UNL     1      -1.997  11.672  19.541  0.00  0.00    +0.000 A 
ATOM      6  C   UNL     1      -1.878  11.105  18.271  0.00  0.00    +0.000 A 
ATOM      7  C   UNL     1      -0.785  10.308  17.926  0.00  0.00    +0.000 A 
ATOM      8  C   UNL     1       0.212  10.062  18.875  0.00  0.00    +0.000 A 
ATOM      9  C   UNL     1       0.095  10.610  20.165  0.00  0.00    +0.000 A 
ATOM     10  C   UNL     1      -1.003  11.427  20.487  0.00  0.00    +0.000 A 
ATOM     11  C   UNL     1      -1.166  12.090  21.800  0.00  0.00    +0.000 A 
ATOM     12  O   UNL     1      -0.351  11.925  22.710  0.00  0.00    +0.000 OA
ENDROOT
BRANCH   3  13
ATOM     13  C   UNL     1      -4.513  13.818  21.193  0.00  0.00    +0.000 A 
ATOM     14  C   UNL     1      -4.508  15.185  20.858  0.00  0.00    +0.000 A 
ATOM     15  C   UNL     1      -5.660  15.960  21.022  0.00  0.00    +0.000 A 
ATOM     16  C   UNL     1      -6.812  15.374  21.533  0.00  0.00    +0.000 A 
ATOM     17  F   UNL     1      -7.910  16.119  21.714  0.00  0.00    +0.000 F 
ATOM     18  C   UNL     1      -6.845  14.021  21.843  0.00  0.00    +0.000 A 
ATOM     19  C   UNL     1      -5.708  13.234  21.633  0.00  0.00    +0.000 A 
ENDBRANCH   3  13
BRANCH   8  20
ATOM     20  C   UNL     1       1.387   9.199  18.561  0.00  0.00    +0.000 C 
ATOM     21  O   UNL     1       2.043   9.444  17.552  0.00  0.00    +0.000 OA
ATOM     22  N   UNL     1       1.647   8.136  19.394  0.00  0.00    +0.000 N 
ATOM     23  H   UNL     1       0.994   7.879  20.118  0.00  0.00    +0.000 HD
BRANCH  22  24
ATOM     24  C   UNL     1       2.711   7.199  19.097  0.00  0.00    +0.000 C 
BRANCH  24  25
ATOM     25  C   UNL     1       2.227   5.775  19.167  0.00  0.00    +0.000 A 
ATOM     26  C   UNL     1       2.282   4.944  18.037  0.00  0.00    +0.000 A 
ATOM     27  C   UNL     1       1.879   3.611  18.120  0.00  0.00    +0.000 A 
ATOM     28  C   UNL     1       1.420   3.106  19.331  0.00  0.00    +0.000 A 
ATOM     29  F   UNL     1       1.042   1.824  19.410  0.00  0.00    +0.000 F 
ATOM     30  C   UNL     1       1.355   3.910  20.462  0.00  0.00    +0.000 A 
ATOM     31  C   UNL     1       1.761   5.243  20.383  0.00  0.00    +0.000 A 
ENDBRANCH  24  25
ENDBRANCH  22  24
ENDBRANCH   8  20
BRANCH   9  32
ATOM     32  O   UNL     1       1.053  10.369  21.115  0.00  0.00    +0.000 OA
ATOM     33  H   UNL     1       1.292   9.415  21.108  0.00  0.00    +0.000 HD
ENDBRANCH   9  32
TORSDOF 5
ENDMDL
