MODEL 1
REMARK VINA RESULT:      -7.6      0.000      0.000
REMARK  Name = 
REMARK  4 active torsions:
REMARK  status: ('A' for Active; 'I' for Inactive)
REMARK    1  A    between atoms: C_1  and  C_2
REMARK    2  A    between atoms: C_5  and  C_7
REMARK    3  A    between atoms: C_7  and  S_8
REMARK    4  A    between atoms: S_8  and  C_11
REMARK                            x       y       z     vdW  Elec       q    Type
REMARK                         _______ _______ _______ _____ _____    ______ ____
ROOT
ATOM      1  S   UNL     1       2.323   5.232  19.522  0.00  0.00    +0.000 S 
ATOM      2  O   UNL     1       1.663   4.598  18.390  0.00  0.00    +0.000 OA
ATOM      3  O   UNL     1       1.882   4.993  20.882  0.00  0.00    +0.000 OA
ENDROOT
BRANCH   1   4
ATOM      4  C   UNL     1       2.098   6.977  19.252  0.00  0.00    +0.000 A 
ATOM      5  C   UNL     1       2.355   7.525  17.987  0.00  0.00    +0.000 A 
ATOM      6  C   UNL     1       2.086   8.875  17.751  0.00  0.00    +0.000 A 
ATOM      7  C   UNL     1       1.551   9.656  18.771  0.00  0.00    +0.000 A 
ATOM      8  F   UNL     1       1.279  10.946  18.538  0.00  0.00    +0.000 F 
ATOM      9  C   UNL     1       1.288   9.115  20.026  0.00  0.00    +0.000 A 
ATOM     10  C   UNL     1       1.569   7.770  20.262  0.00  0.00    +0.000 A 
ATOM     11  F   UNL     1       1.324   7.266  21.479  0.00  0.00    +0.000 F 
ENDBRANCH   1   4
BRANCH   1  12
ATOM     12  C   UNL     1       4.074   4.948  19.388  0.00  0.00    +0.000 C 
BRANCH  12  17
ATOM     13  C   UNL     1       7.811   7.993  17.480  0.00  0.00    +0.000 C 
ATOM     14  C   UNL     1       7.242   6.592  17.308  0.00  0.00    +0.000 C 
ATOM     15  C   UNL     1       5.710   6.584  17.498  0.00  0.00    +0.000 C 
ATOM     16  N   UNL     1       5.169   5.258  17.181  0.00  0.00    +0.000 N 
ATOM     17  C   UNL     1       4.418   4.430  18.010  0.00  0.00    +0.000 C 
ATOM     18  O   UNL     1       4.071   3.319  17.614  0.00  0.00    +0.000 OA
ATOM     19  C   UNL     1       5.582   4.769  15.857  0.00  0.00    +0.000 C 
ATOM     20  C   UNL     1       7.109   4.814  15.739  0.00  0.00    +0.000 C 
ATOM     21  O   UNL     1       7.597   6.143  15.986  0.00  0.00    +0.000 OA
ENDBRANCH  12  17
ENDBRANCH   1  12
TORSDOF 3
ENDMDL
MODEL 2
REMARK VINA RESULT:      -7.4      1.155      1.583
REMARK  Name = 
REMARK  4 active torsions:
REMARK  status: ('A' for Active; 'I' for Inactive)
REMARK    1  A    between atoms: C_1  and  C_2
REMARK    2  A    between atoms: C_5  and  C_7
REMARK    3  A    between atoms: C_7  and  S_8
REMARK    4  A    between atoms: S_8  and  C_11
REMARK                            x       y       z     vdW  Elec       q    Type
REMARK                         _______ _______ _______ _____ _____    ______ ____
ROOT
ATOM      1  S   UNL     1       2.586   4.541  19.804  0.00  0.00    +0.000 S 
ATOM      2  O   UNL     1       1.917   3.902  18.680  0.00  0.00    +0.000 OA
ATOM      3  O   UNL     1       2.300   4.152  21.172  0.00  0.00    +0.000 OA
ENDROOT
BRANCH   1   4
ATOM      4  C   UNL     1       2.115   6.253  19.691  0.00  0.00    +0.000 A 
ATOM      5  C   UNL     1       1.733   6.949  20.848  0.00  0.00    +0.000 A 
ATOM      6  C   UNL     1       1.457   8.316  20.772  0.00  0.00    +0.000 A 
ATOM      7  C   UNL     1       1.581   8.975  19.554  0.00  0.00    +0.000 A 
ATOM      8  F   UNL     1       1.332  10.288  19.487  0.00  0.00    +0.000 F 
ATOM      9  C   UNL     1       1.967   8.290  18.404  0.00  0.00    +0.000 A 
ATOM     10  C   UNL     1       2.229   6.923  18.479  0.00  0.00    +0.000 A 
ATOM     11  F   UNL     1       2.586   6.274  17.363  0.00  0.00    +0.000 F 
ENDBRANCH   1   4
BRANCH   1  12
ATOM     12  C   UNL     1       4.341   4.506  19.513  0.00  0.00    +0.000 C 
BRANCH  12  17
ATOM     13  C   UNL     1       7.735   7.892  17.541  0.00  0.00    +0.000 C 
ATOM     14  C   UNL     1       7.251   6.465  17.331  0.00  0.00    +0.000 C 
ATOM     15  C   UNL     1       5.738   6.341  17.614  0.00  0.00    +0.000 C 
ATOM     16  N   UNL     1       5.268   4.997  17.263  0.00  0.00    +0.000 N 
ATOM     17  C   UNL     1       4.629   4.080  18.091  0.00  0.00    +0.000 C 
ATOM     18  O   UNL     1       4.331   2.968  17.661  0.00  0.00    +0.000 OA
ATOM     19  C   UNL     1       5.626   4.602  15.891  0.00  0.00    +0.000 C 
ATOM     20  C   UNL     1       7.135   4.759  15.683  0.00  0.00    +0.000 C 
ATOM     21  O   UNL     1       7.548   6.106  15.968  0.00  0.00    +0.000 OA
ENDBRANCH  12  17
ENDBRANCH   1  12
TORSDOF 3
ENDMDL
MODEL 3
REMARK VINA RESULT:      -7.4      3.238      5.757
REMARK  Name = 
REMARK  4 active torsions:
REMARK  status: ('A' for Active; 'I' for Inactive)
REMARK    1  A    between atoms: C_1  and  C_2
REMARK    2  A    between atoms: C_5  and  C_7
REMARK    3  A    between atoms: C_7  and  S_8
REMARK    4  A    between atoms: S_8  and  C_11
REMARK                            x       y       z     vdW  Elec       q    Type
REMARK                         _______ _______ _______ _____ _____    ______ ____
ROOT
ATOM      1  S   UNL     1       5.074   4.248  17.237  0.00  0.00    +0.000 S 
ATOM      2  O   UNL     1       5.705   3.626  16.083  0.00  0.00    +0.000 OA
ATOM      3  O   UNL     1       3.748   4.830  17.148  0.00  0.00    +0.000 OA
ENDROOT
BRANCH   1   4
ATOM      4  C   UNL     1       6.153   5.595  17.668  0.00  0.00    +0.000 A 
ATOM      5  C   UNL     1       7.102   5.429  18.687  0.00  0.00    +0.000 A 
ATOM      6  C   UNL     1       8.012   6.454  18.957  0.00  0.00    +0.000 A 
ATOM      7  C   UNL     1       7.976   7.621  18.201  0.00  0.00    +0.000 A 
ATOM      8  F   UNL     1       8.860   8.594  18.451  0.00  0.00    +0.000 F 
ATOM      9  C   UNL     1       7.040   7.788  17.183  0.00  0.00    +0.000 A 
ATOM     10  C   UNL     1       6.125   6.768  16.924  0.00  0.00    +0.000 A 
ATOM     11  F   UNL     1       5.222   6.948  15.951  0.00  0.00    +0.000 F 
ENDBRANCH   1   4
BRANCH   1  12
ATOM     12  C   UNL     1       5.152   3.114  18.606  0.00  0.00    +0.000 C 
BRANCH  12  17
ATOM     13  C   UNL     1       1.588   6.039  20.976  0.00  0.00    +0.000 C 
ATOM     14  C   UNL     1       1.685   4.852  20.028  0.00  0.00    +0.000 C 
ATOM     15  C   UNL     1       2.897   3.960  20.373  0.00  0.00    +0.000 C 
ATOM     16  N   UNL     1       2.883   2.749  19.545  0.00  0.00    +0.000 N 
ATOM     17  C   UNL     1       3.881   2.299  18.686  0.00  0.00    +0.000 C 
ATOM     18  O   UNL     1       3.704   1.281  18.021  0.00  0.00    +0.000 OA
ATOM     19  C   UNL     1       1.604   2.024  19.607  0.00  0.00    +0.000 C 
ATOM     20  C   UNL     1       0.452   2.973  19.263  0.00  0.00    +0.000 C 
ATOM     21  O   UNL     1       0.454   4.112  20.139  0.00  0.00    +0.000 OA
ENDBRANCH  12  17
ENDBRANCH   1  12
TORSDOF 3
ENDMDL
MODEL 4
REMARK VINA RESULT:      -7.3      1.868      2.757
REMARK  Name = 
REMARK  4 active torsions:
REMARK  status: ('A' for Active; 'I' for Inactive)
REMARK    1  A    between atoms: C_1  and  C_2
REMARK    2  A    between atoms: C_5  and  C_7
REMARK    3  A    between atoms: C_7  and  S_8
REMARK    4  A    between atoms: S_8  and  C_11
REMARK                            x       y       z     vdW  Elec       q    Type
REMARK                         _______ _______ _______ _____ _____    ______ ____
ROOT
ATOM      1  S   UNL     1       2.363   3.163  18.123  0.00  0.00    +0.000 S 
ATOM      2  O   UNL     1       2.319   3.400  16.688  0.00  0.00    +0.000 OA
ATOM      3  O   UNL     1       1.329   2.398  18.793  0.00  0.00    +0.000 OA
ENDROOT
BRANCH   1   4
ATOM      4  C   UNL     1       2.295   4.787  18.848  0.00  0.00    +0.000 A 
ATOM      5  C   UNL     1       2.583   5.913  18.064  0.00  0.00    +0.000 A 
ATOM      6  C   UNL     1       2.434   7.191  18.609  0.00  0.00    +0.000 A 
ATOM      7  C   UNL     1       1.987   7.330  19.919  0.00  0.00    +0.000 A 
ATOM      8  F   UNL     1       1.830   8.555  20.434  0.00  0.00    +0.000 F 
ATOM      9  C   UNL     1       1.693   6.215  20.700  0.00  0.00    +0.000 A 
ATOM     10  C   UNL     1       1.854   4.941  20.157  0.00  0.00    +0.000 A 
ATOM     11  F   UNL     1       1.581   3.877  20.923  0.00  0.00    +0.000 F 
ENDBRANCH   1   4
BRANCH   1  12
ATOM     12  C   UNL     1       3.968   2.518  18.542  0.00  0.00    +0.000 C 
BRANCH  12  17
ATOM     13  C   UNL     1       5.501   4.379  13.952  0.00  0.00    +0.000 C 
ATOM     14  C   UNL     1       5.384   4.807  15.408  0.00  0.00    +0.000 C 
ATOM     15  C   UNL     1       5.681   3.629  16.362  0.00  0.00    +0.000 C 
ATOM     16  N   UNL     1       5.710   4.101  17.750  0.00  0.00    +0.000 N 
ATOM     17  C   UNL     1       4.934   3.650  18.813  0.00  0.00    +0.000 C 
ATOM     18  O   UNL     1       5.042   4.177  19.919  0.00  0.00    +0.000 OA
ATOM     19  C   UNL     1       6.615   5.242  17.952  0.00  0.00    +0.000 C 
ATOM     20  C   UNL     1       6.267   6.363  16.969  0.00  0.00    +0.000 C 
ATOM     21  O   UNL     1       6.318   5.884  15.615  0.00  0.00    +0.000 OA
ENDBRANCH  12  17
ENDBRANCH   1  12
TORSDOF 3
ENDMDL
MODEL 5
REMARK VINA RESULT:      -7.3      1.075      1.142
REMARK  Name = 
REMARK  4 active torsions:
REMARK  status: ('A' for Active; 'I' for Inactive)
REMARK    1  A    between atoms: C_1  and  C_2
REMARK    2  A    between atoms: C_5  and  C_7
REMARK    3  A    between atoms: C_7  and  S_8
REMARK    4  A    between atoms: S_8  and  C_11
REMARK                            x       y       z     vdW  Elec       q    Type
REMARK                         _______ _______ _______ _____ _____    ______ ____
ROOT
ATOM      1  S   UNL     1       2.807   5.633  19.161  0.00  0.00    +0.000 S 
ATOM      2  O   UNL     1       1.711   4.895  19.770  0.00  0.00    +0.000 OA
ATOM      3  O   UNL     1       4.126   5.660  19.765  0.00  0.00    +0.000 OA
ENDROOT
BRANCH   1   4
ATOM      4  C   UNL     1       2.257   7.325  19.150  0.00  0.00    +0.000 A 
ATOM      5  C   UNL     1       2.356   8.083  17.975  0.00  0.00    +0.000 A 
ATOM      6  C   UNL     1       1.835   9.379  17.942  0.00  0.00    +0.000 A 
ATOM      7  C   UNL     1       1.211   9.896  19.072  0.00  0.00    +0.000 A 
ATOM      8  F   UNL     1       0.698  11.132  19.033  0.00  0.00    +0.000 F 
ATOM      9  C   UNL     1       1.105   9.145  20.240  0.00  0.00    +0.000 A 
ATOM     10  C   UNL     1       1.636   7.857  20.274  0.00  0.00    +0.000 A 
ATOM     11  F   UNL     1       1.539   7.151  21.408  0.00  0.00    +0.000 F 
ENDBRANCH   1   4
BRANCH   1  12
ATOM     12  C   UNL     1       2.929   5.158  17.450  0.00  0.00    +0.000 C 
BRANCH  12  17
ATOM     13  C   UNL     1       7.106   8.227  17.378  0.00  0.00    +0.000 C 
ATOM     14  C   UNL     1       6.724   6.777  17.639  0.00  0.00    +0.000 C 
ATOM     15  C   UNL     1       5.577   6.326  16.710  0.00  0.00    +0.000 C 
ATOM     16  N   UNL     1       5.329   4.890  16.876  0.00  0.00    +0.000 N 
ATOM     17  C   UNL     1       4.136   4.273  17.235  0.00  0.00    +0.000 C 
ATOM     18  O   UNL     1       4.094   3.052  17.377  0.00  0.00    +0.000 OA
ATOM     19  C   UNL     1       6.544   4.075  16.720  0.00  0.00    +0.000 C 
ATOM     20  C   UNL     1       7.637   4.585  17.664  0.00  0.00    +0.000 C 
ATOM     21  O   UNL     1       7.903   5.977  17.425  0.00  0.00    +0.000 OA
ENDBRANCH  12  17
ENDBRANCH   1  12
TORSDOF 3
ENDMDL
MODEL 6
REMARK VINA RESULT:      -7.3      2.996      5.776
REMARK  Name = 
REMARK  4 active torsions:
REMARK  status: ('A' for Active; 'I' for Inactive)
REMARK    1  A    between atoms: C_1  and  C_2
REMARK    2  A    between atoms: C_5  and  C_7
REMARK    3  A    between atoms: C_7  and  S_8
REMARK    4  A    between atoms: S_8  and  C_11
REMARK                            x       y       z     vdW  Elec       q    Type
REMARK                         _______ _______ _______ _____ _____    ______ ____
ROOT
ATOM      1  S   UNL     1       5.206   4.068  15.925  0.00  0.00    +0.000 S 
ATOM      2  O   UNL     1       5.821   2.767  16.147  0.00  0.00    +0.000 OA
ATOM      3  O   UNL     1       5.149   4.659  14.602  0.00  0.00    +0.000 OA
ENDROOT
BRANCH   1   4
ATOM      4  C   UNL     1       6.175   5.194  16.904  0.00  0.00    +0.000 A 
ATOM      5  C   UNL     1       7.115   4.694  17.817  0.00  0.00    +0.000 A 
ATOM      6  C   UNL     1       7.941   5.579  18.513  0.00  0.00    +0.000 A 
ATOM      7  C   UNL     1       7.832   6.946  18.281  0.00  0.00    +0.000 A 
ATOM      8  F   UNL     1       8.636   7.791  18.937  0.00  0.00    +0.000 F 
ATOM      9  C   UNL     1       6.906   7.448  17.371  0.00  0.00    +0.000 A 
ATOM     10  C   UNL     1       6.074   6.563  16.686  0.00  0.00    +0.000 A 
ATOM     11  F   UNL     1       5.177   7.060  15.824  0.00  0.00    +0.000 F 
ENDBRANCH   1   4
BRANCH   1  12
ATOM     12  C   UNL     1       3.587   4.062  16.663  0.00  0.00    +0.000 C 
BRANCH  12  17
ATOM     13  C   UNL     1       1.875   6.877  20.666  0.00  0.00    +0.000 C 
ATOM     14  C   UNL     1       1.984   5.427  20.217  0.00  0.00    +0.000 C 
ATOM     15  C   UNL     1       3.280   5.187  19.413  0.00  0.00    +0.000 C 
ATOM     16  N   UNL     1       3.436   3.758  19.122  0.00  0.00    +0.000 N 
ATOM     17  C   UNL     1       3.565   3.158  17.874  0.00  0.00    +0.000 C 
ATOM     18  O   UNL     1       3.644   1.934  17.787  0.00  0.00    +0.000 OA
ATOM     19  C   UNL     1       3.345   2.913  20.323  0.00  0.00    +0.000 C 
ATOM     20  C   UNL     1       2.042   3.212  21.071  0.00  0.00    +0.000 C 
ATOM     21  O   UNL     1       1.957   4.608  21.402  0.00  0.00    +0.000 OA
ENDBRANCH  12  17
ENDBRANCH   1  12
TORSDOF 3
ENDMDL
MODEL 7
REMARK VINA RESULT:      -7.3      3.858      6.731
REMARK  Name = 
REMARK  4 active torsions:
REMARK  status: ('A' for Active; 'I' for Inactive)
REMARK    1  A    between atoms: C_1  and  C_2
REMARK    2  A    between atoms: C_5  and  C_7
REMARK    3  A    between atoms: C_7  and  S_8
REMARK    4  A    between atoms: S_8  and  C_11
REMARK                            x       y       z     vdW  Elec       q    Type
REMARK                         _______ _______ _______ _____ _____    ______ ____
ROOT
ATOM      1  S   UNL     1       5.132   4.718  16.946  0.00  0.00    +0.000 S 
ATOM      2  O   UNL     1       4.769   6.126  16.984  0.00  0.00    +0.000 OA
ATOM      3  O   UNL     1       6.079   4.157  17.890  0.00  0.00    +0.000 OA
ENDROOT
BRANCH   1   4
ATOM      4  C   UNL     1       5.871   4.488  15.343  0.00  0.00    +0.000 A 
ATOM      5  C   UNL     1       5.220   3.702  14.382  0.00  0.00    +0.000 A 
ATOM      6  C   UNL     1       5.753   3.603  13.094  0.00  0.00    +0.000 A 
ATOM      7  C   UNL     1       6.915   4.298  12.778  0.00  0.00    +0.000 A 
ATOM      8  F   UNL     1       7.415   4.215  11.539  0.00  0.00    +0.000 F 
ATOM      9  C   UNL     1       7.562   5.086  13.727  0.00  0.00    +0.000 A 
ATOM     10  C   UNL     1       7.034   5.174  15.014  0.00  0.00    +0.000 A 
ATOM     11  F   UNL     1       7.673   5.924  15.921  0.00  0.00    +0.000 F 
ENDBRANCH   1   4
BRANCH   1  12
ATOM     12  C   UNL     1       3.640   3.748  16.928  0.00  0.00    +0.000 C 
BRANCH  12  17
ATOM     13  C   UNL     1       1.463   6.335  20.859  0.00  0.00    +0.000 C 
ATOM     14  C   UNL     1       1.710   4.907  20.392  0.00  0.00    +0.000 C 
ATOM     15  C   UNL     1       3.070   4.782  19.672  0.00  0.00    +0.000 C 
ATOM     16  N   UNL     1       3.351   3.376  19.366  0.00  0.00    +0.000 N 
ATOM     17  C   UNL     1       3.606   2.816  18.119  0.00  0.00    +0.000 C 
ATOM     18  O   UNL     1       3.782   1.603  18.015  0.00  0.00    +0.000 OA
ATOM     19  C   UNL     1       3.244   2.498  20.542  0.00  0.00    +0.000 C 
ATOM     20  C   UNL     1       1.876   2.683  21.206  0.00  0.00    +0.000 C 
ATOM     21  O   UNL     1       1.665   4.061  21.556  0.00  0.00    +0.000 OA
ENDBRANCH  12  17
ENDBRANCH   1  12
TORSDOF 3
ENDMDL
MODEL 8
REMARK VINA RESULT:      -7.2      3.013      4.725
REMARK  Name = 
REMARK  4 active torsions:
REMARK  status: ('A' for Active; 'I' for Inactive)
REMARK    1  A    between atoms: C_1  and  C_2
REMARK    2  A    between atoms: C_5  and  C_7
REMARK    3  A    between atoms: C_7  and  S_8
REMARK    4  A    between atoms: S_8  and  C_11
REMARK                            x       y       z     vdW  Elec       q    Type
REMARK                         _______ _______ _______ _____ _____    ______ ____
ROOT
ATOM      1  S   UNL     1       4.562   5.754  17.595  0.00  0.00    +0.000 S 
ATOM      2  O   UNL     1       5.610   5.628  18.597  0.00  0.00    +0.000 OA
ATOM      3  O   UNL     1       4.085   7.054  17.164  0.00  0.00    +0.000 OA
ENDROOT
BRANCH   1   4
ATOM      4  C   UNL     1       3.150   4.948  18.318  0.00  0.00    +0.000 A 
ATOM      5  C   UNL     1       2.635   3.784  17.729  0.00  0.00    +0.000 A 
ATOM      6  C   UNL     1       1.589   3.099  18.352  0.00  0.00    +0.000 A 
ATOM      7  C   UNL     1       1.081   3.572  19.557  0.00  0.00    +0.000 A 
ATOM      8  F   UNL     1       0.090   2.906  20.161  0.00  0.00    +0.000 F 
ATOM      9  C   UNL     1       1.593   4.724  20.150  0.00  0.00    +0.000 A 
ATOM     10  C   UNL     1       2.630   5.412  19.520  0.00  0.00    +0.000 A 
ATOM     11  F   UNL     1       3.104   6.526  20.093  0.00  0.00    +0.000 F 
ENDBRANCH   1   4
BRANCH   1  12
ATOM     12  C   UNL     1       5.007   4.768  16.183  0.00  0.00    +0.000 C 
BRANCH  12  17
ATOM     13  C   UNL     1       5.574   2.344  11.635  0.00  0.00    +0.000 C 
ATOM     14  C   UNL     1       5.986   3.632  12.334  0.00  0.00    +0.000 C 
ATOM     15  C   UNL     1       6.245   3.394  13.837  0.00  0.00    +0.000 C 
ATOM     16  N   UNL     1       6.783   4.610  14.455  0.00  0.00    +0.000 N 
ATOM     17  C   UNL     1       6.257   5.316  15.531  0.00  0.00    +0.000 C 
ATOM     18  O   UNL     1       6.801   6.351  15.912  0.00  0.00    +0.000 OA
ATOM     19  C   UNL     1       7.960   5.142  13.749  0.00  0.00    +0.000 C 
ATOM     20  C   UNL     1       7.631   5.344  12.267  0.00  0.00    +0.000 C 
ATOM     21  O   UNL     1       7.175   4.115  11.678  0.00  0.00    +0.000 OA
ENDBRANCH  12  17
ENDBRANCH   1  12
TORSDOF 3
ENDMDL
MODEL 9
REMARK VINA RESULT:      -7.2      1.459      2.164
REMARK  Name = 
REMARK  4 active torsions:
REMARK  status: ('A' for Active; 'I' for Inactive)
REMARK    1  A    between atoms: C_1  and  C_2
REMARK    2  A    between atoms: C_5  and  C_7
REMARK    3  A    between atoms: C_7  and  S_8
REMARK    4  A    between atoms: S_8  and  C_11
REMARK                            x       y       z     vdW  Elec       q    Type
REMARK                         _______ _______ _______ _____ _____    ______ ____
ROOT
ATOM      1  S   UNL     1       2.552   3.590  18.956  0.00  0.00    +0.000 S 
ATOM      2  O   UNL     1       1.489   3.178  18.051  0.00  0.00    +0.000 OA
ATOM      3  O   UNL     1       2.574   3.157  20.340  0.00  0.00    +0.000 OA
ENDROOT
BRANCH   1   4
ATOM      4  C   UNL     1       2.427   5.364  19.018  0.00  0.00    +0.000 A 
ATOM      5  C   UNL     1       2.584   6.115  17.843  0.00  0.00    +0.000 A 
ATOM      6  C   UNL     1       2.389   7.498  17.877  0.00  0.00    +0.000 A 
ATOM      7  C   UNL     1       2.028   8.111  19.072  0.00  0.00    +0.000 A 
ATOM      8  F   UNL     1       1.826   9.434  19.097  0.00  0.00    +0.000 F 
ATOM      9  C   UNL     1       1.865   7.369  20.239  0.00  0.00    +0.000 A 
ATOM     10  C   UNL     1       2.071   5.991  20.205  0.00  0.00    +0.000 A 
ATOM     11  F   UNL     1       1.925   5.291  21.338  0.00  0.00    +0.000 F 
ENDBRANCH   1   4
BRANCH   1  12
ATOM     12  C   UNL     1       4.118   3.246  18.183  0.00  0.00    +0.000 C 
BRANCH  12  17
ATOM     13  C   UNL     1       6.873   4.925  14.125  0.00  0.00    +0.000 C 
ATOM     14  C   UNL     1       6.527   5.328  15.551  0.00  0.00    +0.000 C 
ATOM     15  C   UNL     1       6.414   4.092  16.469  0.00  0.00    +0.000 C 
ATOM     16  N   UNL     1       6.229   4.513  17.862  0.00  0.00    +0.000 N 
ATOM     17  C   UNL     1       5.182   4.180  18.715  0.00  0.00    +0.000 C 
ATOM     18  O   UNL     1       5.143   4.649  19.851  0.00  0.00    +0.000 OA
ATOM     19  C   UNL     1       7.251   5.469  18.314  0.00  0.00    +0.000 C 
ATOM     20  C   UNL     1       7.311   6.660  17.353  0.00  0.00    +0.000 C 
ATOM     21  O   UNL     1       7.564   6.215  16.011  0.00  0.00    +0.000 OA
ENDBRANCH  12  17
ENDBRANCH   1  12
TORSDOF 3
ENDMDL
