MODEL 1
REMARK VINA RESULT:      -6.0      0.000      0.000
REMARK  Name = 
REMARK  21 active torsions:
REMARK  status: ('A' for Active; 'I' for Inactive)
REMARK    1  A    between atoms: C_1  and  C_2
REMARK    2  A    between atoms: C_2  and  C_3
REMARK    3  A    between atoms: C_3  and  C_4
REMARK    4  A    between atoms: C_4  and  C_5
REMARK    5  A    between atoms: C_5  and  C_6
REMARK    6  A    between atoms: C_8  and  O_9
REMARK    7  A    between atoms: C_11  and  O_12
REMARK    8  A    between atoms: O_12  and  C_13
REMARK    9  A    between atoms: C_13  and  C_14
REMARK   10  A    between atoms: C_14  and  C_15
REMARK   11  A    between atoms: C_15  and  C_16
REMARK   12  A    between atoms: C_16  and  C_17
REMARK   13  A    between atoms: C_17  and  C_18
REMARK   14  A    between atoms: C_18  and  C_19
REMARK   15  A    between atoms: C_19  and  C_20
REMARK   16  A    between atoms: C_20  and  O_21
REMARK   17  A    between atoms: O_21  and  C_22
REMARK   18  A    between atoms: C_22  and  C_23
REMARK   19  A    between atoms: C_22  and  C_25
REMARK   20  A    between atoms: C_23  and  O_24
REMARK   21  A    between atoms: C_25  and  O_26
REMARK                            x       y       z     vdW  Elec       q    Type
REMARK                         _______ _______ _______ _____ _____    ______ ____
ROOT
ATOM      1  C   UNL     1       1.819   6.251  19.687  0.00  0.00    +0.000 C 
ENDROOT
BRANCH   1   2
ATOM      2  C   UNL     1       2.384   5.929  18.315  0.00  0.00    +0.000 C 
BRANCH   2   3
ATOM      3  C   UNL     1       1.520   4.867  17.640  0.00  0.00    +0.000 C 
BRANCH   3   4
ATOM      4  C   UNL     1       1.440   3.600  18.476  0.00  0.00    +0.000 C 
BRANCH   4   5
ATOM      5  C   UNL     1       2.555   2.628  18.088  0.00  0.00    +0.000 C 
BRANCH   5   6
ATOM      6  C   UNL     1       3.305   2.173  19.328  0.00  0.00    +0.000 C 
BRANCH   6   7
ATOM      7  C   UNL     1       4.533   3.033  19.613  0.00  0.00    +0.000 C 
BRANCH   7   8
ATOM      8  C   UNL     1       5.094   3.538  18.288  0.00  0.00    +0.000 C 
BRANCH   8   9
ATOM      9  O   UNL     1       6.219   4.385  18.512  0.00  0.00    +0.000 OA
BRANCH   9  10
ATOM     10  C   UNL     1       6.396   5.351  17.447  0.00  0.00    +0.000 C 
BRANCH  10  11
ATOM     11  C   UNL     1       6.833   4.581  16.191  0.00  0.00    +0.000 C 
BRANCH  11  12
ATOM     12  O   UNL     1       7.553   5.434  15.302  0.00  0.00    +0.000 OA
ATOM     13  H   UNL     1       7.515   6.323  15.703  0.00  0.00    +0.000 HD
ENDBRANCH  11  12
ENDBRANCH  10  11
BRANCH  10  14
ATOM     14  C   UNL     1       7.461   6.403  17.806  0.00  0.00    +0.000 C 
BRANCH  14  15
ATOM     15  O   UNL     1       7.290   7.594  17.041  0.00  0.00    +0.000 OA
ATOM     16  H   UNL     1       6.413   7.957  17.273  0.00  0.00    +0.000 HD
ENDBRANCH  14  15
ENDBRANCH  10  14
ENDBRANCH   9  10
ENDBRANCH   8   9
ENDBRANCH   7   8
ENDBRANCH   6   7
ENDBRANCH   5   6
ENDBRANCH   4   5
ENDBRANCH   3   4
ENDBRANCH   2   3
ENDBRANCH   1   2
BRANCH   1  17
ATOM     17  O   UNL     1       2.357   7.492  20.142  0.00  0.00    +0.000 OA
BRANCH  17  22
ATOM     18  C   UNL     1      -0.208  10.168  19.817  0.00  0.00    +0.000 A 
ATOM     19  C   UNL     1      -0.406  10.438  21.177  0.00  0.00    +0.000 A 
ATOM     20  C   UNL     1       0.312   9.727  22.133  0.00  0.00    +0.000 A 
ATOM     21  C   UNL     1       1.228   8.745  21.760  0.00  0.00    +0.000 A 
ATOM     22  C   UNL     1       1.439   8.469  20.412  0.00  0.00    +0.000 A 
ATOM     23  C   UNL     1       0.723   9.185  19.450  0.00  0.00    +0.000 A 
BRANCH  20  24
ATOM     24  O   UNL     1       0.145   9.965  23.466  0.00  0.00    +0.000 OA
ATOM     25  H   UNL     1       0.018   9.115  23.918  0.00  0.00    +0.000 HD
ENDBRANCH  20  24
BRANCH  18  26
ATOM     26  C   UNL     1      -0.964  10.921  18.756  0.00  0.00    +0.000 C 
BRANCH  26  27
ATOM     27  C   UNL     1      -1.379  10.017  17.593  0.00  0.00    +0.000 C 
BRANCH  27  28
ATOM     28  C   UNL     1      -2.887   9.770  17.599  0.00  0.00    +0.000 C 
BRANCH  28  30
ATOM     29  C   UNL     1      -2.971  10.106  15.115  0.00  0.00    +0.000 C 
ATOM     30  C   UNL     1      -3.569  10.508  16.451  0.00  0.00    +0.000 C 
ENDBRANCH  28  30
ENDBRANCH  27  28
ENDBRANCH  26  27
ENDBRANCH  18  26
ENDBRANCH  17  22
ENDBRANCH   1  17
TORSDOF 20
ENDMDL
MODEL 2
REMARK VINA RESULT:      -5.9      2.689      7.925
REMARK  Name = 
REMARK  21 active torsions:
REMARK  status: ('A' for Active; 'I' for Inactive)
REMARK    1  A    between atoms: C_1  and  C_2
REMARK    2  A    between atoms: C_2  and  C_3
REMARK    3  A    between atoms: C_3  and  C_4
REMARK    4  A    between atoms: C_4  and  C_5
REMARK    5  A    between atoms: C_5  and  C_6
REMARK    6  A    between atoms: C_8  and  O_9
REMARK    7  A    between atoms: C_11  and  O_12
REMARK    8  A    between atoms: O_12  and  C_13
REMARK    9  A    between atoms: C_13  and  C_14
REMARK   10  A    between atoms: C_14  and  C_15
REMARK   11  A    between atoms: C_15  and  C_16
REMARK   12  A    between atoms: C_16  and  C_17
REMARK   13  A    between atoms: C_17  and  C_18
REMARK   14  A    between atoms: C_18  and  C_19
REMARK   15  A    between atoms: C_19  and  C_20
REMARK   16  A    between atoms: C_20  and  O_21
REMARK   17  A    between atoms: O_21  and  C_22
REMARK   18  A    between atoms: C_22  and  C_23
REMARK   19  A    between atoms: C_22  and  C_25
REMARK   20  A    between atoms: C_23  and  O_24
REMARK   21  A    between atoms: C_25  and  O_26
REMARK                            x       y       z     vdW  Elec       q    Type
REMARK                         _______ _______ _______ _____ _____    ______ ____
ROOT
ATOM      1  C   UNL     1       3.523   2.078  17.753  0.00  0.00    +0.000 C 
ENDROOT
BRANCH   1   2
ATOM      2  C   UNL     1       2.683   1.923  19.009  0.00  0.00    +0.000 C 
BRANCH   2   3
ATOM      3  C   UNL     1       1.231   2.281  18.704  0.00  0.00    +0.000 C 
BRANCH   3   4
ATOM      4  C   UNL     1       0.924   3.723  19.075  0.00  0.00    +0.000 C 
BRANCH   4   5
ATOM      5  C   UNL     1       1.091   3.938  20.580  0.00  0.00    +0.000 C 
BRANCH   5   6
ATOM      6  C   UNL     1       1.851   5.227  20.840  0.00  0.00    +0.000 C 
BRANCH   6   7
ATOM      7  C   UNL     1       2.823   5.567  19.713  0.00  0.00    +0.000 C 
BRANCH   7   8
ATOM      8  C   UNL     1       2.822   7.078  19.508  0.00  0.00    +0.000 C 
BRANCH   8   9
ATOM      9  O   UNL     1       1.513   7.608  19.702  0.00  0.00    +0.000 OA
BRANCH   9  10
ATOM     10  C   UNL     1       1.457   9.034  19.451  0.00  0.00    +0.000 C 
BRANCH  10  11
ATOM     11  C   UNL     1       0.402   9.628  20.397  0.00  0.00    +0.000 C 
BRANCH  11  12
ATOM     12  O   UNL     1       0.736  10.971  20.745  0.00  0.00    +0.000 OA
ATOM     13  H   UNL     1       1.318  10.903  21.524  0.00  0.00    +0.000 HD
ENDBRANCH  11  12
ENDBRANCH  10  11
BRANCH  10  14
ATOM     14  C   UNL     1       1.076   9.339  17.992  0.00  0.00    +0.000 C 
BRANCH  14  15
ATOM     15  O   UNL     1       1.912  10.356  17.441  0.00  0.00    +0.000 OA
ATOM     16  H   UNL     1       2.765   9.932  17.223  0.00  0.00    +0.000 HD
ENDBRANCH  14  15
ENDBRANCH  10  14
ENDBRANCH   9  10
ENDBRANCH   8   9
ENDBRANCH   7   8
ENDBRANCH   6   7
ENDBRANCH   5   6
ENDBRANCH   4   5
ENDBRANCH   3   4
ENDBRANCH   2   3
ENDBRANCH   1   2
BRANCH   1  17
ATOM     17  O   UNL     1       3.580   3.456  17.387  0.00  0.00    +0.000 OA
BRANCH  17  22
ATOM     18  C   UNL     1       6.314   4.341  15.025  0.00  0.00    +0.000 A 
ATOM     19  C   UNL     1       7.265   4.779  15.954  0.00  0.00    +0.000 A 
ATOM     20  C   UNL     1       6.959   4.763  17.312  0.00  0.00    +0.000 A 
ATOM     21  C   UNL     1       5.719   4.318  17.764  0.00  0.00    +0.000 A 
ATOM     22  C   UNL     1       4.766   3.876  16.851  0.00  0.00    +0.000 A 
ATOM     23  C   UNL     1       5.072   3.885  15.488  0.00  0.00    +0.000 A 
BRANCH  20  24
ATOM     24  O   UNL     1       7.861   5.182  18.246  0.00  0.00    +0.000 OA
ATOM     25  H   UNL     1       7.403   5.280  19.096  0.00  0.00    +0.000 HD
ENDBRANCH  20  24
BRANCH  18  26
ATOM     26  C   UNL     1       6.612   4.340  13.549  0.00  0.00    +0.000 C 
BRANCH  26  27
ATOM     27  C   UNL     1       5.995   3.133  12.837  0.00  0.00    +0.000 C 
BRANCH  27  28
ATOM     28  C   UNL     1       5.386   3.538  11.496  0.00  0.00    +0.000 C 
BRANCH  28  30
ATOM     29  C   UNL     1       3.268   3.751  10.170  0.00  0.00    +0.000 C 
ATOM     30  C   UNL     1       3.882   3.279  11.475  0.00  0.00    +0.000 C 
ENDBRANCH  28  30
ENDBRANCH  27  28
ENDBRANCH  26  27
ENDBRANCH  18  26
ENDBRANCH  17  22
ENDBRANCH   1  17
TORSDOF 20
ENDMDL
MODEL 3
REMARK VINA RESULT:      -5.9      4.880      9.235
REMARK  Name = 
REMARK  21 active torsions:
REMARK  status: ('A' for Active; 'I' for Inactive)
REMARK    1  A    between atoms: C_1  and  C_2
REMARK    2  A    between atoms: C_2  and  C_3
REMARK    3  A    between atoms: C_3  and  C_4
REMARK    4  A    between atoms: C_4  and  C_5
REMARK    5  A    between atoms: C_5  and  C_6
REMARK    6  A    between atoms: C_8  and  O_9
REMARK    7  A    between atoms: C_11  and  O_12
REMARK    8  A    between atoms: O_12  and  C_13
REMARK    9  A    between atoms: C_13  and  C_14
REMARK   10  A    between atoms: C_14  and  C_15
REMARK   11  A    between atoms: C_15  and  C_16
REMARK   12  A    between atoms: C_16  and  C_17
REMARK   13  A    between atoms: C_17  and  C_18
REMARK   14  A    between atoms: C_18  and  C_19
REMARK   15  A    between atoms: C_19  and  C_20
REMARK   16  A    between atoms: C_20  and  O_21
REMARK   17  A    between atoms: O_21  and  C_22
REMARK   18  A    between atoms: C_22  and  C_23
REMARK   19  A    between atoms: C_22  and  C_25
REMARK   20  A    between atoms: C_23  and  O_24
REMARK   21  A    between atoms: C_25  and  O_26
REMARK                            x       y       z     vdW  Elec       q    Type
REMARK                         _______ _______ _______ _____ _____    ______ ____
ROOT
ATOM      1  C   UNL     1       7.945   6.657  18.765  0.00  0.00    +0.000 C 
ENDROOT
BRANCH   1   2
ATOM      2  C   UNL     1       7.562   7.456  17.531  0.00  0.00    +0.000 C 
BRANCH   2   3
ATOM      3  C   UNL     1       8.016   8.903  17.696  0.00  0.00    +0.000 C 
BRANCH   3   4
ATOM      4  C   UNL     1       8.915   9.071  18.909  0.00  0.00    +0.000 C 
BRANCH   4   5
ATOM      5  C   UNL     1       9.094  10.553  19.245  0.00  0.00    +0.000 C 
BRANCH   5   6
ATOM      6  C   UNL     1      10.094  11.186  18.293  0.00  0.00    +0.000 C 
BRANCH   6   7
ATOM      7  C   UNL     1      11.450  11.430  18.950  0.00  0.00    +0.000 C 
BRANCH   7   8
ATOM      8  C   UNL     1      11.792  12.911  18.826  0.00  0.00    +0.000 C 
BRANCH   8   9
ATOM      9  O   UNL     1      10.670  13.714  19.180  0.00  0.00    +0.000 OA
BRANCH   9  10
ATOM     10  C   UNL     1      10.574  14.910  18.367  0.00  0.00    +0.000 C 
BRANCH  10  11
ATOM     11  C   UNL     1       9.081  15.213  18.165  0.00  0.00    +0.000 C 
BRANCH  11  12
ATOM     12  O   UNL     1       8.453  14.171  17.418  0.00  0.00    +0.000 OA
ATOM     13  H   UNL     1       8.924  14.140  16.564  0.00  0.00    +0.000 HD
ENDBRANCH  11  12
ENDBRANCH  10  11
BRANCH  10  14
ATOM     14  C   UNL     1      11.255  14.723  17.000  0.00  0.00    +0.000 C 
BRANCH  14  15
ATOM     15  O   UNL     1      12.021  15.872  16.641  0.00  0.00    +0.000 OA
ATOM     16  H   UNL     1      12.573  15.616  15.877  0.00  0.00    +0.000 HD
ENDBRANCH  14  15
ENDBRANCH  10  14
ENDBRANCH   9  10
ENDBRANCH   8   9
ENDBRANCH   7   8
ENDBRANCH   6   7
ENDBRANCH   5   6
ENDBRANCH   4   5
ENDBRANCH   3   4
ENDBRANCH   2   3
ENDBRANCH   1   2
BRANCH   1  17
ATOM     17  O   UNL     1       8.033   5.273  18.426  0.00  0.00    +0.000 OA
BRANCH  17  22
ATOM     18  C   UNL     1       4.710   3.949  17.403  0.00  0.00    +0.000 A 
ATOM     19  C   UNL     1       4.964   3.768  16.039  0.00  0.00    +0.000 A 
ATOM     20  C   UNL     1       6.215   4.091  15.522  0.00  0.00    +0.000 A 
ATOM     21  C   UNL     1       7.223   4.595  16.342  0.00  0.00    +0.000 A 
ATOM     22  C   UNL     1       6.985   4.776  17.701  0.00  0.00    +0.000 A 
ATOM     23  C   UNL     1       5.732   4.448  18.223  0.00  0.00    +0.000 A 
BRANCH  20  24
ATOM     24  O   UNL     1       6.498   3.926  14.198  0.00  0.00    +0.000 OA
ATOM     25  H   UNL     1       6.184   3.049  13.921  0.00  0.00    +0.000 HD
ENDBRANCH  20  24
BRANCH  18  26
ATOM     26  C   UNL     1       3.370   3.606  17.997  0.00  0.00    +0.000 C 
BRANCH  26  27
ATOM     27  C   UNL     1       2.377   4.766  17.889  0.00  0.00    +0.000 C 
BRANCH  27  28
ATOM     28  C   UNL     1       2.136   5.412  19.252  0.00  0.00    +0.000 C 
BRANCH  28  30
ATOM     29  C   UNL     1       1.229   3.734  20.881  0.00  0.00    +0.000 C 
ATOM     30  C   UNL     1       2.474   4.447  20.385  0.00  0.00    +0.000 C 
ENDBRANCH  28  30
ENDBRANCH  27  28
ENDBRANCH  26  27
ENDBRANCH  18  26
ENDBRANCH  17  22
ENDBRANCH   1  17
TORSDOF 20
ENDMDL
MODEL 4
REMARK VINA RESULT:      -5.9      2.769      8.143
REMARK  Name = 
REMARK  21 active torsions:
REMARK  status: ('A' for Active; 'I' for Inactive)
REMARK    1  A    between atoms: C_1  and  C_2
REMARK    2  A    between atoms: C_2  and  C_3
REMARK    3  A    between atoms: C_3  and  C_4
REMARK    4  A    between atoms: C_4  and  C_5
REMARK    5  A    between atoms: C_5  and  C_6
REMARK    6  A    between atoms: C_8  and  O_9
REMARK    7  A    between atoms: C_11  and  O_12
REMARK    8  A    between atoms: O_12  and  C_13
REMARK    9  A    between atoms: C_13  and  C_14
REMARK   10  A    between atoms: C_14  and  C_15
REMARK   11  A    between atoms: C_15  and  C_16
REMARK   12  A    between atoms: C_16  and  C_17
REMARK   13  A    between atoms: C_17  and  C_18
REMARK   14  A    between atoms: C_18  and  C_19
REMARK   15  A    between atoms: C_19  and  C_20
REMARK   16  A    between atoms: C_20  and  O_21
REMARK   17  A    between atoms: O_21  and  C_22
REMARK   18  A    between atoms: C_22  and  C_23
REMARK   19  A    between atoms: C_22  and  C_25
REMARK   20  A    between atoms: C_23  and  O_24
REMARK   21  A    between atoms: C_25  and  O_26
REMARK                            x       y       z     vdW  Elec       q    Type
REMARK                         _______ _______ _______ _____ _____    ______ ____
ROOT
ATOM      1  C   UNL     1       2.583   2.633  19.395  0.00  0.00    +0.000 C 
ENDROOT
BRANCH   1   2
ATOM      2  C   UNL     1       1.345   3.495  19.214  0.00  0.00    +0.000 C 
BRANCH   2   3
ATOM      3  C   UNL     1       1.059   4.260  20.503  0.00  0.00    +0.000 C 
BRANCH   3   4
ATOM      4  C   UNL     1       1.820   5.574  20.551  0.00  0.00    +0.000 C 
BRANCH   4   5
ATOM      5  C   UNL     1       1.983   6.154  19.144  0.00  0.00    +0.000 C 
BRANCH   5   6
ATOM      6  C   UNL     1       2.138   7.662  19.217  0.00  0.00    +0.000 C 
BRANCH   6   7
ATOM      7  C   UNL     1       1.584   8.242  20.516  0.00  0.00    +0.000 C 
BRANCH   7   8
ATOM      8  C   UNL     1       0.668   9.414  20.175  0.00  0.00    +0.000 C 
BRANCH   8   9
ATOM      9  O   UNL     1       1.262  10.237  19.175  0.00  0.00    +0.000 OA
BRANCH   9  10
ATOM     10  C   UNL     1       0.833  11.618  19.277  0.00  0.00    +0.000 C 
BRANCH  10  11
ATOM     11  C   UNL     1      -0.380  11.794  18.351  0.00  0.00    +0.000 C 
BRANCH  11  12
ATOM     12  O   UNL     1      -0.696  13.177  18.191  0.00  0.00    +0.000 OA
ATOM     13  H   UNL     1       0.034  13.663  18.618  0.00  0.00    +0.000 HD
ENDBRANCH  11  12
ENDBRANCH  10  11
BRANCH  10  14
ATOM     14  C   UNL     1       1.949  12.592  18.860  0.00  0.00    +0.000 C 
BRANCH  14  15
ATOM     15  O   UNL     1       2.095  12.635  17.442  0.00  0.00    +0.000 OA
ATOM     16  H   UNL     1       1.444  12.008  17.072  0.00  0.00    +0.000 HD
ENDBRANCH  14  15
ENDBRANCH  10  14
ENDBRANCH   9  10
ENDBRANCH   8   9
ENDBRANCH   7   8
ENDBRANCH   6   7
ENDBRANCH   5   6
ENDBRANCH   4   5
ENDBRANCH   3   4
ENDBRANCH   2   3
ENDBRANCH   1   2
BRANCH   1  17
ATOM     17  O   UNL     1       3.243   2.482  18.139  0.00  0.00    +0.000 OA
BRANCH  17  22
ATOM     18  C   UNL     1       5.645   4.765  16.448  0.00  0.00    +0.000 A 
ATOM     19  C   UNL     1       6.325   5.234  17.579  0.00  0.00    +0.000 A 
ATOM     20  C   UNL     1       5.958   4.777  18.842  0.00  0.00    +0.000 A 
ATOM     21  C   UNL     1       4.923   3.859  19.001  0.00  0.00    +0.000 A 
ATOM     22  C   UNL     1       4.242   3.381  17.885  0.00  0.00    +0.000 A 
ATOM     23  C   UNL     1       4.611   3.833  16.616  0.00  0.00    +0.000 A 
BRANCH  20  24
ATOM     24  O   UNL     1       6.599   5.212  19.965  0.00  0.00    +0.000 OA
ATOM     25  H   UNL     1       5.949   5.641  20.545  0.00  0.00    +0.000 HD
ENDBRANCH  20  24
BRANCH  18  26
ATOM     26  C   UNL     1       6.018   5.233  15.067  0.00  0.00    +0.000 C 
BRANCH  26  27
ATOM     27  C   UNL     1       5.255   4.476  13.977  0.00  0.00    +0.000 C 
BRANCH  27  28
ATOM     28  C   UNL     1       6.183   3.538  13.208  0.00  0.00    +0.000 C 
BRANCH  28  30
ATOM     29  C   UNL     1       5.768   1.803  11.444  0.00  0.00    +0.000 C 
ATOM     30  C   UNL     1       5.653   3.273  11.801  0.00  0.00    +0.000 C 
ENDBRANCH  28  30
ENDBRANCH  27  28
ENDBRANCH  26  27
ENDBRANCH  18  26
ENDBRANCH  17  22
ENDBRANCH   1  17
TORSDOF 20
ENDMDL
MODEL 5
REMARK VINA RESULT:      -5.9      4.524      7.820
REMARK  Name = 
REMARK  21 active torsions:
REMARK  status: ('A' for Active; 'I' for Inactive)
REMARK    1  A    between atoms: C_1  and  C_2
REMARK    2  A    between atoms: C_2  and  C_3
REMARK    3  A    between atoms: C_3  and  C_4
REMARK    4  A    between atoms: C_4  and  C_5
REMARK    5  A    between atoms: C_5  and  C_6
REMARK    6  A    between atoms: C_8  and  O_9
REMARK    7  A    between atoms: C_11  and  O_12
REMARK    8  A    between atoms: O_12  and  C_13
REMARK    9  A    between atoms: C_13  and  C_14
REMARK   10  A    between atoms: C_14  and  C_15
REMARK   11  A    between atoms: C_15  and  C_16
REMARK   12  A    between atoms: C_16  and  C_17
REMARK   13  A    between atoms: C_17  and  C_18
REMARK   14  A    between atoms: C_18  and  C_19
REMARK   15  A    between atoms: C_19  and  C_20
REMARK   16  A    between atoms: C_20  and  O_21
REMARK   17  A    between atoms: O_21  and  C_22
REMARK   18  A    between atoms: C_22  and  C_23
REMARK   19  A    between atoms: C_22  and  C_25
REMARK   20  A    between atoms: C_23  and  O_24
REMARK   21  A    between atoms: C_25  and  O_26
REMARK                            x       y       z     vdW  Elec       q    Type
REMARK                         _______ _______ _______ _____ _____    ______ ____
ROOT
ATOM      1  C   UNL     1       6.485   5.405  19.375  0.00  0.00    +0.000 C 
ENDROOT
BRANCH   1   2
ATOM      2  C   UNL     1       7.786   5.692  18.645  0.00  0.00    +0.000 C 
BRANCH   2   3
ATOM      3  C   UNL     1       7.492   6.422  17.339  0.00  0.00    +0.000 C 
BRANCH   3   4
ATOM      4  C   UNL     1       7.230   7.901  17.574  0.00  0.00    +0.000 C 
BRANCH   4   5
ATOM      5  C   UNL     1       8.386   8.535  18.350  0.00  0.00    +0.000 C 
BRANCH   5   6
ATOM      6  C   UNL     1       8.616   9.957  17.869  0.00  0.00    +0.000 C 
BRANCH   6   7
ATOM      7  C   UNL     1       9.561  10.735  18.782  0.00  0.00    +0.000 C 
BRANCH   7   8
ATOM      8  C   UNL     1      10.506  11.561  17.916  0.00  0.00    +0.000 C 
BRANCH   8   9
ATOM      9  O   UNL     1      10.004  12.886  17.754  0.00  0.00    +0.000 OA
BRANCH   9  10
ATOM     10  C   UNL     1      11.015  13.890  18.017  0.00  0.00    +0.000 C 
BRANCH  10  11
ATOM     11  C   UNL     1      10.915  14.268  19.503  0.00  0.00    +0.000 C 
BRANCH  11  12
ATOM     12  O   UNL     1      10.999  15.683  19.669  0.00  0.00    +0.000 OA
ATOM     13  H   UNL     1      11.287  15.822  20.591  0.00  0.00    +0.000 HD
ENDBRANCH  11  12
ENDBRANCH  10  11
BRANCH  10  14
ATOM     14  C   UNL     1      10.811  15.143  17.148  0.00  0.00    +0.000 C 
BRANCH  14  15
ATOM     15  O   UNL     1       9.438  15.530  17.112  0.00  0.00    +0.000 OA
ATOM     16  H   UNL     1       9.400  16.462  17.404  0.00  0.00    +0.000 HD
ENDBRANCH  14  15
ENDBRANCH  10  14
ENDBRANCH   9  10
ENDBRANCH   8   9
ENDBRANCH   7   8
ENDBRANCH   6   7
ENDBRANCH   5   6
ENDBRANCH   4   5
ENDBRANCH   3   4
ENDBRANCH   2   3
ENDBRANCH   1   2
BRANCH   1  17
ATOM     17  O   UNL     1       5.819   4.312  18.745  0.00  0.00    +0.000 OA
BRANCH  17  22
ATOM     18  C   UNL     1       2.353   4.958  19.933  0.00  0.00    +0.000 A 
ATOM     19  C   UNL     1       1.742   3.793  19.453  0.00  0.00    +0.000 A 
ATOM     20  C   UNL     1       2.501   2.853  18.760  0.00  0.00    +0.000 A 
ATOM     21  C   UNL     1       3.861   3.052  18.536  0.00  0.00    +0.000 A 
ATOM     22  C   UNL     1       4.482   4.204  19.012  0.00  0.00    +0.000 A 
ATOM     23  C   UNL     1       3.724   5.146  19.711  0.00  0.00    +0.000 A 
BRANCH  20  24
ATOM     24  O   UNL     1       1.940   1.707  18.279  0.00  0.00    +0.000 OA
ATOM     25  H   UNL     1       2.555   0.972  18.436  0.00  0.00    +0.000 HD
ENDBRANCH  20  24
BRANCH  18  26
ATOM     26  C   UNL     1       1.565   5.993  20.690  0.00  0.00    +0.000 C 
BRANCH  26  27
ATOM     27  C   UNL     1       1.881   7.416  20.220  0.00  0.00    +0.000 C 
BRANCH  27  28
ATOM     28  C   UNL     1       1.482   8.445  21.275  0.00  0.00    +0.000 C 
BRANCH  28  30
ATOM     29  C   UNL     1      -0.421   9.306  22.664  0.00  0.00    +0.000 C 
ATOM     30  C   UNL     1      -0.035   8.514  21.429  0.00  0.00    +0.000 C 
ENDBRANCH  28  30
ENDBRANCH  27  28
ENDBRANCH  26  27
ENDBRANCH  18  26
ENDBRANCH  17  22
ENDBRANCH   1  17
TORSDOF 20
ENDMDL
MODEL 6
REMARK VINA RESULT:      -5.8      2.698      8.422
REMARK  Name = 
REMARK  21 active torsions:
REMARK  status: ('A' for Active; 'I' for Inactive)
REMARK    1  A    between atoms: C_1  and  C_2
REMARK    2  A    between atoms: C_2  and  C_3
REMARK    3  A    between atoms: C_3  and  C_4
REMARK    4  A    between atoms: C_4  and  C_5
REMARK    5  A    between atoms: C_5  and  C_6
REMARK    6  A    between atoms: C_8  and  O_9
REMARK    7  A    between atoms: C_11  and  O_12
REMARK    8  A    between atoms: O_12  and  C_13
REMARK    9  A    between atoms: C_13  and  C_14
REMARK   10  A    between atoms: C_14  and  C_15
REMARK   11  A    between atoms: C_15  and  C_16
REMARK   12  A    between atoms: C_16  and  C_17
REMARK   13  A    between atoms: C_17  and  C_18
REMARK   14  A    between atoms: C_18  and  C_19
REMARK   15  A    between atoms: C_19  and  C_20
REMARK   16  A    between atoms: C_20  and  O_21
REMARK   17  A    between atoms: O_21  and  C_22
REMARK   18  A    between atoms: C_22  and  C_23
REMARK   19  A    between atoms: C_22  and  C_25
REMARK   20  A    between atoms: C_23  and  O_24
REMARK   21  A    between atoms: C_25  and  O_26
REMARK                            x       y       z     vdW  Elec       q    Type
REMARK                         _______ _______ _______ _____ _____    ______ ____
ROOT
ATOM      1  C   UNL     1       4.323   3.150  19.283  0.00  0.00    +0.000 C 
ENDROOT
BRANCH   1   2
ATOM      2  C   UNL     1       3.262   3.850  20.114  0.00  0.00    +0.000 C 
BRANCH   2   3
ATOM      3  C   UNL     1       3.057   5.270  19.595  0.00  0.00    +0.000 C 
BRANCH   3   4
ATOM      4  C   UNL     1       1.998   6.009  20.397  0.00  0.00    +0.000 C 
BRANCH   4   5
ATOM      5  C   UNL     1       1.951   7.485  19.995  0.00  0.00    +0.000 C 
BRANCH   5   6
ATOM      6  C   UNL     1       2.351   7.640  18.539  0.00  0.00    +0.000 C 
BRANCH   6   7
ATOM      7  C   UNL     1       1.794   8.917  17.915  0.00  0.00    +0.000 C 
BRANCH   7   8
ATOM      8  C   UNL     1       1.117   9.739  19.008  0.00  0.00    +0.000 C 
BRANCH   8   9
ATOM      9  O   UNL     1       0.522  10.910  18.456  0.00  0.00    +0.000 OA
BRANCH   9  10
ATOM     10  C   UNL     1       0.943  12.114  19.144  0.00  0.00    +0.000 C 
BRANCH  10  11
ATOM     11  C   UNL     1       2.339  12.482  18.621  0.00  0.00    +0.000 C 
BRANCH  11  12
ATOM     12  O   UNL     1       2.311  12.681  17.208  0.00  0.00    +0.000 OA
ATOM     13  H   UNL     1       3.198  12.427  16.889  0.00  0.00    +0.000 HD
ENDBRANCH  11  12
ENDBRANCH  10  11
BRANCH  10  14
ATOM     14  C   UNL     1       0.999  11.906  20.668  0.00  0.00    +0.000 C 
BRANCH  14  15
ATOM     15  O   UNL     1       1.612  13.017  21.319  0.00  0.00    +0.000 OA
ATOM     16  H   UNL     1       2.512  13.102  20.947  0.00  0.00    +0.000 HD
ENDBRANCH  14  15
ENDBRANCH  10  14
ENDBRANCH   9  10
ENDBRANCH   8   9
ENDBRANCH   7   8
ENDBRANCH   6   7
ENDBRANCH   5   6
ENDBRANCH   4   5
ENDBRANCH   3   4
ENDBRANCH   2   3
ENDBRANCH   1   2
BRANCH   1  17
ATOM     17  O   UNL     1       5.557   3.857  19.394  0.00  0.00    +0.000 OA
BRANCH  17  22
ATOM     18  C   UNL     1       6.151   4.857  15.860  0.00  0.00    +0.000 A 
ATOM     19  C   UNL     1       6.873   6.034  16.090  0.00  0.00    +0.000 A 
ATOM     20  C   UNL     1       7.127   6.442  17.397  0.00  0.00    +0.000 A 
ATOM     21  C   UNL     1       6.674   5.697  18.483  0.00  0.00    +0.000 A 
ATOM     22  C   UNL     1       5.959   4.522  18.269  0.00  0.00    +0.000 A 
ATOM     23  C   UNL     1       5.706   4.107  16.959  0.00  0.00    +0.000 A 
BRANCH  20  24
ATOM     24  O   UNL     1       7.828   7.582  17.658  0.00  0.00    +0.000 OA
ATOM     25  H   UNL     1       7.491   7.971  18.482  0.00  0.00    +0.000 HD
ENDBRANCH  20  24
BRANCH  18  26
ATOM     26  C   UNL     1       5.861   4.383  14.461  0.00  0.00    +0.000 C 
BRANCH  26  27
ATOM     27  C   UNL     1       7.083   4.505  13.547  0.00  0.00    +0.000 C 
BRANCH  27  28
ATOM     28  C   UNL     1       6.767   4.008  12.137  0.00  0.00    +0.000 C 
BRANCH  28  30
ATOM     29  C   UNL     1       5.811   1.800  11.430  0.00  0.00    +0.000 C 
ATOM     30  C   UNL     1       5.530   3.114  12.135  0.00  0.00    +0.000 C 
ENDBRANCH  28  30
ENDBRANCH  27  28
ENDBRANCH  26  27
ENDBRANCH  18  26
ENDBRANCH  17  22
ENDBRANCH   1  17
TORSDOF 20
ENDMDL
MODEL 7
REMARK VINA RESULT:      -5.8      1.585      2.653
REMARK  Name = 
REMARK  21 active torsions:
REMARK  status: ('A' for Active; 'I' for Inactive)
REMARK    1  A    between atoms: C_1  and  C_2
REMARK    2  A    between atoms: C_2  and  C_3
REMARK    3  A    between atoms: C_3  and  C_4
REMARK    4  A    between atoms: C_4  and  C_5
REMARK    5  A    between atoms: C_5  and  C_6
REMARK    6  A    between atoms: C_8  and  O_9
REMARK    7  A    between atoms: C_11  and  O_12
REMARK    8  A    between atoms: O_12  and  C_13
REMARK    9  A    between atoms: C_13  and  C_14
REMARK   10  A    between atoms: C_14  and  C_15
REMARK   11  A    between atoms: C_15  and  C_16
REMARK   12  A    between atoms: C_16  and  C_17
REMARK   13  A    between atoms: C_17  and  C_18
REMARK   14  A    between atoms: C_18  and  C_19
REMARK   15  A    between atoms: C_19  and  C_20
REMARK   16  A    between atoms: C_20  and  O_21
REMARK   17  A    between atoms: O_21  and  C_22
REMARK   18  A    between atoms: C_22  and  C_23
REMARK   19  A    between atoms: C_22  and  C_25
REMARK   20  A    between atoms: C_23  and  O_24
REMARK   21  A    between atoms: C_25  and  O_26
REMARK                            x       y       z     vdW  Elec       q    Type
REMARK                         _______ _______ _______ _____ _____    ______ ____
ROOT
ATOM      1  C   UNL     1       1.429   5.420  20.553  0.00  0.00    +0.000 C 
ENDROOT
BRANCH   1   2
ATOM      2  C   UNL     1       2.214   4.365  21.313  0.00  0.00    +0.000 C 
BRANCH   2   3
ATOM      3  C   UNL     1       1.527   3.010  21.169  0.00  0.00    +0.000 C 
BRANCH   3   4
ATOM      4  C   UNL     1       2.006   2.272  19.930  0.00  0.00    +0.000 C 
BRANCH   4   5
ATOM      5  C   UNL     1       0.984   2.401  18.798  0.00  0.00    +0.000 C 
BRANCH   5   6
ATOM      6  C   UNL     1       1.397   3.512  17.849  0.00  0.00    +0.000 C 
BRANCH   6   7
ATOM      7  C   UNL     1       2.772   3.270  17.231  0.00  0.00    +0.000 C 
BRANCH   7   8
ATOM      8  C   UNL     1       3.684   4.435  17.600  0.00  0.00    +0.000 C 
BRANCH   8   9
ATOM      9  O   UNL     1       5.047   4.101  17.349  0.00  0.00    +0.000 OA
BRANCH   9  10
ATOM     10  C   UNL     1       5.740   5.144  16.621  0.00  0.00    +0.000 C 
BRANCH  10  11
ATOM     11  C   UNL     1       7.064   4.552  16.113  0.00  0.00    +0.000 C 
BRANCH  11  12
ATOM     12  O   UNL     1       7.581   5.327  15.032  0.00  0.00    +0.000 OA
ATOM     13  H   UNL     1       6.969   6.080  14.933  0.00  0.00    +0.000 HD
ENDBRANCH  11  12
ENDBRANCH  10  11
BRANCH  10  14
ATOM     14  C   UNL     1       6.027   6.365  17.513  0.00  0.00    +0.000 C 
BRANCH  14  15
ATOM     15  O   UNL     1       6.725   7.380  16.793  0.00  0.00    +0.000 OA
ATOM     16  H   UNL     1       7.541   7.571  17.294  0.00  0.00    +0.000 HD
ENDBRANCH  14  15
ENDBRANCH  10  14
ENDBRANCH   9  10
ENDBRANCH   8   9
ENDBRANCH   7   8
ENDBRANCH   6   7
ENDBRANCH   5   6
ENDBRANCH   4   5
ENDBRANCH   3   4
ENDBRANCH   2   3
ENDBRANCH   1   2
BRANCH   1  17
ATOM     17  O   UNL     1       1.790   6.716  21.032  0.00  0.00    +0.000 OA
BRANCH  17  22
ATOM     18  C   UNL     1       0.997   9.901  19.281  0.00  0.00    +0.000 A 
ATOM     19  C   UNL     1       1.706   9.675  18.095  0.00  0.00    +0.000 A 
ATOM     20  C   UNL     1       2.411   8.486  17.931  0.00  0.00    +0.000 A 
ATOM     21  C   UNL     1       2.425   7.514  18.929  0.00  0.00    +0.000 A 
ATOM     22  C   UNL     1       1.721   7.724  20.111  0.00  0.00    +0.000 A 
ATOM     23  C   UNL     1       1.008   8.914  20.277  0.00  0.00    +0.000 A 
BRANCH  20  24
ATOM     24  O   UNL     1       3.112   8.231  16.788  0.00  0.00    +0.000 OA
ATOM     25  H   UNL     1       2.650   7.538  16.290  0.00  0.00    +0.000 HD
ENDBRANCH  20  24
BRANCH  18  26
ATOM     26  C   UNL     1       0.220  11.173  19.491  0.00  0.00    +0.000 C 
BRANCH  26  27
ATOM     27  C   UNL     1      -0.793  11.421  18.371  0.00  0.00    +0.000 C 
BRANCH  27  28
ATOM     28  C   UNL     1      -1.733  10.229  18.205  0.00  0.00    +0.000 C 
BRANCH  28  30
ATOM     29  C   UNL     1      -4.195  10.505  17.811  0.00  0.00    +0.000 C 
ATOM     30  C   UNL     1      -2.818  10.524  17.173  0.00  0.00    +0.000 C 
ENDBRANCH  28  30
ENDBRANCH  27  28
ENDBRANCH  26  27
ENDBRANCH  18  26
ENDBRANCH  17  22
ENDBRANCH   1  17
TORSDOF 20
ENDMDL
MODEL 8
REMARK VINA RESULT:      -5.8      4.263      7.569
REMARK  Name = 
REMARK  21 active torsions:
REMARK  status: ('A' for Active; 'I' for Inactive)
REMARK    1  A    between atoms: C_1  and  C_2
REMARK    2  A    between atoms: C_2  and  C_3
REMARK    3  A    between atoms: C_3  and  C_4
REMARK    4  A    between atoms: C_4  and  C_5
REMARK    5  A    between atoms: C_5  and  C_6
REMARK    6  A    between atoms: C_8  and  O_9
REMARK    7  A    between atoms: C_11  and  O_12
REMARK    8  A    between atoms: O_12  and  C_13
REMARK    9  A    between atoms: C_13  and  C_14
REMARK   10  A    between atoms: C_14  and  C_15
REMARK   11  A    between atoms: C_15  and  C_16
REMARK   12  A    between atoms: C_16  and  C_17
REMARK   13  A    between atoms: C_17  and  C_18
REMARK   14  A    between atoms: C_18  and  C_19
REMARK   15  A    between atoms: C_19  and  C_20
REMARK   16  A    between atoms: C_20  and  O_21
REMARK   17  A    between atoms: O_21  and  C_22
REMARK   18  A    between atoms: C_22  and  C_23
REMARK   19  A    between atoms: C_22  and  C_25
REMARK   20  A    between atoms: C_23  and  O_24
REMARK   21  A    between atoms: C_25  and  O_26
REMARK                            x       y       z     vdW  Elec       q    Type
REMARK                         _______ _______ _______ _____ _____    ______ ____
ROOT
ATOM      1  C   UNL     1       4.737   4.877  16.223  0.00  0.00    +0.000 C 
ENDROOT
BRANCH   1   2
ATOM      2  C   UNL     1       3.654   5.056  17.273  0.00  0.00    +0.000 C 
BRANCH   2   3
ATOM      3  C   UNL     1       3.303   6.535  17.404  0.00  0.00    +0.000 C 
BRANCH   3   4
ATOM      4  C   UNL     1       3.063   6.925  18.853  0.00  0.00    +0.000 C 
BRANCH   4   5
ATOM      5  C   UNL     1       3.378   5.752  19.785  0.00  0.00    +0.000 C 
BRANCH   5   6
ATOM      6  C   UNL     1       2.193   5.478  20.694  0.00  0.00    +0.000 C 
BRANCH   6   7
ATOM      7  C   UNL     1       1.369   4.279  20.231  0.00  0.00    +0.000 C 
BRANCH   7   8
ATOM      8  C   UNL     1       1.917   3.022  20.898  0.00  0.00    +0.000 C 
BRANCH   8   9
ATOM      9  O   UNL     1       1.823   1.907  20.016  0.00  0.00    +0.000 OA
BRANCH   9  10
ATOM     10  C   UNL     1       3.114   1.519  19.484  0.00  0.00    +0.000 C 
BRANCH  10  11
ATOM     11  C   UNL     1       4.187   2.288  20.269  0.00  0.00    +0.000 C 
BRANCH  11  12
ATOM     12  O   UNL     1       5.338   1.472  20.482  0.00  0.00    +0.000 OA
ATOM     13  H   UNL     1       5.030   0.719  21.020  0.00  0.00    +0.000 HD
ENDBRANCH  11  12
ENDBRANCH  10  11
BRANCH  10  14
ATOM     14  C   UNL     1       3.233   1.849  17.985  0.00  0.00    +0.000 C 
BRANCH  14  15
ATOM     15  O   UNL     1       1.959   1.816  17.345  0.00  0.00    +0.000 OA
ATOM     16  H   UNL     1       1.315   1.511  18.014  0.00  0.00    +0.000 HD
ENDBRANCH  14  15
ENDBRANCH  10  14
ENDBRANCH   9  10
ENDBRANCH   8   9
ENDBRANCH   7   8
ENDBRANCH   6   7
ENDBRANCH   5   6
ENDBRANCH   4   5
ENDBRANCH   3   4
ENDBRANCH   2   3
ENDBRANCH   1   2
BRANCH   1  17
ATOM     17  O   UNL     1       5.910   4.344  16.836  0.00  0.00    +0.000 OA
BRANCH  17  22
ATOM     18  C   UNL     1       7.835   7.364  17.841  0.00  0.00    +0.000 A 
ATOM     19  C   UNL     1       8.250   6.940  19.109  0.00  0.00    +0.000 A 
ATOM     20  C   UNL     1       7.875   5.682  19.572  0.00  0.00    +0.000 A 
ATOM     21  C   UNL     1       7.090   4.835  18.793  0.00  0.00    +0.000 A 
ATOM     22  C   UNL     1       6.674   5.242  17.528  0.00  0.00    +0.000 A 
ATOM     23  C   UNL     1       7.053   6.502  17.059  0.00  0.00    +0.000 A 
BRANCH  20  24
ATOM     24  O   UNL     1       8.261   5.236  20.801  0.00  0.00    +0.000 OA
ATOM     25  H   UNL     1       9.009   4.626  20.688  0.00  0.00    +0.000 HD
ENDBRANCH  20  24
BRANCH  18  26
ATOM     26  C   UNL     1       8.226   8.716  17.307  0.00  0.00    +0.000 C 
BRANCH  26  27
ATOM     27  C   UNL     1       8.140   9.806  18.379  0.00  0.00    +0.000 C 
BRANCH  27  28
ATOM     28  C   UNL     1       9.529  10.190  18.885  0.00  0.00    +0.000 C 
BRANCH  28  30
ATOM     29  C   UNL     1       8.923  12.380  17.822  0.00  0.00    +0.000 C 
ATOM     30  C   UNL     1       9.693  11.706  18.943  0.00  0.00    +0.000 C 
ENDBRANCH  28  30
ENDBRANCH  27  28
ENDBRANCH  26  27
ENDBRANCH  18  26
ENDBRANCH  17  22
ENDBRANCH   1  17
TORSDOF 20
ENDMDL
MODEL 9
REMARK VINA RESULT:      -5.8      2.904      8.034
REMARK  Name = 
REMARK  21 active torsions:
REMARK  status: ('A' for Active; 'I' for Inactive)
REMARK    1  A    between atoms: C_1  and  C_2
REMARK    2  A    between atoms: C_2  and  C_3
REMARK    3  A    between atoms: C_3  and  C_4
REMARK    4  A    between atoms: C_4  and  C_5
REMARK    5  A    between atoms: C_5  and  C_6
REMARK    6  A    between atoms: C_8  and  O_9
REMARK    7  A    between atoms: C_11  and  O_12
REMARK    8  A    between atoms: O_12  and  C_13
REMARK    9  A    between atoms: C_13  and  C_14
REMARK   10  A    between atoms: C_14  and  C_15
REMARK   11  A    between atoms: C_15  and  C_16
REMARK   12  A    between atoms: C_16  and  C_17
REMARK   13  A    between atoms: C_17  and  C_18
REMARK   14  A    between atoms: C_18  and  C_19
REMARK   15  A    between atoms: C_19  and  C_20
REMARK   16  A    between atoms: C_20  and  O_21
REMARK   17  A    between atoms: O_21  and  C_22
REMARK   18  A    between atoms: C_22  and  C_23
REMARK   19  A    between atoms: C_22  and  C_25
REMARK   20  A    between atoms: C_23  and  O_24
REMARK   21  A    between atoms: C_25  and  O_26
REMARK                            x       y       z     vdW  Elec       q    Type
REMARK                         _______ _______ _______ _____ _____    ______ ____
ROOT
ATOM      1  C   UNL     1       4.107   3.912  18.234  0.00  0.00    +0.000 C 
ENDROOT
BRANCH   1   2
ATOM      2  C   UNL     1       4.447   3.052  19.439  0.00  0.00    +0.000 C 
BRANCH   2   3
ATOM      3  C   UNL     1       3.231   2.219  19.835  0.00  0.00    +0.000 C 
BRANCH   3   4
ATOM      4  C   UNL     1       2.566   2.764  21.088  0.00  0.00    +0.000 C 
BRANCH   4   5
ATOM      5  C   UNL     1       1.106   3.127  20.807  0.00  0.00    +0.000 C 
BRANCH   5   6
ATOM      6  C   UNL     1       1.021   4.530  20.230  0.00  0.00    +0.000 C 
BRANCH   6   7
ATOM      7  C   UNL     1       1.986   5.498  20.909  0.00  0.00    +0.000 C 
BRANCH   7   8
ATOM      8  C   UNL     1       1.417   6.909  20.802  0.00  0.00    +0.000 C 
BRANCH   8   9
ATOM      9  O   UNL     1       2.202   7.698  19.911  0.00  0.00    +0.000 OA
BRANCH   9  10
ATOM     10  C   UNL     1       1.396   8.340  18.893  0.00  0.00    +0.000 C 
BRANCH  10  11
ATOM     11  C   UNL     1       2.352   8.884  17.821  0.00  0.00    +0.000 C 
BRANCH  11  12
ATOM     12  O   UNL     1       1.935  10.177  17.383  0.00  0.00    +0.000 OA
ATOM     13  H   UNL     1       1.766  10.087  16.426  0.00  0.00    +0.000 HD
ENDBRANCH  11  12
ENDBRANCH  10  11
BRANCH  10  14
ATOM     14  C   UNL     1       0.559   9.494  19.475  0.00  0.00    +0.000 C 
BRANCH  14  15
ATOM     15  O   UNL     1       1.376  10.410  20.201  0.00  0.00    +0.000 OA
ATOM     16  H   UNL     1       0.773  11.055  20.620  0.00  0.00    +0.000 HD
ENDBRANCH  14  15
ENDBRANCH  10  14
ENDBRANCH   9  10
ENDBRANCH   8   9
ENDBRANCH   7   8
ENDBRANCH   6   7
ENDBRANCH   5   6
ENDBRANCH   4   5
ENDBRANCH   3   4
ENDBRANCH   2   3
ENDBRANCH   1   2
BRANCH   1  17
ATOM     17  O   UNL     1       4.438   3.206  17.039  0.00  0.00    +0.000 OA
BRANCH  17  22
ATOM     18  C   UNL     1       6.302   4.317  14.017  0.00  0.00    +0.000 A 
ATOM     19  C   UNL     1       7.098   5.305  14.609  0.00  0.00    +0.000 A 
ATOM     20  C   UNL     1       6.981   5.559  15.973  0.00  0.00    +0.000 A 
ATOM     21  C   UNL     1       6.082   4.844  16.762  0.00  0.00    +0.000 A 
ATOM     22  C   UNL     1       5.288   3.856  16.187  0.00  0.00    +0.000 A 
ATOM     23  C   UNL     1       5.407   3.596  14.820  0.00  0.00    +0.000 A 
BRANCH  20  24
ATOM     24  O   UNL     1       7.741   6.513  16.583  0.00  0.00    +0.000 OA
ATOM     25  H   UNL     1       8.383   6.072  17.163  0.00  0.00    +0.000 HD
ENDBRANCH  20  24
BRANCH  18  26
ATOM     26  C   UNL     1       6.406   4.013  12.546  0.00  0.00    +0.000 C 
BRANCH  26  27
ATOM     27  C   UNL     1       6.090   2.547  12.237  0.00  0.00    +0.000 C 
BRANCH  27  28
ATOM     28  C   UNL     1       4.861   2.428  11.339  0.00  0.00    +0.000 C 
BRANCH  28  30
ATOM     29  C   UNL     1       3.199   3.763  10.017  0.00  0.00    +0.000 C 
ATOM     30  C   UNL     1       4.149   3.771  11.200  0.00  0.00    +0.000 C 
ENDBRANCH  28  30
ENDBRANCH  27  28
ENDBRANCH  26  27
ENDBRANCH  18  26
ENDBRANCH  17  22
ENDBRANCH   1  17
TORSDOF 20
ENDMDL
