MODEL 1
REMARK VINA RESULT:      -5.9      0.000      0.000
REMARK  Name = 
REMARK  9 active torsions:
REMARK  status: ('A' for Active; 'I' for Inactive)
REMARK    1  A    between atoms: C_1  and  C_2
REMARK    2  A    between atoms: C_2  and  C_3
REMARK    3  A    between atoms: N_4  and  N_5
REMARK    4  A    between atoms: C_6  and  N_7
REMARK    5  A    between atoms: C_8  and  C_9
REMARK    6  A    between atoms: C_11  and  C_12
REMARK    7  A    between atoms: C_11  and  C_14
REMARK    8  A    between atoms: C_16  and  C_17
REMARK    9  A    between atoms: C_17  and  C_18
REMARK                            x       y       z     vdW  Elec       q    Type
REMARK                         _______ _______ _______ _____ _____    ______ ____
ROOT
ATOM      1  N   UNL     1       3.672   3.612  19.426  0.00  0.00    +0.000 N 
ATOM      2  C   UNL     1       4.138   3.123  18.211  0.00  0.00    +0.000 C 
ATOM      3  C   UNL     1       5.017   3.999  17.698  0.00  0.00    +0.000 C 
ATOM      4  C   UNL     1       5.086   5.269  18.514  0.00  0.00    +0.000 C 
ATOM      5  C   UNL     1       3.879   5.083  19.501  0.00  0.00    +0.000 C 
ENDROOT
BRANCH   2   6
ATOM      6  N   UNL     1       3.747   1.924  17.700  0.00  0.00    +0.000 N 
ATOM      7  H   UNL     1       3.988   1.154  18.322  0.00  0.00    +0.000 HD
ATOM      8  H   UNL     1       3.956   1.754  16.720  0.00  0.00    +0.000 HD
ENDBRANCH   2   6
BRANCH   1  10
ATOM      9  C   UNL     1       2.590   2.708  21.291  0.00  0.00    +0.000 C 
ATOM     10  N   UNL     1       3.687   2.936  20.617  0.00  0.00    +0.000 NA
BRANCH   9  12
ATOM     11  C   UNL     1       0.710   2.599  19.588  0.00  0.00    +0.000 C 
ATOM     12  C   UNL     1       1.167   3.089  20.942  0.00  0.00    +0.000 C 
ENDBRANCH   9  12
ENDBRANCH   1  10
BRANCH   3  13
ATOM     13  C   UNL     1       5.642   3.827  16.323  0.00  0.00    +0.000 C 
ATOM     14  N   UNL     1       6.161   3.683  15.183  0.00  0.00    +0.000 NA
ENDBRANCH   3  13
BRANCH   4  15
ATOM     15  C   UNL     1       4.878   6.511  17.665  0.00  0.00    +0.000 C 
ATOM     16  N   UNL     1       4.705   7.543  16.960  0.00  0.00    +0.000 NA
ENDBRANCH   4  15
BRANCH   4  17
ATOM     17  C   UNL     1       6.353   5.324  19.260  0.00  0.00    +0.000 C 
ATOM     18  N   UNL     1       7.357   5.386  19.831  0.00  0.00    +0.000 NA
ENDBRANCH   4  17
BRANCH   5  19
ATOM     19  C   UNL     1       2.579   5.806  19.043  0.00  0.00    +0.000 C 
ATOM     20  C   UNL     1       2.042   6.849  20.005  0.00  0.00    +0.000 C 
ENDBRANCH   5  19
TORSDOF 7
ENDMDL
MODEL 2
REMARK VINA RESULT:      -5.6      1.824      4.935
REMARK  Name = 
REMARK  9 active torsions:
REMARK  status: ('A' for Active; 'I' for Inactive)
REMARK    1  A    between atoms: C_1  and  C_2
REMARK    2  A    between atoms: C_2  and  C_3
REMARK    3  A    between atoms: N_4  and  N_5
REMARK    4  A    between atoms: C_6  and  N_7
REMARK    5  A    between atoms: C_8  and  C_9
REMARK    6  A    between atoms: C_11  and  C_12
REMARK    7  A    between atoms: C_11  and  C_14
REMARK    8  A    between atoms: C_16  and  C_17
REMARK    9  A    between atoms: C_17  and  C_18
REMARK                            x       y       z     vdW  Elec       q    Type
REMARK                         _______ _______ _______ _____ _____    ______ ____
ROOT
ATOM      1  N   UNL     1       4.501   5.083  17.884  0.00  0.00    +0.000 N 
ATOM      2  C   UNL     1       5.217   4.215  18.699  0.00  0.00    +0.000 C 
ATOM      3  C   UNL     1       4.367   3.328  19.243  0.00  0.00    +0.000 C 
ATOM      4  C   UNL     1       2.929   3.660  18.922  0.00  0.00    +0.000 C 
ATOM      5  C   UNL     1       3.064   5.081  18.269  0.00  0.00    +0.000 C 
ENDROOT
BRANCH   2   6
ATOM      6  N   UNL     1       6.568   4.289  18.848  0.00  0.00    +0.000 N 
ATOM      7  H   UNL     1       6.879   3.822  19.697  0.00  0.00    +0.000 HD
ATOM      8  H   UNL     1       6.997   5.196  18.686  0.00  0.00    +0.000 HD
ENDBRANCH   2   6
BRANCH   1  10
ATOM      9  C   UNL     1       5.464   6.410  16.217  0.00  0.00    +0.000 C 
ATOM     10  N   UNL     1       4.776   5.355  16.570  0.00  0.00    +0.000 NA
BRANCH   9  12
ATOM     11  C   UNL     1       7.544   7.267  17.396  0.00  0.00    +0.000 C 
ATOM     12  C   UNL     1       6.078   7.479  17.096  0.00  0.00    +0.000 C 
ENDBRANCH   9  12
ENDBRANCH   1  10
BRANCH   3  13
ATOM     13  C   UNL     1       4.803   2.297  20.271  0.00  0.00    +0.000 C 
ATOM     14  N   UNL     1       5.166   1.441  21.124  0.00  0.00    +0.000 NA
ENDBRANCH   3  13
BRANCH   4  15
ATOM     15  C   UNL     1       2.065   3.740  20.170  0.00  0.00    +0.000 C 
ATOM     16  N   UNL     1       1.348   3.807  21.205  0.00  0.00    +0.000 NA
ENDBRANCH   4  15
BRANCH   4  17
ATOM     17  C   UNL     1       2.392   2.697  17.948  0.00  0.00    +0.000 C 
ATOM     18  N   UNL     1       1.981   1.953  17.163  0.00  0.00    +0.000 NA
ENDBRANCH   4  17
BRANCH   5  19
ATOM     19  C   UNL     1       2.797   6.253  19.258  0.00  0.00    +0.000 C 
ATOM     20  C   UNL     1       2.486   7.591  18.613  0.00  0.00    +0.000 C 
ENDBRANCH   5  19
TORSDOF 7
ENDMDL
MODEL 3
REMARK VINA RESULT:      -5.6      1.967      5.296
REMARK  Name = 
REMARK  9 active torsions:
REMARK  status: ('A' for Active; 'I' for Inactive)
REMARK    1  A    between atoms: C_1  and  C_2
REMARK    2  A    between atoms: C_2  and  C_3
REMARK    3  A    between atoms: N_4  and  N_5
REMARK    4  A    between atoms: C_6  and  N_7
REMARK    5  A    between atoms: C_8  and  C_9
REMARK    6  A    between atoms: C_11  and  C_12
REMARK    7  A    between atoms: C_11  and  C_14
REMARK    8  A    between atoms: C_16  and  C_17
REMARK    9  A    between atoms: C_17  and  C_18
REMARK                            x       y       z     vdW  Elec       q    Type
REMARK                         _______ _______ _______ _____ _____    ______ ____
ROOT
ATOM      1  N   UNL     1       5.455   5.032  18.830  0.00  0.00    +0.000 N 
ATOM      2  C   UNL     1       4.258   5.428  19.415  0.00  0.00    +0.000 C 
ATOM      3  C   UNL     1       3.475   4.349  19.578  0.00  0.00    +0.000 C 
ATOM      4  C   UNL     1       4.076   3.118  18.941  0.00  0.00    +0.000 C 
ATOM      5  C   UNL     1       5.280   3.727  18.138  0.00  0.00    +0.000 C 
ENDROOT
BRANCH   2   6
ATOM      6  N   UNL     1       4.002   6.716  19.772  0.00  0.00    +0.000 N 
ATOM      7  H   UNL     1       3.920   6.818  20.781  0.00  0.00    +0.000 HD
ATOM      8  H   UNL     1       3.286   7.204  19.241  0.00  0.00    +0.000 HD
ENDBRANCH   2   6
BRANCH   1  10
ATOM      9  C   UNL     1       7.503   6.155  18.727  0.00  0.00    +0.000 C 
ATOM     10  N   UNL     1       6.707   5.299  19.314  0.00  0.00    +0.000 NA
BRANCH   9  12
ATOM     11  C   UNL     1       7.772   8.405  17.580  0.00  0.00    +0.000 C 
ATOM     12  C   UNL     1       7.248   6.990  17.490  0.00  0.00    +0.000 C 
ENDBRANCH   9  12
ENDBRANCH   1  10
BRANCH   3  13
ATOM     13  C   UNL     1       2.049   4.439  20.097  0.00  0.00    +0.000 C 
ATOM     14  N   UNL     1       0.866   4.513  20.528  0.00  0.00    +0.000 NA
ENDBRANCH   3  13
BRANCH   4  15
ATOM     15  C   UNL     1       3.109   2.432  17.989  0.00  0.00    +0.000 C 
ATOM     16  N   UNL     1       2.306   1.864  17.200  0.00  0.00    +0.000 NA
ENDBRANCH   4  15
BRANCH   4  17
ATOM     17  C   UNL     1       4.565   2.197  19.978  0.00  0.00    +0.000 C 
ATOM     18  N   UNL     1       4.968   1.464  20.778  0.00  0.00    +0.000 NA
ENDBRANCH   4  17
BRANCH   5  19
ATOM     19  C   UNL     1       4.966   3.982  16.635  0.00  0.00    +0.000 C 
ATOM     20  C   UNL     1       6.163   3.941  15.704  0.00  0.00    +0.000 C 
ENDBRANCH   5  19
TORSDOF 7
ENDMDL
MODEL 4
REMARK VINA RESULT:      -5.5      1.576      3.656
REMARK  Name = 
REMARK  9 active torsions:
REMARK  status: ('A' for Active; 'I' for Inactive)
REMARK    1  A    between atoms: C_1  and  C_2
REMARK    2  A    between atoms: C_2  and  C_3
REMARK    3  A    between atoms: N_4  and  N_5
REMARK    4  A    between atoms: C_6  and  N_7
REMARK    5  A    between atoms: C_8  and  C_9
REMARK    6  A    between atoms: C_11  and  C_12
REMARK    7  A    between atoms: C_11  and  C_14
REMARK    8  A    between atoms: C_16  and  C_17
REMARK    9  A    between atoms: C_17  and  C_18
REMARK                            x       y       z     vdW  Elec       q    Type
REMARK                         _______ _______ _______ _____ _____    ______ ____
ROOT
ATOM      1  N   UNL     1       4.094   3.482  17.299  0.00  0.00    +0.000 N 
ATOM      2  C   UNL     1       4.889   3.590  18.434  0.00  0.00    +0.000 C 
ATOM      3  C   UNL     1       5.527   4.772  18.407  0.00  0.00    +0.000 C 
ATOM      4  C   UNL     1       5.296   5.504  17.106  0.00  0.00    +0.000 C 
ATOM      5  C   UNL     1       4.580   4.407  16.241  0.00  0.00    +0.000 C 
ENDROOT
BRANCH   2   6
ATOM      6  N   UNL     1       4.938   2.628  19.395  0.00  0.00    +0.000 N 
ATOM      7  H   UNL     1       5.896   2.413  19.664  0.00  0.00    +0.000 HD
ATOM      8  H   UNL     1       4.348   1.812  19.256  0.00  0.00    +0.000 HD
ENDBRANCH   2   6
BRANCH   1  10
ATOM      9  C   UNL     1       1.917   3.800  18.093  0.00  0.00    +0.000 C 
ATOM     10  N   UNL     1       2.754   3.197  17.287  0.00  0.00    +0.000 NA
BRANCH   9  12
ATOM     11  C   UNL     1       1.715   4.529  20.517  0.00  0.00    +0.000 C 
ATOM     12  C   UNL     1       2.200   4.868  19.127  0.00  0.00    +0.000 C 
ENDBRANCH   9  12
ENDBRANCH   1  10
BRANCH   3  13
ATOM     13  C   UNL     1       6.560   5.172  19.447  0.00  0.00    +0.000 C 
ATOM     14  N   UNL     1       7.419   5.504  20.310  0.00  0.00    +0.000 NA
ENDBRANCH   3  13
BRANCH   4  15
ATOM     15  C   UNL     1       6.599   5.922  16.442  0.00  0.00    +0.000 C 
ATOM     16  N   UNL     1       7.679   6.269  15.893  0.00  0.00    +0.000 NA
ENDBRANCH   4  15
BRANCH   4  17
ATOM     17  C   UNL     1       4.402   6.651  17.320  0.00  0.00    +0.000 C 
ATOM     18  N   UNL     1       3.699   7.550  17.515  0.00  0.00    +0.000 NA
ENDBRANCH   4  17
BRANCH   5  19
ATOM     19  C   UNL     1       5.540   3.635  15.289  0.00  0.00    +0.000 C 
ATOM     20  C   UNL     1       5.417   3.987  13.818  0.00  0.00    +0.000 C 
ENDBRANCH   5  19
TORSDOF 7
ENDMDL
MODEL 5
REMARK VINA RESULT:      -5.5      1.859      3.710
REMARK  Name = 
REMARK  9 active torsions:
REMARK  status: ('A' for Active; 'I' for Inactive)
REMARK    1  A    between atoms: C_1  and  C_2
REMARK    2  A    between atoms: C_2  and  C_3
REMARK    3  A    between atoms: N_4  and  N_5
REMARK    4  A    between atoms: C_6  and  N_7
REMARK    5  A    between atoms: C_8  and  C_9
REMARK    6  A    between atoms: C_11  and  C_12
REMARK    7  A    between atoms: C_11  and  C_14
REMARK    8  A    between atoms: C_16  and  C_17
REMARK    9  A    between atoms: C_17  and  C_18
REMARK                            x       y       z     vdW  Elec       q    Type
REMARK                         _______ _______ _______ _____ _____    ______ ____
ROOT
ATOM      1  N   UNL     1       3.575   4.851  17.927  0.00  0.00    +0.000 N 
ATOM      2  C   UNL     1       4.094   6.140  17.879  0.00  0.00    +0.000 C 
ATOM      3  C   UNL     1       5.289   6.106  17.266  0.00  0.00    +0.000 C 
ATOM      4  C   UNL     1       5.733   4.690  16.982  0.00  0.00    +0.000 C 
ATOM      5  C   UNL     1       4.667   3.853  17.774  0.00  0.00    +0.000 C 
ENDROOT
BRANCH   2   6
ATOM      6  N   UNL     1       3.426   7.222  18.364  0.00  0.00    +0.000 N 
ATOM      7  H   UNL     1       4.042   8.025  18.476  0.00  0.00    +0.000 HD
ATOM      8  H   UNL     1       2.801   7.059  19.149  0.00  0.00    +0.000 HD
ENDBRANCH   2   6
BRANCH   1  10
ATOM      9  C   UNL     1       1.356   4.218  18.304  0.00  0.00    +0.000 C 
ATOM     10  N   UNL     1       2.339   4.471  17.478  0.00  0.00    +0.000 NA
BRANCH   9  12
ATOM     11  C   UNL     1       1.009   2.986  20.498  0.00  0.00    +0.000 C 
ATOM     12  C   UNL     1       1.347   4.291  19.816  0.00  0.00    +0.000 C 
ENDBRANCH   9  12
ENDBRANCH   1  10
BRANCH   3  13
ATOM     13  C   UNL     1       6.181   7.329  17.136  0.00  0.00    +0.000 C 
ATOM     14  N   UNL     1       6.922   8.344  17.029  0.00  0.00    +0.000 NA
ENDBRANCH   3  13
BRANCH   4  15
ATOM     15  C   UNL     1       7.125   4.405  17.522  0.00  0.00    +0.000 C 
ATOM     16  N   UNL     1       8.280   4.168  17.971  0.00  0.00    +0.000 NA
ENDBRANCH   4  15
BRANCH   4  17
ATOM     17  C   UNL     1       5.639   4.408  15.542  0.00  0.00    +0.000 C 
ATOM     18  N   UNL     1       5.590   4.180  14.408  0.00  0.00    +0.000 NA
ENDBRANCH   4  17
BRANCH   5  19
ATOM     19  C   UNL     1       5.147   3.400  19.184  0.00  0.00    +0.000 C 
ATOM     20  C   UNL     1       4.426   2.196  19.761  0.00  0.00    +0.000 C 
ENDBRANCH   5  19
TORSDOF 7
ENDMDL
MODEL 6
REMARK VINA RESULT:      -5.3      1.710      4.659
REMARK  Name = 
REMARK  9 active torsions:
REMARK  status: ('A' for Active; 'I' for Inactive)
REMARK    1  A    between atoms: C_1  and  C_2
REMARK    2  A    between atoms: C_2  and  C_3
REMARK    3  A    between atoms: N_4  and  N_5
REMARK    4  A    between atoms: C_6  and  N_7
REMARK    5  A    between atoms: C_8  and  C_9
REMARK    6  A    between atoms: C_11  and  C_12
REMARK    7  A    between atoms: C_11  and  C_14
REMARK    8  A    between atoms: C_16  and  C_17
REMARK    9  A    between atoms: C_17  and  C_18
REMARK                            x       y       z     vdW  Elec       q    Type
REMARK                         _______ _______ _______ _____ _____    ______ ____
ROOT
ATOM      1  N   UNL     1       4.249   5.951  18.545  0.00  0.00    +0.000 N 
ATOM      2  C   UNL     1       5.009   4.949  19.137  0.00  0.00    +0.000 C 
ATOM      3  C   UNL     1       4.241   3.859  19.299  0.00  0.00    +0.000 C 
ATOM      4  C   UNL     1       2.799   4.130  18.940  0.00  0.00    +0.000 C 
ATOM      5  C   UNL     1       2.800   5.690  18.757  0.00  0.00    +0.000 C 
ENDROOT
BRANCH   2   6
ATOM      6  N   UNL     1       6.325   5.106  19.443  0.00  0.00    +0.000 N 
ATOM      7  H   UNL     1       6.450   5.514  20.368  0.00  0.00    +0.000 HD
ATOM      8  H   UNL     1       6.918   5.510  18.723  0.00  0.00    +0.000 HD
ENDBRANCH   2   6
BRANCH   1  10
ATOM      9  C   UNL     1       5.025   6.028  16.340  0.00  0.00    +0.000 C 
ATOM     10  N   UNL     1       4.581   6.639  17.408  0.00  0.00    +0.000 NA
BRANCH   9  12
ATOM     11  C   UNL     1       5.929   4.209  14.815  0.00  0.00    +0.000 C 
ATOM     12  C   UNL     1       5.244   4.547  16.119  0.00  0.00    +0.000 C 
ENDBRANCH   9  12
ENDBRANCH   1  10
BRANCH   3  13
ATOM     13  C   UNL     1       4.728   2.610  20.015  0.00  0.00    +0.000 C 
ATOM     14  N   UNL     1       5.134   1.573  20.608  0.00  0.00    +0.000 NA
ENDBRANCH   3  13
BRANCH   4  15
ATOM     15  C   UNL     1       1.844   3.738  20.056  0.00  0.00    +0.000 C 
ATOM     16  N   UNL     1       1.052   3.412  20.982  0.00  0.00    +0.000 NA
ENDBRANCH   4  15
BRANCH   4  17
ATOM     17  C   UNL     1       2.458   3.466  17.673  0.00  0.00    +0.000 C 
ATOM     18  N   UNL     1       2.195   2.921  16.687  0.00  0.00    +0.000 NA
ENDBRANCH   4  17
BRANCH   5  19
ATOM     19  C   UNL     1       2.318   6.469  20.015  0.00  0.00    +0.000 C 
ATOM     20  C   UNL     1       1.934   7.917  19.776  0.00  0.00    +0.000 C 
ENDBRANCH   5  19
TORSDOF 7
ENDMDL
MODEL 7
REMARK VINA RESULT:      -5.2      2.021      4.554
REMARK  Name = 
REMARK  9 active torsions:
REMARK  status: ('A' for Active; 'I' for Inactive)
REMARK    1  A    between atoms: C_1  and  C_2
REMARK    2  A    between atoms: C_2  and  C_3
REMARK    3  A    between atoms: N_4  and  N_5
REMARK    4  A    between atoms: C_6  and  N_7
REMARK    5  A    between atoms: C_8  and  C_9
REMARK    6  A    between atoms: C_11  and  C_12
REMARK    7  A    between atoms: C_11  and  C_14
REMARK    8  A    between atoms: C_16  and  C_17
REMARK    9  A    between atoms: C_17  and  C_18
REMARK                            x       y       z     vdW  Elec       q    Type
REMARK                         _______ _______ _______ _____ _____    ______ ____
ROOT
ATOM      1  N   UNL     1       6.447   4.602  18.640  0.00  0.00    +0.000 N 
ATOM      2  C   UNL     1       6.671   4.428  17.279  0.00  0.00    +0.000 C 
ATOM      3  C   UNL     1       5.530   4.676  16.615  0.00  0.00    +0.000 C 
ATOM      4  C   UNL     1       4.370   4.901  17.556  0.00  0.00    +0.000 C 
ATOM      5  C   UNL     1       4.994   4.494  18.939  0.00  0.00    +0.000 C 
ENDROOT
BRANCH   2   6
ATOM      6  N   UNL     1       7.887   4.092  16.770  0.00  0.00    +0.000 N 
ATOM      7  H   UNL     1       7.840   3.918  15.768  0.00  0.00    +0.000 HD
ATOM      8  H   UNL     1       8.428   3.406  17.290  0.00  0.00    +0.000 HD
ENDBRANCH   2   6
BRANCH   1  10
ATOM      9  C   UNL     1       7.670   6.549  19.069  0.00  0.00    +0.000 C 
ATOM     10  N   UNL     1       7.179   5.405  19.473  0.00  0.00    +0.000 NA
BRANCH   9  12
ATOM     11  C   UNL     1       7.923   8.669  17.694  0.00  0.00    +0.000 C 
ATOM     12  C   UNL     1       7.545   7.206  17.711  0.00  0.00    +0.000 C 
ENDBRANCH   9  12
ENDBRANCH   1  10
BRANCH   3  13
ATOM     13  C   UNL     1       5.393   4.476  15.114  0.00  0.00    +0.000 C 
ATOM     14  N   UNL     1       5.280   4.310  13.869  0.00  0.00    +0.000 NA
ENDBRANCH   3  13
BRANCH   4  15
ATOM     15  C   UNL     1       3.186   4.004  17.235  0.00  0.00    +0.000 C 
ATOM     16  N   UNL     1       2.203   3.260  16.969  0.00  0.00    +0.000 NA
ENDBRANCH   4  15
BRANCH   4  17
ATOM     17  C   UNL     1       3.992   6.322  17.564  0.00  0.00    +0.000 C 
ATOM     18  N   UNL     1       3.714   7.446  17.556  0.00  0.00    +0.000 NA
ENDBRANCH   4  17
BRANCH   5  19
ATOM     19  C   UNL     1       4.667   3.034  19.368  0.00  0.00    +0.000 C 
ATOM     20  C   UNL     1       3.621   2.895  20.459  0.00  0.00    +0.000 C 
ENDBRANCH   5  19
TORSDOF 7
ENDMDL
MODEL 8
REMARK VINA RESULT:      -5.2      1.927      4.862
REMARK  Name = 
REMARK  9 active torsions:
REMARK  status: ('A' for Active; 'I' for Inactive)
REMARK    1  A    between atoms: C_1  and  C_2
REMARK    2  A    between atoms: C_2  and  C_3
REMARK    3  A    between atoms: N_4  and  N_5
REMARK    4  A    between atoms: C_6  and  N_7
REMARK    5  A    between atoms: C_8  and  C_9
REMARK    6  A    between atoms: C_11  and  C_12
REMARK    7  A    between atoms: C_11  and  C_14
REMARK    8  A    between atoms: C_16  and  C_17
REMARK    9  A    between atoms: C_17  and  C_18
REMARK                            x       y       z     vdW  Elec       q    Type
REMARK                         _______ _______ _______ _____ _____    ______ ____
ROOT
ATOM      1  N   UNL     1       4.599   3.943  17.881  0.00  0.00    +0.000 N 
ATOM      2  C   UNL     1       4.397   3.336  19.115  0.00  0.00    +0.000 C 
ATOM      3  C   UNL     1       3.218   3.743  19.613  0.00  0.00    +0.000 C 
ATOM      4  C   UNL     1       2.592   4.822  18.761  0.00  0.00    +0.000 C 
ATOM      5  C   UNL     1       3.758   5.165  17.767  0.00  0.00    +0.000 C 
ENDROOT
BRANCH   2   6
ATOM      6  N   UNL     1       5.281   2.453  19.655  0.00  0.00    +0.000 N 
ATOM      7  H   UNL     1       5.375   2.582  20.661  0.00  0.00    +0.000 HD
ATOM      8  H   UNL     1       6.161   2.328  19.163  0.00  0.00    +0.000 HD
ENDBRANCH   2   6
BRANCH   1  10
ATOM      9  C   UNL     1       5.936   3.613  15.991  0.00  0.00    +0.000 C 
ATOM     10  N   UNL     1       4.890   3.296  16.711  0.00  0.00    +0.000 NA
BRANCH   9  12
ATOM     11  C   UNL     1       7.709   4.498  17.580  0.00  0.00    +0.000 C 
ATOM     12  C   UNL     1       6.987   4.668  16.263  0.00  0.00    +0.000 C 
ENDBRANCH   9  12
ENDBRANCH   1  10
BRANCH   3  13
ATOM     13  C   UNL     1       2.732   3.351  20.999  0.00  0.00    +0.000 C 
ATOM     14  N   UNL     1       2.329   3.026  22.149  0.00  0.00    +0.000 NA
ENDBRANCH   3  13
BRANCH   4  15
ATOM     15  C   UNL     1       2.221   6.053  19.573  0.00  0.00    +0.000 C 
ATOM     16  N   UNL     1       1.914   7.074  20.246  0.00  0.00    +0.000 NA
ENDBRANCH   4  15
BRANCH   4  17
ATOM     17  C   UNL     1       1.436   4.284  18.029  0.00  0.00    +0.000 C 
ATOM     18  N   UNL     1       0.539   3.863  17.430  0.00  0.00    +0.000 NA
ENDBRANCH   4  17
BRANCH   5  19
ATOM     19  C   UNL     1       4.597   6.406  18.190  0.00  0.00    +0.000 C 
ATOM     20  C   UNL     1       4.761   7.473  17.124  0.00  0.00    +0.000 C 
ENDBRANCH   5  19
TORSDOF 7
ENDMDL
MODEL 9
REMARK VINA RESULT:      -5.2      1.321      1.554
REMARK  Name = 
REMARK  9 active torsions:
REMARK  status: ('A' for Active; 'I' for Inactive)
REMARK    1  A    between atoms: C_1  and  C_2
REMARK    2  A    between atoms: C_2  and  C_3
REMARK    3  A    between atoms: N_4  and  N_5
REMARK    4  A    between atoms: C_6  and  N_7
REMARK    5  A    between atoms: C_8  and  C_9
REMARK    6  A    between atoms: C_11  and  C_12
REMARK    7  A    between atoms: C_11  and  C_14
REMARK    8  A    between atoms: C_16  and  C_17
REMARK    9  A    between atoms: C_17  and  C_18
REMARK                            x       y       z     vdW  Elec       q    Type
REMARK                         _______ _______ _______ _____ _____    ______ ____
ROOT
ATOM      1  N   UNL     1       4.575   3.774  18.800  0.00  0.00    +0.000 N 
ATOM      2  C   UNL     1       4.412   3.526  17.442  0.00  0.00    +0.000 C 
ATOM      3  C   UNL     1       5.357   4.196  16.761  0.00  0.00    +0.000 C 
ATOM      4  C   UNL     1       6.164   5.100  17.663  0.00  0.00    +0.000 C 
ATOM      5  C   UNL     1       5.350   5.028  19.004  0.00  0.00    +0.000 C 
ENDROOT
BRANCH   2   6
ATOM      6  N   UNL     1       3.449   2.698  16.955  0.00  0.00    +0.000 N 
ATOM      7  H   UNL     1       3.123   2.999  16.038  0.00  0.00    +0.000 HD
ATOM      8  H   UNL     1       2.708   2.430  17.597  0.00  0.00    +0.000 HD
ENDBRANCH   2   6
BRANCH   1  10
ATOM      9  C   UNL     1       3.672   2.451  20.504  0.00  0.00    +0.000 C 
ATOM     10  N   UNL     1       4.695   2.822  19.777  0.00  0.00    +0.000 NA
BRANCH   9  12
ATOM     11  C   UNL     1       1.432   2.653  21.683  0.00  0.00    +0.000 C 
ATOM     12  C   UNL     1       2.238   2.931  20.435  0.00  0.00    +0.000 C 
ENDBRANCH   9  12
ENDBRANCH   1  10
BRANCH   3  13
ATOM     13  C   UNL     1       5.406   4.230  15.242  0.00  0.00    +0.000 C 
ATOM     14  N   UNL     1       5.447   4.259  13.982  0.00  0.00    +0.000 NA
ENDBRANCH   3  13
BRANCH   4  15
ATOM     15  C   UNL     1       6.203   6.532  17.155  0.00  0.00    +0.000 C 
ATOM     16  N   UNL     1       6.236   7.721  16.734  0.00  0.00    +0.000 NA
ENDBRANCH   4  15
BRANCH   4  17
ATOM     17  C   UNL     1       7.515   4.552  17.854  0.00  0.00    +0.000 C 
ATOM     18  N   UNL     1       8.586   4.134  17.984  0.00  0.00    +0.000 NA
ENDBRANCH   4  17
BRANCH   5  19
ATOM     19  C   UNL     1       4.361   6.214  19.202  0.00  0.00    +0.000 C 
ATOM     20  C   UNL     1       2.914   5.919  18.852  0.00  0.00    +0.000 C 
ENDBRANCH   5  19
TORSDOF 7
ENDMDL
