MODEL 1
REMARK VINA RESULT:      -8.8      0.000      0.000
REMARK  Name = 
REMARK  4 active torsions:
REMARK  status: ('A' for Active; 'I' for Inactive)
REMARK    1  A    between atoms: C_2  and  C_26
REMARK    2  A    between atoms: N_3  and  C_4
REMARK    3  A    between atoms: C_7  and  C_8
REMARK    4  A    between atoms: C_12  and  C_13
REMARK                            x       y       z     vdW  Elec       q    Type
REMARK                         _______ _______ _______ _____ _____    ______ ____
ROOT
ATOM      1  C   UNL     1       9.321  12.003  18.568  0.00  0.00    +0.000 A 
ATOM      2  C   UNL     1       8.479  11.556  17.557  0.00  0.00    +0.000 A 
ATOM      3  C   UNL     1       8.133  10.208  17.466  0.00  0.00    +0.000 A 
ATOM      4  C   UNL     1       8.584   9.262  18.401  0.00  0.00    +0.000 A 
ATOM      5  C   UNL     1       9.448   9.723  19.408  0.00  0.00    +0.000 A 
ATOM      6  C   UNL     1       9.825  11.074  19.481  0.00  0.00    +0.000 A 
ENDROOT
BRANCH   4   7
ATOM      7  C   UNL     1       8.142   7.852  18.311  0.00  0.00    +0.000 A 
ATOM      8  C   UNL     1       8.239   6.961  19.387  0.00  0.00    +0.000 A 
ATOM      9  C   UNL     1       7.837   5.629  19.257  0.00  0.00    +0.000 A 
ATOM     10  C   UNL     1       7.357   5.156  18.035  0.00  0.00    +0.000 A 
ATOM     11  C   UNL     1       7.262   6.008  16.930  0.00  0.00    +0.000 A 
ATOM     12  C   UNL     1       7.625   7.351  17.097  0.00  0.00    +0.000 A 
BRANCH  11  13
ATOM     13  C   UNL     1       6.867   5.470  15.625  0.00  0.00    +0.000 A 
ATOM     14  N   UNL     1       5.732   4.848  15.358  0.00  0.00    +0.000 NA
ATOM     15  C   UNL     1       5.849   4.362  14.080  0.00  0.00    +0.000 A 
ATOM     16  C   UNL     1       4.957   3.581  13.340  0.00  0.00    +0.000 A 
ATOM     17  C   UNL     1       5.353   3.176  12.066  0.00  0.00    +0.000 A 
ATOM     18  F   UNL     1       4.527   2.411  11.340  0.00  0.00    +0.000 F 
ATOM     19  C   UNL     1       6.588   3.535  11.527  0.00  0.00    +0.000 A 
ATOM     20  C   UNL     1       7.484   4.331  12.248  0.00  0.00    +0.000 A 
ATOM     21  C   UNL     1       7.069   4.721  13.524  0.00  0.00    +0.000 A 
ATOM     22  N   UNL     1       7.671   5.469  14.503  0.00  0.00    +0.000 N 
ATOM     23  H   UNL     1       8.585   5.887  14.430  0.00  0.00    +0.000 HD
ENDBRANCH  11  13
ENDBRANCH   4   7
BRANCH   1  26
ATOM     24  O   UNL     1      11.534  13.444  17.276  0.00  0.00    +0.000 OA
ATOM     25  C   UNL     1      10.775  13.965  18.085  0.00  0.00    +0.000 C 
ATOM     26  N   UNL     1       9.697  13.351  18.699  0.00  0.00    +0.000 N 
ATOM     27  H   UNL     1       9.102  13.953  19.265  0.00  0.00    +0.000 HD
BRANCH  25  28
ATOM     28  C   UNL     1      10.952  15.358  18.434  0.00  0.00    +0.000 A 
ATOM     29  C   UNL     1      12.156  16.089  18.373  0.00  0.00    +0.000 A 
ATOM     30  N   UNL     1      12.015  17.365  18.733  0.00  0.00    +0.000 NA
ATOM     31  N   UNL     1      10.701  17.482  19.032  0.00  0.00    +0.000 N 
ATOM     32  C   UNL     1      10.023  18.631  19.423  0.00  0.00    +0.000 A 
ATOM     33  C   UNL     1       8.711  18.584  19.690  0.00  0.00    +0.000 A 
ATOM     34  C   UNL     1       8.084  17.240  19.546  0.00  0.00    +0.000 A 
ATOM     35  N   UNL     1       8.678  16.147  19.165  0.00  0.00    +0.000 NA
ATOM     36  C   UNL     1      10.018  16.268  18.890  0.00  0.00    +0.000 A 
ENDBRANCH  25  28
ENDBRANCH   1  26
TORSDOF 4
ENDMDL
MODEL 2
REMARK VINA RESULT:      -8.7      7.571      8.673
REMARK  Name = 
REMARK  4 active torsions:
REMARK  status: ('A' for Active; 'I' for Inactive)
REMARK    1  A    between atoms: C_2  and  C_26
REMARK    2  A    between atoms: N_3  and  C_4
REMARK    3  A    between atoms: C_7  and  C_8
REMARK    4  A    between atoms: C_12  and  C_13
REMARK                            x       y       z     vdW  Elec       q    Type
REMARK                         _______ _______ _______ _____ _____    ______ ____
ROOT
ATOM      1  C   UNL     1       0.541   9.729  20.100  0.00  0.00    +0.000 A 
ATOM      2  C   UNL     1       1.119   9.553  18.849  0.00  0.00    +0.000 A 
ATOM      3  C   UNL     1       1.900   8.430  18.579  0.00  0.00    +0.000 A 
ATOM      4  C   UNL     1       2.103   7.421  19.535  0.00  0.00    +0.000 A 
ATOM      5  C   UNL     1       1.528   7.618  20.801  0.00  0.00    +0.000 A 
ATOM      6  C   UNL     1       0.770   8.766  21.086  0.00  0.00    +0.000 A 
ENDROOT
BRANCH   4   7
ATOM      7  C   UNL     1       2.882   6.211  19.190  0.00  0.00    +0.000 A 
ATOM      8  C   UNL     1       3.119   5.180  20.109  0.00  0.00    +0.000 A 
ATOM      9  C   UNL     1       3.883   4.064  19.756  0.00  0.00    +0.000 A 
ATOM     10  C   UNL     1       4.452   3.974  18.485  0.00  0.00    +0.000 A 
ATOM     11  C   UNL     1       4.255   4.991  17.545  0.00  0.00    +0.000 A 
ATOM     12  C   UNL     1       3.445   6.076  17.903  0.00  0.00    +0.000 A 
BRANCH  11  13
ATOM     13  C   UNL     1       4.953   4.938  16.256  0.00  0.00    +0.000 A 
ATOM     14  N   UNL     1       4.705   4.084  15.279  0.00  0.00    +0.000 NA
ATOM     15  C   UNL     1       5.692   4.269  14.344  0.00  0.00    +0.000 A 
ATOM     16  C   UNL     1       5.928   3.582  13.150  0.00  0.00    +0.000 A 
ATOM     17  C   UNL     1       7.047   3.946  12.403  0.00  0.00    +0.000 A 
ATOM     18  F   UNL     1       7.308   3.291  11.263  0.00  0.00    +0.000 F 
ATOM     19  C   UNL     1       7.909   4.963  12.810  0.00  0.00    +0.000 A 
ATOM     20  C   UNL     1       7.676   5.673  13.993  0.00  0.00    +0.000 A 
ATOM     21  C   UNL     1       6.552   5.288  14.728  0.00  0.00    +0.000 A 
ATOM     22  N   UNL     1       6.029   5.732  15.916  0.00  0.00    +0.000 N 
ATOM     23  H   UNL     1       6.418   6.473  16.477  0.00  0.00    +0.000 HD
ENDBRANCH  11  13
ENDBRANCH   4   7
BRANCH   1  26
ATOM     24  O   UNL     1       1.369  12.371  21.091  0.00  0.00    +0.000 OA
ATOM     25  C   UNL     1       0.197  12.056  20.914  0.00  0.00    +0.000 C 
ATOM     26  N   UNL     1      -0.253  10.845  20.418  0.00  0.00    +0.000 N 
ATOM     27  H   UNL     1      -1.251  10.781  20.230  0.00  0.00    +0.000 HD
BRANCH  25  28
ATOM     28  C   UNL     1      -0.848  13.017  21.193  0.00  0.00    +0.000 A 
ATOM     29  C   UNL     1      -1.021  14.269  20.569  0.00  0.00    +0.000 A 
ATOM     30  N   UNL     1      -2.088  14.935  21.012  0.00  0.00    +0.000 NA
ATOM     31  N   UNL     1      -2.632  14.112  21.937  0.00  0.00    +0.000 N 
ATOM     32  C   UNL     1      -3.794  14.317  22.672  0.00  0.00    +0.000 A 
ATOM     33  C   UNL     1      -4.203  13.401  23.560  0.00  0.00    +0.000 A 
ATOM     34  C   UNL     1      -3.323  12.206  23.688  0.00  0.00    +0.000 A 
ATOM     35  N   UNL     1      -2.239  11.968  23.007  0.00  0.00    +0.000 NA
ATOM     36  C   UNL     1      -1.886  12.937  22.100  0.00  0.00    +0.000 A 
ENDBRANCH  25  28
ENDBRANCH   1  26
TORSDOF 4
ENDMDL
MODEL 3
REMARK VINA RESULT:      -8.5      7.074      8.150
REMARK  Name = 
REMARK  4 active torsions:
REMARK  status: ('A' for Active; 'I' for Inactive)
REMARK    1  A    between atoms: C_2  and  C_26
REMARK    2  A    between atoms: N_3  and  C_4
REMARK    3  A    between atoms: C_7  and  C_8
REMARK    4  A    between atoms: C_12  and  C_13
REMARK                            x       y       z     vdW  Elec       q    Type
REMARK                         _______ _______ _______ _____ _____    ______ ____
ROOT
ATOM      1  C   UNL     1       0.687  10.775  20.795  0.00  0.00    +0.000 A 
ATOM      2  C   UNL     1       0.758   9.827  21.808  0.00  0.00    +0.000 A 
ATOM      3  C   UNL     1       1.159   8.521  21.530  0.00  0.00    +0.000 A 
ATOM      4  C   UNL     1       1.539   8.120  20.238  0.00  0.00    +0.000 A 
ATOM      5  C   UNL     1       1.446   9.083  19.220  0.00  0.00    +0.000 A 
ATOM      6  C   UNL     1       1.010  10.390  19.492  0.00  0.00    +0.000 A 
ENDROOT
BRANCH   4   7
ATOM      7  C   UNL     1       2.022   6.743  19.995  0.00  0.00    +0.000 A 
ATOM      8  C   UNL     1       1.736   5.679  20.861  0.00  0.00    +0.000 A 
ATOM      9  C   UNL     1       2.231   4.396  20.613  0.00  0.00    +0.000 A 
ATOM     10  C   UNL     1       3.052   4.160  19.508  0.00  0.00    +0.000 A 
ATOM     11  C   UNL     1       3.377   5.199  18.631  0.00  0.00    +0.000 A 
ATOM     12  C   UNL     1       2.829   6.465  18.870  0.00  0.00    +0.000 A 
BRANCH  11  13
ATOM     13  C   UNL     1       4.332   4.962  17.542  0.00  0.00    +0.000 A 
ATOM     14  N   UNL     1       5.419   5.673  17.301  0.00  0.00    +0.000 NA
ATOM     15  C   UNL     1       5.916   5.225  16.103  0.00  0.00    +0.000 A 
ATOM     16  C   UNL     1       7.015   5.680  15.369  0.00  0.00    +0.000 A 
ATOM     17  C   UNL     1       7.270   5.072  14.141  0.00  0.00    +0.000 A 
ATOM     18  F   UNL     1       8.306   5.500  13.407  0.00  0.00    +0.000 F 
ATOM     19  C   UNL     1       6.475   4.038  13.648  0.00  0.00    +0.000 A 
ATOM     20  C   UNL     1       5.383   3.560  14.379  0.00  0.00    +0.000 A 
ATOM     21  C   UNL     1       5.142   4.186  15.604  0.00  0.00    +0.000 A 
ATOM     22  N   UNL     1       4.178   4.003  16.562  0.00  0.00    +0.000 N 
ATOM     23  H   UNL     1       3.438   3.321  16.513  0.00  0.00    +0.000 HD
ENDBRANCH  11  13
ENDBRANCH   4   7
BRANCH   1  26
ATOM     24  O   UNL     1       2.344  13.193  21.039  0.00  0.00    +0.000 OA
ATOM     25  C   UNL     1       1.124  13.198  21.164  0.00  0.00    +0.000 C 
ATOM     26  N   UNL     1       0.289  12.103  21.027  0.00  0.00    +0.000 N 
ATOM     27  H   UNL     1      -0.711  12.296  21.056  0.00  0.00    +0.000 HD
BRANCH  25  28
ATOM     28  C   UNL     1       0.442  14.444  21.440  0.00  0.00    +0.000 A 
ATOM     29  C   UNL     1       0.527  15.630  20.682  0.00  0.00    +0.000 A 
ATOM     30  N   UNL     1      -0.232  16.616  21.162  0.00  0.00    +0.000 NA
ATOM     31  N   UNL     1      -0.831  16.076  22.247  0.00  0.00    +0.000 N 
ATOM     32  C   UNL     1      -1.762  16.678  23.087  0.00  0.00    +0.000 A 
ATOM     33  C   UNL     1      -2.264  16.007  24.132  0.00  0.00    +0.000 A 
ATOM     34  C   UNL     1      -1.739  14.623  24.307  0.00  0.00    +0.000 A 
ATOM     35  N   UNL     1      -0.884  14.018  23.535  0.00  0.00    +0.000 NA
ATOM     36  C   UNL     1      -0.423  14.754  22.471  0.00  0.00    +0.000 A 
ENDBRANCH  25  28
ENDBRANCH   1  26
TORSDOF 4
ENDMDL
MODEL 4
REMARK VINA RESULT:      -8.5      9.419     13.795
REMARK  Name = 
REMARK  4 active torsions:
REMARK  status: ('A' for Active; 'I' for Inactive)
REMARK    1  A    between atoms: C_2  and  C_26
REMARK    2  A    between atoms: N_3  and  C_4
REMARK    3  A    between atoms: C_7  and  C_8
REMARK    4  A    between atoms: C_12  and  C_13
REMARK                            x       y       z     vdW  Elec       q    Type
REMARK                         _______ _______ _______ _____ _____    ______ ____
ROOT
ATOM      1  C   UNL     1       2.017   8.367  18.833  0.00  0.00    +0.000 A 
ATOM      2  C   UNL     1       1.504   8.583  20.106  0.00  0.00    +0.000 A 
ATOM      3  C   UNL     1       0.440   9.461  20.303  0.00  0.00    +0.000 A 
ATOM      4  C   UNL     1      -0.178  10.129  19.233  0.00  0.00    +0.000 A 
ATOM      5  C   UNL     1       0.360   9.916  17.953  0.00  0.00    +0.000 A 
ATOM      6  C   UNL     1       1.455   9.058  17.757  0.00  0.00    +0.000 A 
ENDROOT
BRANCH   4   7
ATOM      7  C   UNL     1      -1.348  11.003  19.473  0.00  0.00    +0.000 A 
ATOM      8  C   UNL     1      -2.452  11.039  18.611  0.00  0.00    +0.000 A 
ATOM      9  C   UNL     1      -3.529  11.896  18.855  0.00  0.00    +0.000 A 
ATOM     10  C   UNL     1      -3.505  12.759  19.952  0.00  0.00    +0.000 A 
ATOM     11  C   UNL     1      -2.413  12.768  20.826  0.00  0.00    +0.000 A 
ATOM     12  C   UNL     1      -1.369  11.865  20.590  0.00  0.00    +0.000 A 
BRANCH  11  13
ATOM     13  C   UNL     1      -2.351  13.759  21.906  0.00  0.00    +0.000 A 
ATOM     14  N   UNL     1      -1.413  13.832  22.832  0.00  0.00    +0.000 NA
ATOM     15  C   UNL     1      -1.832  14.778  23.733  0.00  0.00    +0.000 A 
ATOM     16  C   UNL     1      -1.238  15.196  24.928  0.00  0.00    +0.000 A 
ATOM     17  C   UNL     1      -1.912  16.150  25.687  0.00  0.00    +0.000 A 
ATOM     18  F   UNL     1      -1.376  16.556  26.846  0.00  0.00    +0.000 F 
ATOM     19  C   UNL     1      -3.133  16.690  25.284  0.00  0.00    +0.000 A 
ATOM     20  C   UNL     1      -3.731  16.296  24.082  0.00  0.00    +0.000 A 
ATOM     21  C   UNL     1      -3.041  15.335  23.339  0.00  0.00    +0.000 A 
ATOM     22  N   UNL     1      -3.320  14.711  22.150  0.00  0.00    +0.000 N 
ATOM     23  H   UNL     1      -4.140  14.878  21.589  0.00  0.00    +0.000 HD
ENDBRANCH  11  13
ENDBRANCH   4   7
BRANCH   1  26
ATOM     24  O   UNL     1       2.273   5.515  19.502  0.00  0.00    +0.000 OA
ATOM     25  C   UNL     1       3.162   6.160  18.957  0.00  0.00    +0.000 C 
ATOM     26  N   UNL     1       3.089   7.491  18.586  0.00  0.00    +0.000 N 
ATOM     27  H   UNL     1       3.874   7.849  18.046  0.00  0.00    +0.000 HD
BRANCH  25  28
ATOM     28  C   UNL     1       4.406   5.506  18.609  0.00  0.00    +0.000 A 
ATOM     29  C   UNL     1       5.202   4.716  19.463  0.00  0.00    +0.000 A 
ATOM     30  N   UNL     1       6.285   4.221  18.862  0.00  0.00    +0.000 NA
ATOM     31  N   UNL     1       6.203   4.685  17.595  0.00  0.00    +0.000 N 
ATOM     32  C   UNL     1       7.070   4.423  16.540  0.00  0.00    +0.000 A 
ATOM     33  C   UNL     1       6.853   4.964  15.334  0.00  0.00    +0.000 A 
ATOM     34  C   UNL     1       5.656   5.847  15.243  0.00  0.00    +0.000 A 
ATOM     35  N   UNL     1       4.811   6.104  16.199  0.00  0.00    +0.000 NA
ATOM     36  C   UNL     1       5.080   5.502  17.404  0.00  0.00    +0.000 A 
ENDBRANCH  25  28
ENDBRANCH   1  26
TORSDOF 4
ENDMDL
MODEL 5
REMARK VINA RESULT:      -8.5      8.365      9.528
REMARK  Name = 
REMARK  4 active torsions:
REMARK  status: ('A' for Active; 'I' for Inactive)
REMARK    1  A    between atoms: C_2  and  C_26
REMARK    2  A    between atoms: N_3  and  C_4
REMARK    3  A    between atoms: C_7  and  C_8
REMARK    4  A    between atoms: C_12  and  C_13
REMARK                            x       y       z     vdW  Elec       q    Type
REMARK                         _______ _______ _______ _____ _____    ______ ____
ROOT
ATOM      1  C   UNL     1       0.157   9.519  20.863  0.00  0.00    +0.000 A 
ATOM      2  C   UNL     1       1.184   9.442  19.930  0.00  0.00    +0.000 A 
ATOM      3  C   UNL     1       1.867   8.244  19.724  0.00  0.00    +0.000 A 
ATOM      4  C   UNL     1       1.529   7.069  20.415  0.00  0.00    +0.000 A 
ATOM      5  C   UNL     1       0.501   7.164  21.367  0.00  0.00    +0.000 A 
ATOM      6  C   UNL     1      -0.166   8.378  21.601  0.00  0.00    +0.000 A 
ENDROOT
BRANCH   4   7
ATOM      7  C   UNL     1       2.233   5.801  20.122  0.00  0.00    +0.000 A 
ATOM      8  C   UNL     1       2.211   4.706  20.996  0.00  0.00    +0.000 A 
ATOM      9  C   UNL     1       2.910   3.533  20.699  0.00  0.00    +0.000 A 
ATOM     10  C   UNL     1       3.672   3.446  19.533  0.00  0.00    +0.000 A 
ATOM     11  C   UNL     1       3.736   4.523  18.643  0.00  0.00    +0.000 A 
ATOM     12  C   UNL     1       2.988   5.670  18.936  0.00  0.00    +0.000 A 
BRANCH  11  13
ATOM     13  C   UNL     1       4.631   4.458  17.482  0.00  0.00    +0.000 A 
ATOM     14  N   UNL     1       5.725   5.179  17.311  0.00  0.00    +0.000 NA
ATOM     15  C   UNL     1       6.152   4.934  16.030  0.00  0.00    +0.000 A 
ATOM     16  C   UNL     1       7.227   5.487  15.329  0.00  0.00    +0.000 A 
ATOM     17  C   UNL     1       7.407   5.094  14.004  0.00  0.00    +0.000 A 
ATOM     18  F   UNL     1       8.419   5.622  13.301  0.00  0.00    +0.000 F 
ATOM     19  C   UNL     1       6.562   4.176  13.383  0.00  0.00    +0.000 A 
ATOM     20  C   UNL     1       5.493   3.599  14.077  0.00  0.00    +0.000 A 
ATOM     21  C   UNL     1       5.327   4.011  15.402  0.00  0.00    +0.000 A 
ATOM     22  N   UNL     1       4.405   3.684  16.362  0.00  0.00    +0.000 N 
ATOM     23  H   UNL     1       3.645   3.035  16.236  0.00  0.00    +0.000 HD
ENDBRANCH  11  13
ENDBRANCH   4   7
BRANCH   1  26
ATOM     24  O   UNL     1      -0.365  10.882  23.416  0.00  0.00    +0.000 OA
ATOM     25  C   UNL     1      -0.799  11.279  22.341  0.00  0.00    +0.000 C 
ATOM     26  N   UNL     1      -0.560  10.704  21.105  0.00  0.00    +0.000 N 
ATOM     27  H   UNL     1      -0.905  11.219  20.297  0.00  0.00    +0.000 HD
BRANCH  25  28
ATOM     28  C   UNL     1      -1.605  12.481  22.298  0.00  0.00    +0.000 A 
ATOM     29  C   UNL     1      -1.345  13.636  21.532  0.00  0.00    +0.000 A 
ATOM     30  N   UNL     1      -2.274  14.581  21.674  0.00  0.00    +0.000 NA
ATOM     31  N   UNL     1      -3.163  14.045  22.542  0.00  0.00    +0.000 N 
ATOM     32  C   UNL     1      -4.350  14.611  22.993  0.00  0.00    +0.000 A 
ATOM     33  C   UNL     1      -5.127  13.950  23.862  0.00  0.00    +0.000 A 
ATOM     34  C   UNL     1      -4.610  12.619  24.288  0.00  0.00    +0.000 A 
ATOM     35  N   UNL     1      -3.516  12.047  23.876  0.00  0.00    +0.000 NA
ATOM     36  C   UNL     1      -2.776  12.769  22.972  0.00  0.00    +0.000 A 
ENDBRANCH  25  28
ENDBRANCH   1  26
TORSDOF 4
ENDMDL
MODEL 6
REMARK VINA RESULT:      -8.5      7.405      8.504
REMARK  Name = 
REMARK  4 active torsions:
REMARK  status: ('A' for Active; 'I' for Inactive)
REMARK    1  A    between atoms: C_2  and  C_26
REMARK    2  A    between atoms: N_3  and  C_4
REMARK    3  A    between atoms: C_7  and  C_8
REMARK    4  A    between atoms: C_12  and  C_13
REMARK                            x       y       z     vdW  Elec       q    Type
REMARK                         _______ _______ _______ _____ _____    ______ ____
ROOT
ATOM      1  C   UNL     1       0.766   9.474  20.154  0.00  0.00    +0.000 A 
ATOM      2  C   UNL     1       1.384   9.271  18.926  0.00  0.00    +0.000 A 
ATOM      3  C   UNL     1       2.101   8.101  18.677  0.00  0.00    +0.000 A 
ATOM      4  C   UNL     1       2.198   7.074  19.630  0.00  0.00    +0.000 A 
ATOM      5  C   UNL     1       1.585   7.299  20.873  0.00  0.00    +0.000 A 
ATOM      6  C   UNL     1       0.891   8.491  21.138  0.00  0.00    +0.000 A 
ENDROOT
BRANCH   4   7
ATOM      7  C   UNL     1       2.912   5.819  19.305  0.00  0.00    +0.000 A 
ATOM      8  C   UNL     1       2.975   4.736  20.193  0.00  0.00    +0.000 A 
ATOM      9  C   UNL     1       3.681   3.576  19.863  0.00  0.00    +0.000 A 
ATOM     10  C   UNL     1       4.365   3.490  18.650  0.00  0.00    +0.000 A 
ATOM     11  C   UNL     1       4.344   4.556  17.745  0.00  0.00    +0.000 A 
ATOM     12  C   UNL     1       3.589   5.689  18.074  0.00  0.00    +0.000 A 
BRANCH  11  13
ATOM     13  C   UNL     1       5.161   4.497  16.528  0.00  0.00    +0.000 A 
ATOM     14  N   UNL     1       6.173   5.296  16.239  0.00  0.00    +0.000 NA
ATOM     15  C   UNL     1       6.533   5.010  14.946  0.00  0.00    +0.000 A 
ATOM     16  C   UNL     1       7.505   5.609  14.139  0.00  0.00    +0.000 A 
ATOM     17  C   UNL     1       7.629   5.152  12.828  0.00  0.00    +0.000 A 
ATOM     18  F   UNL     1       8.540   5.720  12.026  0.00  0.00    +0.000 F 
ATOM     19  C   UNL     1       6.829   4.129  12.321  0.00  0.00    +0.000 A 
ATOM     20  C   UNL     1       5.864   3.508  13.121  0.00  0.00    +0.000 A 
ATOM     21  C   UNL     1       5.752   3.984  14.430  0.00  0.00    +0.000 A 
ATOM     22  N   UNL     1       4.929   3.640  15.471  0.00  0.00    +0.000 N 
ATOM     23  H   UNL     1       4.223   2.922  15.437  0.00  0.00    +0.000 HD
ENDBRANCH  11  13
ENDBRANCH   4   7
BRANCH   1  26
ATOM     24  O   UNL     1       1.543  12.290  19.821  0.00  0.00    +0.000 OA
ATOM     25  C   UNL     1       0.470  11.941  20.300  0.00  0.00    +0.000 C 
ATOM     26  N   UNL     1       0.034  10.636  20.450  0.00  0.00    +0.000 N 
ATOM     27  H   UNL     1      -0.927  10.520  20.767  0.00  0.00    +0.000 HD
BRANCH  25  28
ATOM     28  C   UNL     1      -0.481  12.946  20.724  0.00  0.00    +0.000 A 
ATOM     29  C   UNL     1      -0.599  14.255  20.214  0.00  0.00    +0.000 A 
ATOM     30  N   UNL     1      -1.583  14.953  20.780  0.00  0.00    +0.000 NA
ATOM     31  N   UNL     1      -2.127  14.096  21.673  0.00  0.00    +0.000 N 
ATOM     32  C   UNL     1      -3.222  14.319  22.501  0.00  0.00    +0.000 A 
ATOM     33  C   UNL     1      -3.642  13.364  23.341  0.00  0.00    +0.000 A 
ATOM     34  C   UNL     1      -2.846  12.104  23.314  0.00  0.00    +0.000 A 
ATOM     35  N   UNL     1      -1.829  11.849  22.543  0.00  0.00    +0.000 NA
ATOM     36  C   UNL     1      -1.463  12.863  21.692  0.00  0.00    +0.000 A 
ENDBRANCH  25  28
ENDBRANCH   1  26
TORSDOF 4
ENDMDL
MODEL 7
REMARK VINA RESULT:      -8.4      7.114      8.313
REMARK  Name = 
REMARK  4 active torsions:
REMARK  status: ('A' for Active; 'I' for Inactive)
REMARK    1  A    between atoms: C_2  and  C_26
REMARK    2  A    between atoms: N_3  and  C_4
REMARK    3  A    between atoms: C_7  and  C_8
REMARK    4  A    between atoms: C_12  and  C_13
REMARK                            x       y       z     vdW  Elec       q    Type
REMARK                         _______ _______ _______ _____ _____    ______ ____
ROOT
ATOM      1  C   UNL     1       0.698   9.908  19.971  0.00  0.00    +0.000 A 
ATOM      2  C   UNL     1       1.301   9.619  18.753  0.00  0.00    +0.000 A 
ATOM      3  C   UNL     1       1.978   8.415  18.564  0.00  0.00    +0.000 A 
ATOM      4  C   UNL     1       2.048   7.438  19.571  0.00  0.00    +0.000 A 
ATOM      5  C   UNL     1       1.449   7.749  20.803  0.00  0.00    +0.000 A 
ATOM      6  C   UNL     1       0.797   8.976  21.007  0.00  0.00    +0.000 A 
ENDROOT
BRANCH   4   7
ATOM      7  C   UNL     1       2.718   6.144  19.311  0.00  0.00    +0.000 A 
ATOM      8  C   UNL     1       2.692   5.084  20.227  0.00  0.00    +0.000 A 
ATOM      9  C   UNL     1       3.359   3.885  19.960  0.00  0.00    +0.000 A 
ATOM     10  C   UNL     1       4.093   3.737  18.782  0.00  0.00    +0.000 A 
ATOM     11  C   UNL     1       4.160   4.778  17.851  0.00  0.00    +0.000 A 
ATOM     12  C   UNL     1       3.443   5.952  18.116  0.00  0.00    +0.000 A 
BRANCH  11  13
ATOM     13  C   UNL     1       5.028   4.650  16.675  0.00  0.00    +0.000 A 
ATOM     14  N   UNL     1       6.120   5.356  16.442  0.00  0.00    +0.000 NA
ATOM     15  C   UNL     1       6.517   5.044  15.166  0.00  0.00    +0.000 A 
ATOM     16  C   UNL     1       7.577   5.556  14.412  0.00  0.00    +0.000 A 
ATOM     17  C   UNL     1       7.725   5.095  13.106  0.00  0.00    +0.000 A 
ATOM     18  F   UNL     1       8.722   5.581  12.354  0.00  0.00    +0.000 F 
ATOM     19  C   UNL     1       6.862   4.150  12.552  0.00  0.00    +0.000 A 
ATOM     20  C   UNL     1       5.808   3.615  13.299  0.00  0.00    +0.000 A 
ATOM     21  C   UNL     1       5.674   4.094  14.604  0.00  0.00    +0.000 A 
ATOM     22  N   UNL     1       4.773   3.821  15.601  0.00  0.00    +0.000 N 
ATOM     23  H   UNL     1       4.008   3.170  15.526  0.00  0.00    +0.000 HD
ENDBRANCH  11  13
ENDBRANCH   4   7
BRANCH   1  26
ATOM     24  O   UNL     1      -1.891  10.798  18.897  0.00  0.00    +0.000 OA
ATOM     25  C   UNL     1      -1.201  11.484  19.643  0.00  0.00    +0.000 C 
ATOM     26  N   UNL     1       0.005  11.108  20.208  0.00  0.00    +0.000 N 
ATOM     27  H   UNL     1       0.399  11.752  20.891  0.00  0.00    +0.000 HD
BRANCH  25  28
ATOM     28  C   UNL     1      -1.665  12.798  20.036  0.00  0.00    +0.000 A 
ATOM     29  C   UNL     1      -2.941  13.117  20.543  0.00  0.00    +0.000 A 
ATOM     30  N   UNL     1      -3.080  14.409  20.841  0.00  0.00    +0.000 NA
ATOM     31  N   UNL     1      -1.880  14.951  20.533  0.00  0.00    +0.000 N 
ATOM     32  C   UNL     1      -1.482  16.273  20.699  0.00  0.00    +0.000 A 
ATOM     33  C   UNL     1      -0.251  16.660  20.339  0.00  0.00    +0.000 A 
ATOM     34  C   UNL     1       0.604  15.587  19.756  0.00  0.00    +0.000 A 
ATOM     35  N   UNL     1       0.276  14.337  19.602  0.00  0.00    +0.000 NA
ATOM     36  C   UNL     1      -0.992  14.003  20.008  0.00  0.00    +0.000 A 
ENDBRANCH  25  28
ENDBRANCH   1  26
TORSDOF 4
ENDMDL
MODEL 8
REMARK VINA RESULT:      -8.4      7.069      8.143
REMARK  Name = 
REMARK  4 active torsions:
REMARK  status: ('A' for Active; 'I' for Inactive)
REMARK    1  A    between atoms: C_2  and  C_26
REMARK    2  A    between atoms: N_3  and  C_4
REMARK    3  A    between atoms: C_7  and  C_8
REMARK    4  A    between atoms: C_12  and  C_13
REMARK                            x       y       z     vdW  Elec       q    Type
REMARK                         _______ _______ _______ _____ _____    ______ ____
ROOT
ATOM      1  C   UNL     1       0.801   9.959  19.772  0.00  0.00    +0.000 A 
ATOM      2  C   UNL     1       1.043   8.996  20.745  0.00  0.00    +0.000 A 
ATOM      3  C   UNL     1       1.743   7.832  20.432  0.00  0.00    +0.000 A 
ATOM      4  C   UNL     1       2.260   7.600  19.147  0.00  0.00    +0.000 A 
ATOM      5  C   UNL     1       1.993   8.571  18.169  0.00  0.00    +0.000 A 
ATOM      6  C   UNL     1       1.258   9.729  18.473  0.00  0.00    +0.000 A 
ENDROOT
BRANCH   4   7
ATOM      7  C   UNL     1       3.055   6.383  18.870  0.00  0.00    +0.000 A 
ATOM      8  C   UNL     1       3.335   5.425  19.853  0.00  0.00    +0.000 A 
ATOM      9  C   UNL     1       4.112   4.300  19.562  0.00  0.00    +0.000 A 
ATOM     10  C   UNL     1       4.651   4.130  18.285  0.00  0.00    +0.000 A 
ATOM     11  C   UNL     1       4.412   5.073  17.281  0.00  0.00    +0.000 A 
ATOM     12  C   UNL     1       3.589   6.166  17.581  0.00  0.00    +0.000 A 
BRANCH  11  13
ATOM     13  C   UNL     1       5.078   4.940  15.981  0.00  0.00    +0.000 A 
ATOM     14  N   UNL     1       4.834   4.005  15.081  0.00  0.00    +0.000 NA
ATOM     15  C   UNL     1       5.791   4.146  14.108  0.00  0.00    +0.000 A 
ATOM     16  C   UNL     1       6.019   3.375  12.964  0.00  0.00    +0.000 A 
ATOM     17  C   UNL     1       7.107   3.713  12.162  0.00  0.00    +0.000 A 
ATOM     18  F   UNL     1       7.361   2.980  11.069  0.00  0.00    +0.000 F 
ATOM     19  C   UNL     1       7.946   4.784  12.465  0.00  0.00    +0.000 A 
ATOM     20  C   UNL     1       7.720   5.576  13.595  0.00  0.00    +0.000 A 
ATOM     21  C   UNL     1       6.628   5.218  14.389  0.00  0.00    +0.000 A 
ATOM     22  N   UNL     1       6.120   5.737  15.552  0.00  0.00    +0.000 N 
ATOM     23  H   UNL     1       6.499   6.531  16.043  0.00  0.00    +0.000 HD
ENDBRANCH  11  13
ENDBRANCH   4   7
BRANCH   1  26
ATOM     24  O   UNL     1      -1.861  10.792  18.840  0.00  0.00    +0.000 OA
ATOM     25  C   UNL     1      -1.144  11.496  19.542  0.00  0.00    +0.000 C 
ATOM     26  N   UNL     1       0.100  11.147  20.041  0.00  0.00    +0.000 N 
ATOM     27  H   UNL     1       0.518  11.803  20.697  0.00  0.00    +0.000 HD
BRANCH  25  28
ATOM     28  C   UNL     1      -1.611  12.803  19.952  0.00  0.00    +0.000 A 
ATOM     29  C   UNL     1      -2.828  13.091  20.602  0.00  0.00    +0.000 A 
ATOM     30  N   UNL     1      -2.983  14.385  20.880  0.00  0.00    +0.000 NA
ATOM     31  N   UNL     1      -1.852  14.962  20.414  0.00  0.00    +0.000 N 
ATOM     32  C   UNL     1      -1.492  16.303  20.494  0.00  0.00    +0.000 A 
ATOM     33  C   UNL     1      -0.330  16.724  19.977  0.00  0.00    +0.000 A 
ATOM     34  C   UNL     1       0.492  15.666  19.324  0.00  0.00    +0.000 A 
ATOM     35  N   UNL     1       0.200  14.400  19.244  0.00  0.00    +0.000 NA
ATOM     36  C   UNL     1      -0.996  14.032  19.811  0.00  0.00    +0.000 A 
ENDBRANCH  25  28
ENDBRANCH   1  26
TORSDOF 4
ENDMDL
MODEL 9
REMARK VINA RESULT:      -8.4      9.740     13.912
REMARK  Name = 
REMARK  4 active torsions:
REMARK  status: ('A' for Active; 'I' for Inactive)
REMARK    1  A    between atoms: C_2  and  C_26
REMARK    2  A    between atoms: N_3  and  C_4
REMARK    3  A    between atoms: C_7  and  C_8
REMARK    4  A    between atoms: C_12  and  C_13
REMARK                            x       y       z     vdW  Elec       q    Type
REMARK                         _______ _______ _______ _____ _____    ______ ____
ROOT
ATOM      1  C   UNL     1       1.881   8.467  18.928  0.00  0.00    +0.000 A 
ATOM      2  C   UNL     1       1.283   8.664  20.167  0.00  0.00    +0.000 A 
ATOM      3  C   UNL     1       0.174   9.499  20.294  0.00  0.00    +0.000 A 
ATOM      4  C   UNL     1      -0.403  10.140  19.186  0.00  0.00    +0.000 A 
ATOM      5  C   UNL     1       0.222   9.948  17.943  0.00  0.00    +0.000 A 
ATOM      6  C   UNL     1       1.360   9.135  17.818  0.00  0.00    +0.000 A 
ENDROOT
BRANCH   4   7
ATOM      7  C   UNL     1      -1.620  10.967  19.350  0.00  0.00    +0.000 A 
ATOM      8  C   UNL     1      -2.609  11.056  18.362  0.00  0.00    +0.000 A 
ATOM      9  C   UNL     1      -3.733  11.867  18.541  0.00  0.00    +0.000 A 
ATOM     10  C   UNL     1      -3.872  12.631  19.701  0.00  0.00    +0.000 A 
ATOM     11  C   UNL     1      -2.897  12.584  20.703  0.00  0.00    +0.000 A 
ATOM     12  C   UNL     1      -1.804  11.727  20.525  0.00  0.00    +0.000 A 
BRANCH  11  13
ATOM     13  C   UNL     1      -2.999  13.477  21.862  0.00  0.00    +0.000 A 
ATOM     14  N   UNL     1      -4.116  13.995  22.341  0.00  0.00    +0.000 NA
ATOM     15  C   UNL     1      -3.742  14.899  23.303  0.00  0.00    +0.000 A 
ATOM     16  C   UNL     1      -4.531  15.759  24.073  0.00  0.00    +0.000 A 
ATOM     17  C   UNL     1      -3.880  16.621  24.953  0.00  0.00    +0.000 A 
ATOM     18  F   UNL     1      -4.609  17.470  25.690  0.00  0.00    +0.000 F 
ATOM     19  C   UNL     1      -2.491  16.636  25.084  0.00  0.00    +0.000 A 
ATOM     20  C   UNL     1      -1.690  15.769  24.334  0.00  0.00    +0.000 A 
ATOM     21  C   UNL     1      -2.362  14.916  23.455  0.00  0.00    +0.000 A 
ATOM     22  N   UNL     1      -1.920  13.967  22.570  0.00  0.00    +0.000 N 
ATOM     23  H   UNL     1      -0.954  13.724  22.417  0.00  0.00    +0.000 HD
ENDBRANCH  11  13
ENDBRANCH   4   7
BRANCH   1  26
ATOM     24  O   UNL     1       1.978   5.608  18.247  0.00  0.00    +0.000 OA
ATOM     25  C   UNL     1       2.979   6.282  18.462  0.00  0.00    +0.000 C 
ATOM     26  N   UNL     1       3.001   7.635  18.751  0.00  0.00    +0.000 N 
ATOM     27  H   UNL     1       3.921   8.068  18.797  0.00  0.00    +0.000 HD
BRANCH  25  28
ATOM     28  C   UNL     1       4.286   5.665  18.375  0.00  0.00    +0.000 A 
ATOM     29  C   UNL     1       5.014   5.096  19.439  0.00  0.00    +0.000 A 
ATOM     30  N   UNL     1       6.183   4.579  19.059  0.00  0.00    +0.000 NA
ATOM     31  N   UNL     1       6.226   4.802  17.726  0.00  0.00    +0.000 N 
ATOM     32  C   UNL     1       7.222   4.416  16.836  0.00  0.00    +0.000 A 
ATOM     33  C   UNL     1       7.122   4.718  15.534  0.00  0.00    +0.000 A 
ATOM     34  C   UNL     1       5.902   5.485  15.156  0.00  0.00    +0.000 A 
ATOM     35  N   UNL     1       4.939   5.849  15.953  0.00  0.00    +0.000 NA
ATOM     36  C   UNL     1       5.095   5.492  17.270  0.00  0.00    +0.000 A 
ENDBRANCH  25  28
ENDBRANCH   1  26
TORSDOF 4
ENDMDL
