MODEL 1
REMARK VINA RESULT:      -7.6      0.000      0.000
REMARK  Name = 
REMARK  10 active torsions:
REMARK  status: ('A' for Active; 'I' for Inactive)
REMARK    1  A    between atoms: C_1  and  C_2
REMARK    2  A    between atoms: C_2  and  C_3
REMARK    3  A    between atoms: C_5  and  C_6
REMARK    4  A    between atoms: N_8  and  C_9
REMARK    5  A    between atoms: C_9  and  C_10
REMARK    6  A    between atoms: C_10  and  C_11
REMARK    7  A    between atoms: C_13  and  O_14
REMARK    8  A    between atoms: C_16  and  C_17
REMARK    9  A    between atoms: C_20  and  C_21
REMARK   10  A    between atoms: C_21  and  N_22
REMARK                            x       y       z     vdW  Elec       q    Type
REMARK                         _______ _______ _______ _____ _____    ______ ____
ROOT
ATOM      1  C   UNL     1       2.611   5.619  19.841  0.00  0.00    +0.000 C 
ATOM      2  O   UNL     1       2.497   4.897  20.830  0.00  0.00    +0.000 OA
ATOM      3  N   UNL     1       3.236   5.202  18.684  0.00  0.00    +0.000 N 
ATOM      4  H   UNL     1       3.325   5.890  17.945  0.00  0.00    +0.000 HD
ENDROOT
BRANCH   1   7
ATOM      5  C   UNL     1       1.242   8.832  20.605  0.00  0.00    +0.000 A 
ATOM      6  O   UNL     1       1.617   7.560  20.919  0.00  0.00    +0.000 OA
ATOM      7  C   UNL     1       2.093   6.976  19.775  0.00  0.00    +0.000 A 
ATOM      8  C   UNL     1       1.991   7.874  18.727  0.00  0.00    +0.000 A 
ATOM      9  C   UNL     1       1.453   9.085  19.256  0.00  0.00    +0.000 A 
BRANCH   5  11
ATOM     10  C   UNL     1      -0.457   9.052  22.421  0.00  0.00    +0.000 C 
ATOM     11  C   UNL     1       0.760   9.658  21.745  0.00  0.00    +0.000 C 
ENDBRANCH   5  11
BRANCH   9  12
ATOM     12  C   UNL     1       1.200  10.370  18.516  0.00  0.00    +0.000 C 
BRANCH  12  13
ATOM     13  N   UNL     1      -0.209  10.692  18.642  0.00  0.00    +0.000 NA
ATOM     14  C   UNL     1      -0.553  12.108  18.595  0.00  0.00    +0.000 C 
ATOM     15  C   UNL     1      -2.055  11.986  18.785  0.00  0.00    +0.000 C 
ATOM     16  C   UNL     1      -2.427  10.768  17.941  0.00  0.00    +0.000 C 
ATOM     17  C   UNL     1      -1.107  10.029  17.709  0.00  0.00    +0.000 C 
ENDBRANCH  12  13
ENDBRANCH   9  12
ENDBRANCH   1   7
BRANCH   3  18
ATOM     18  C   UNL     1       3.864   3.896  18.573  0.00  0.00    +0.000 C 
BRANCH  18  19
ATOM     19  C   UNL     1       4.255   3.563  17.135  0.00  0.00    +0.000 C 
BRANCH  19  20
ATOM     20  C   UNL     1       5.419   4.388  16.647  0.00  0.00    +0.000 A 
ATOM     21  C   UNL     1       5.828   4.322  15.329  0.00  0.00    +0.000 A 
ATOM     22  C   UNL     1       6.880   5.139  14.989  0.00  0.00    +0.000 A 
ATOM     23  N   UNL     1       7.504   5.958  15.840  0.00  0.00    +0.000 NA
ATOM     24  C   UNL     1       7.050   5.953  17.102  0.00  0.00    +0.000 A 
ATOM     25  C   UNL     1       7.717   6.863  18.084  0.00  0.00    +0.000 C 
ATOM     26  N   UNL     1       6.024   5.194  17.545  0.00  0.00    +0.000 NA
BRANCH  22  27
ATOM     27  O   UNL     1       7.365   5.175  13.714  0.00  0.00    +0.000 OA
ATOM     28  H   UNL     1       7.475   4.266  13.400  0.00  0.00    +0.000 HD
ENDBRANCH  22  27
ENDBRANCH  19  20
ENDBRANCH  18  19
ENDBRANCH   3  18
TORSDOF 8
ENDMDL
MODEL 2
REMARK VINA RESULT:      -7.4      4.345      7.466
REMARK  Name = 
REMARK  10 active torsions:
REMARK  status: ('A' for Active; 'I' for Inactive)
REMARK    1  A    between atoms: C_1  and  C_2
REMARK    2  A    between atoms: C_2  and  C_3
REMARK    3  A    between atoms: C_5  and  C_6
REMARK    4  A    between atoms: N_8  and  C_9
REMARK    5  A    between atoms: C_9  and  C_10
REMARK    6  A    between atoms: C_10  and  C_11
REMARK    7  A    between atoms: C_13  and  O_14
REMARK    8  A    between atoms: C_16  and  C_17
REMARK    9  A    between atoms: C_20  and  C_21
REMARK   10  A    between atoms: C_21  and  N_22
REMARK                            x       y       z     vdW  Elec       q    Type
REMARK                         _______ _______ _______ _____ _____    ______ ____
ROOT
ATOM      1  C   UNL     1       6.965   6.917  17.102  0.00  0.00    +0.000 C 
ATOM      2  O   UNL     1       7.806   6.533  16.290  0.00  0.00    +0.000 OA
ATOM      3  N   UNL     1       7.076   8.113  17.780  0.00  0.00    +0.000 N 
ATOM      4  H   UNL     1       6.358   8.313  18.466  0.00  0.00    +0.000 HD
ENDROOT
BRANCH   1   7
ATOM      5  C   UNL     1       3.637   5.931  17.959  0.00  0.00    +0.000 A 
ATOM      6  O   UNL     1       4.621   6.850  17.753  0.00  0.00    +0.000 OA
ATOM      7  C   UNL     1       5.762   6.167  17.425  0.00  0.00    +0.000 A 
ATOM      8  C   UNL     1       5.503   4.807  17.452  0.00  0.00    +0.000 A 
ATOM      9  C   UNL     1       4.125   4.643  17.784  0.00  0.00    +0.000 A 
BRANCH   5  11
ATOM     10  C   UNL     1       2.245   7.185  19.609  0.00  0.00    +0.000 C 
ATOM     11  C   UNL     1       2.290   6.491  18.260  0.00  0.00    +0.000 C 
ENDBRANCH   5  11
BRANCH   9  12
ATOM     12  C   UNL     1       3.360   3.353  17.890  0.00  0.00    +0.000 C 
BRANCH  12  13
ATOM     13  N   UNL     1       2.662   3.346  19.162  0.00  0.00    +0.000 NA
ATOM     14  C   UNL     1       1.362   2.687  19.180  0.00  0.00    +0.000 C 
ATOM     15  C   UNL     1       0.999   2.934  20.634  0.00  0.00    +0.000 C 
ATOM     16  C   UNL     1       2.317   2.716  21.375  0.00  0.00    +0.000 C 
ATOM     17  C   UNL     1       3.399   2.813  20.297  0.00  0.00    +0.000 C 
ENDBRANCH  12  13
ENDBRANCH   9  12
ENDBRANCH   1   7
BRANCH   3  18
ATOM     18  C   UNL     1       8.234   8.981  17.631  0.00  0.00    +0.000 C 
BRANCH  18  19
ATOM     19  C   UNL     1       8.958   9.211  18.955  0.00  0.00    +0.000 C 
BRANCH  19  20
ATOM     20  C   UNL     1       9.474  10.621  19.093  0.00  0.00    +0.000 A 
ATOM     21  C   UNL     1       9.462  11.260  20.318  0.00  0.00    +0.000 A 
ATOM     22  C   UNL     1       9.985  12.532  20.332  0.00  0.00    +0.000 A 
ATOM     23  N   UNL     1      10.480  13.156  19.259  0.00  0.00    +0.000 NA
ATOM     24  C   UNL     1      10.444  12.467  18.109  0.00  0.00    +0.000 A 
ATOM     25  C   UNL     1      10.997  13.128  16.885  0.00  0.00    +0.000 C 
ATOM     26  N   UNL     1       9.956  11.214  17.980  0.00  0.00    +0.000 NA
BRANCH  22  27
ATOM     27  O   UNL     1      10.043  13.261  21.484  0.00  0.00    +0.000 OA
ATOM     28  H   UNL     1      10.972  13.419  21.703  0.00  0.00    +0.000 HD
ENDBRANCH  22  27
ENDBRANCH  19  20
ENDBRANCH  18  19
ENDBRANCH   3  18
TORSDOF 8
ENDMDL
MODEL 3
REMARK VINA RESULT:      -7.3      2.227      3.895
REMARK  Name = 
REMARK  10 active torsions:
REMARK  status: ('A' for Active; 'I' for Inactive)
REMARK    1  A    between atoms: C_1  and  C_2
REMARK    2  A    between atoms: C_2  and  C_3
REMARK    3  A    between atoms: C_5  and  C_6
REMARK    4  A    between atoms: N_8  and  C_9
REMARK    5  A    between atoms: C_9  and  C_10
REMARK    6  A    between atoms: C_10  and  C_11
REMARK    7  A    between atoms: C_13  and  O_14
REMARK    8  A    between atoms: C_16  and  C_17
REMARK    9  A    between atoms: C_20  and  C_21
REMARK   10  A    between atoms: C_21  and  N_22
REMARK                            x       y       z     vdW  Elec       q    Type
REMARK                         _______ _______ _______ _____ _____    ______ ____
ROOT
ATOM      1  C   UNL     1       4.158   4.326  17.083  0.00  0.00    +0.000 C 
ATOM      2  O   UNL     1       4.291   3.123  16.864  0.00  0.00    +0.000 OA
ATOM      3  N   UNL     1       4.708   5.296  16.271  0.00  0.00    +0.000 N 
ATOM      4  H   UNL     1       4.587   6.257  16.567  0.00  0.00    +0.000 HD
ENDROOT
BRANCH   1   7
ATOM      5  C   UNL     1       2.504   4.796  20.218  0.00  0.00    +0.000 A 
ATOM      6  O   UNL     1       3.183   4.057  19.296  0.00  0.00    +0.000 OA
ATOM      7  C   UNL     1       3.402   4.858  18.206  0.00  0.00    +0.000 A 
ATOM      8  C   UNL     1       2.836   6.100  18.430  0.00  0.00    +0.000 A 
ATOM      9  C   UNL     1       2.262   6.076  19.737  0.00  0.00    +0.000 A 
BRANCH   5  11
ATOM     10  C   UNL     1       1.350   2.890  21.343  0.00  0.00    +0.000 C 
ATOM     11  C   UNL     1       2.233   4.113  21.513  0.00  0.00    +0.000 C 
ENDBRANCH   5  11
BRANCH   9  12
ATOM     12  C   UNL     1       1.572   7.206  20.450  0.00  0.00    +0.000 C 
BRANCH  12  13
ATOM     13  N   UNL     1       1.775   8.417  19.678  0.00  0.00    +0.000 NA
ATOM     14  C   UNL     1       1.550   8.312  18.242  0.00  0.00    +0.000 C 
ATOM     15  C   UNL     1       1.890   9.739  17.849  0.00  0.00    +0.000 C 
ATOM     16  C   UNL     1       1.273  10.576  18.968  0.00  0.00    +0.000 C 
ATOM     17  C   UNL     1       1.035   9.591  20.116  0.00  0.00    +0.000 C 
ENDBRANCH  12  13
ENDBRANCH   9  12
ENDBRANCH   1   7
BRANCH   3  18
ATOM     18  C   UNL     1       5.542   4.963  15.127  0.00  0.00    +0.000 C 
BRANCH  18  19
ATOM     19  C   UNL     1       7.004   4.764  15.516  0.00  0.00    +0.000 C 
BRANCH  19  20
ATOM     20  C   UNL     1       7.383   5.538  16.754  0.00  0.00    +0.000 A 
ATOM     21  C   UNL     1       7.647   4.884  17.942  0.00  0.00    +0.000 A 
ATOM     22  C   UNL     1       8.011   5.687  18.997  0.00  0.00    +0.000 A 
ATOM     23  N   UNL     1       8.113   7.018  18.931  0.00  0.00    +0.000 NA
ATOM     24  C   UNL     1       7.829   7.572  17.743  0.00  0.00    +0.000 A 
ATOM     25  C   UNL     1       7.940   9.060  17.626  0.00  0.00    +0.000 C 
ATOM     26  N   UNL     1       7.464   6.881  16.642  0.00  0.00    +0.000 NA
BRANCH  22  27
ATOM     27  O   UNL     1       8.311   5.159  20.218  0.00  0.00    +0.000 OA
ATOM     28  H   UNL     1       9.178   4.731  20.165  0.00  0.00    +0.000 HD
ENDBRANCH  22  27
ENDBRANCH  19  20
ENDBRANCH  18  19
ENDBRANCH   3  18
TORSDOF 8
ENDMDL
MODEL 4
REMARK VINA RESULT:      -7.2      4.375      7.200
REMARK  Name = 
REMARK  10 active torsions:
REMARK  status: ('A' for Active; 'I' for Inactive)
REMARK    1  A    between atoms: C_1  and  C_2
REMARK    2  A    between atoms: C_2  and  C_3
REMARK    3  A    between atoms: C_5  and  C_6
REMARK    4  A    between atoms: N_8  and  C_9
REMARK    5  A    between atoms: C_9  and  C_10
REMARK    6  A    between atoms: C_10  and  C_11
REMARK    7  A    between atoms: C_13  and  O_14
REMARK    8  A    between atoms: C_16  and  C_17
REMARK    9  A    between atoms: C_20  and  C_21
REMARK   10  A    between atoms: C_21  and  N_22
REMARK                            x       y       z     vdW  Elec       q    Type
REMARK                         _______ _______ _______ _____ _____    ______ ____
ROOT
ATOM      1  C   UNL     1       6.911   6.894  17.381  0.00  0.00    +0.000 C 
ATOM      2  O   UNL     1       7.894   6.226  17.060  0.00  0.00    +0.000 OA
ATOM      3  N   UNL     1       6.969   8.258  17.574  0.00  0.00    +0.000 N 
ATOM      4  H   UNL     1       6.117   8.707  17.889  0.00  0.00    +0.000 HD
ENDROOT
BRANCH   1   7
ATOM      5  C   UNL     1       3.403   6.401  17.866  0.00  0.00    +0.000 A 
ATOM      6  O   UNL     1       4.523   7.170  17.754  0.00  0.00    +0.000 OA
ATOM      7  C   UNL     1       5.588   6.326  17.580  0.00  0.00    +0.000 A 
ATOM      8  C   UNL     1       5.142   5.016  17.610  0.00  0.00    +0.000 A 
ATOM      9  C   UNL     1       3.725   5.053  17.783  0.00  0.00    +0.000 A 
BRANCH   5  11
ATOM     10  C   UNL     1       2.305   8.641  17.783  0.00  0.00    +0.000 C 
ATOM     11  C   UNL     1       2.122   7.149  17.992  0.00  0.00    +0.000 C 
ENDBRANCH   5  11
BRANCH   9  12
ATOM     12  C   UNL     1       2.782   3.883  17.830  0.00  0.00    +0.000 C 
BRANCH  12  13
ATOM     13  N   UNL     1       2.380   3.684  19.210  0.00  0.00    +0.000 NA
ATOM     14  C   UNL     1       1.096   3.028  19.419  0.00  0.00    +0.000 C 
ATOM     15  C   UNL     1       1.068   3.053  20.937  0.00  0.00    +0.000 C 
ATOM     16  C   UNL     1       2.509   2.728  21.328  0.00  0.00    +0.000 C 
ATOM     17  C   UNL     1       3.331   2.987  20.063  0.00  0.00    +0.000 C 
ENDBRANCH  12  13
ENDBRANCH   9  12
ENDBRANCH   1   7
BRANCH   3  18
ATOM     18  C   UNL     1       8.215   9.001  17.472  0.00  0.00    +0.000 C 
BRANCH  18  19
ATOM     19  C   UNL     1       8.879   9.204  18.832  0.00  0.00    +0.000 C 
BRANCH  19  20
ATOM     20  C   UNL     1       9.360  10.619  19.034  0.00  0.00    +0.000 A 
ATOM     21  C   UNL     1       9.861  11.352  17.976  0.00  0.00    +0.000 A 
ATOM     22  C   UNL     1      10.242  12.640  18.270  0.00  0.00    +0.000 A 
ATOM     23  N   UNL     1      10.158  13.193  19.483  0.00  0.00    +0.000 NA
ATOM     24  C   UNL     1       9.669  12.408  20.455  0.00  0.00    +0.000 A 
ATOM     25  C   UNL     1       9.551  12.993  21.827  0.00  0.00    +0.000 C 
ATOM     26  N   UNL     1       9.263  11.131  20.279  0.00  0.00    +0.000 NA
BRANCH  22  27
ATOM     27  O   UNL     1      10.739  13.469  17.306  0.00  0.00    +0.000 OA
ATOM     28  H   UNL     1      11.671  13.252  17.163  0.00  0.00    +0.000 HD
ENDBRANCH  22  27
ENDBRANCH  19  20
ENDBRANCH  18  19
ENDBRANCH   3  18
TORSDOF 8
ENDMDL
MODEL 5
REMARK VINA RESULT:      -7.1      1.093      1.669
REMARK  Name = 
REMARK  10 active torsions:
REMARK  status: ('A' for Active; 'I' for Inactive)
REMARK    1  A    between atoms: C_1  and  C_2
REMARK    2  A    between atoms: C_2  and  C_3
REMARK    3  A    between atoms: C_5  and  C_6
REMARK    4  A    between atoms: N_8  and  C_9
REMARK    5  A    between atoms: C_9  and  C_10
REMARK    6  A    between atoms: C_10  and  C_11
REMARK    7  A    between atoms: C_13  and  O_14
REMARK    8  A    between atoms: C_16  and  C_17
REMARK    9  A    between atoms: C_20  and  C_21
REMARK   10  A    between atoms: C_21  and  N_22
REMARK                            x       y       z     vdW  Elec       q    Type
REMARK                         _______ _______ _______ _____ _____    ______ ____
ROOT
ATOM      1  C   UNL     1       2.761   5.623  19.206  0.00  0.00    +0.000 C 
ATOM      2  O   UNL     1       3.334   5.045  20.128  0.00  0.00    +0.000 OA
ATOM      3  N   UNL     1       2.562   5.040  17.972  0.00  0.00    +0.000 N 
ATOM      4  H   UNL     1       2.128   5.620  17.263  0.00  0.00    +0.000 HD
ENDROOT
BRANCH   1   7
ATOM      5  C   UNL     1       1.387   8.705  20.388  0.00  0.00    +0.000 A 
ATOM      6  O   UNL     1       1.795   7.414  20.540  0.00  0.00    +0.000 OA
ATOM      7  C   UNL     1       2.221   6.968  19.317  0.00  0.00    +0.000 A 
ATOM      8  C   UNL     1       2.056   7.975  18.381  0.00  0.00    +0.000 A 
ATOM      9  C   UNL     1       1.528   9.110  19.067  0.00  0.00    +0.000 A 
BRANCH   5  11
ATOM     10  C   UNL     1      -0.444   8.971  22.063  0.00  0.00    +0.000 C 
ATOM     11  C   UNL     1       0.951   9.390  21.635  0.00  0.00    +0.000 C 
ENDBRANCH   5  11
BRANCH   9  12
ATOM     12  C   UNL     1       1.221  10.463  18.488  0.00  0.00    +0.000 C 
BRANCH  12  13
ATOM     13  N   UNL     1      -0.188  10.736  18.701  0.00  0.00    +0.000 NA
ATOM     14  C   UNL     1      -0.575  12.140  18.741  0.00  0.00    +0.000 C 
ATOM     15  C   UNL     1      -2.060  11.963  19.000  0.00  0.00    +0.000 C 
ATOM     16  C   UNL     1      -2.441  10.776  18.117  0.00  0.00    +0.000 C 
ATOM     17  C   UNL     1      -1.114  10.090  17.783  0.00  0.00    +0.000 C 
ENDBRANCH  12  13
ENDBRANCH   9  12
ENDBRANCH   1   7
BRANCH   3  18
ATOM     18  C   UNL     1       3.075   3.718  17.650  0.00  0.00    +0.000 C 
BRANCH  18  19
ATOM     19  C   UNL     1       4.553   3.570  18.004  0.00  0.00    +0.000 C 
BRANCH  19  20
ATOM     20  C   UNL     1       5.453   4.305  17.044  0.00  0.00    +0.000 A 
ATOM     21  C   UNL     1       6.182   5.403  17.459  0.00  0.00    +0.000 A 
ATOM     22  C   UNL     1       6.992   5.976  16.508  0.00  0.00    +0.000 A 
ATOM     23  N   UNL     1       7.099   5.543  15.248  0.00  0.00    +0.000 NA
ATOM     24  C   UNL     1       6.349   4.479  14.926  0.00  0.00    +0.000 A 
ATOM     25  C   UNL     1       6.448   3.958  13.527  0.00  0.00    +0.000 C 
ATOM     26  N   UNL     1       5.522   3.837  15.780  0.00  0.00    +0.000 NA
BRANCH  22  27
ATOM     27  O   UNL     1       7.772   7.057  16.800  0.00  0.00    +0.000 OA
ATOM     28  H   UNL     1       8.048   6.997  17.726  0.00  0.00    +0.000 HD
ENDBRANCH  22  27
ENDBRANCH  19  20
ENDBRANCH  18  19
ENDBRANCH   3  18
TORSDOF 8
ENDMDL
MODEL 6
REMARK VINA RESULT:      -7.1      2.639      8.890
REMARK  Name = 
REMARK  10 active torsions:
REMARK  status: ('A' for Active; 'I' for Inactive)
REMARK    1  A    between atoms: C_1  and  C_2
REMARK    2  A    between atoms: C_2  and  C_3
REMARK    3  A    between atoms: C_5  and  C_6
REMARK    4  A    between atoms: N_8  and  C_9
REMARK    5  A    between atoms: C_9  and  C_10
REMARK    6  A    between atoms: C_10  and  C_11
REMARK    7  A    between atoms: C_13  and  O_14
REMARK    8  A    between atoms: C_16  and  C_17
REMARK    9  A    between atoms: C_20  and  C_21
REMARK   10  A    between atoms: C_21  and  N_22
REMARK                            x       y       z     vdW  Elec       q    Type
REMARK                         _______ _______ _______ _____ _____    ______ ____
ROOT
ATOM      1  C   UNL     1       1.849   7.851  20.216  0.00  0.00    +0.000 C 
ATOM      2  O   UNL     1       1.571   8.759  19.434  0.00  0.00    +0.000 OA
ATOM      3  N   UNL     1       1.777   8.000  21.585  0.00  0.00    +0.000 N 
ATOM      4  H   UNL     1       2.078   7.209  22.143  0.00  0.00    +0.000 HD
ENDROOT
BRANCH   1   7
ATOM      5  C   UNL     1       2.166   4.325  19.718  0.00  0.00    +0.000 A 
ATOM      6  O   UNL     1       1.631   5.429  20.310  0.00  0.00    +0.000 OA
ATOM      7  C   UNL     1       2.266   6.525  19.789  0.00  0.00    +0.000 A 
ATOM      8  C   UNL     1       3.226   6.109  18.883  0.00  0.00    +0.000 A 
ATOM      9  C   UNL     1       3.161   4.685  18.819  0.00  0.00    +0.000 A 
BRANCH   5  11
ATOM     10  C   UNL     1       1.586   2.800  21.608  0.00  0.00    +0.000 C 
ATOM     11  C   UNL     1       1.549   3.027  20.107  0.00  0.00    +0.000 C 
ENDBRANCH   5  11
BRANCH   9  12
ATOM     12  C   UNL     1       3.975   3.773  17.942  0.00  0.00    +0.000 C 
BRANCH  12  13
ATOM     13  N   UNL     1       5.010   4.566  17.307  0.00  0.00    +0.000 NA
ATOM     14  C   UNL     1       6.319   4.551  17.948  0.00  0.00    +0.000 C 
ATOM     15  C   UNL     1       7.048   5.493  17.007  0.00  0.00    +0.000 C 
ATOM     16  C   UNL     1       6.531   5.093  15.626  0.00  0.00    +0.000 C 
ATOM     17  C   UNL     1       5.251   4.300  15.897  0.00  0.00    +0.000 C 
ENDBRANCH  12  13
ENDBRANCH   9  12
ENDBRANCH   1   7
BRANCH   3  18
ATOM     18  C   UNL     1       1.429   9.267  22.208  0.00  0.00    +0.000 C 
BRANCH  18  19
ATOM     19  C   UNL     1       0.003   9.270  22.754  0.00  0.00    +0.000 C 
BRANCH  19  20
ATOM     20  C   UNL     1      -0.774  10.491  22.333  0.00  0.00    +0.000 A 
ATOM     21  C   UNL     1      -0.615  11.029  21.070  0.00  0.00    +0.000 A 
ATOM     22  C   UNL     1      -1.397  12.124  20.784  0.00  0.00    +0.000 A 
ATOM     23  N   UNL     1      -2.264  12.674  21.639  0.00  0.00    +0.000 NA
ATOM     24  C   UNL     1      -2.349  12.096  22.846  0.00  0.00    +0.000 A 
ATOM     25  C   UNL     1      -3.316  12.677  23.829  0.00  0.00    +0.000 C 
ATOM     26  N   UNL     1      -1.632  11.017  23.232  0.00  0.00    +0.000 NA
BRANCH  22  27
ATOM     27  O   UNL     1      -1.341  12.735  19.566  0.00  0.00    +0.000 OA
ATOM     28  H   UNL     1      -1.278  12.054  18.881  0.00  0.00    +0.000 HD
ENDBRANCH  22  27
ENDBRANCH  19  20
ENDBRANCH  18  19
ENDBRANCH   3  18
TORSDOF 8
ENDMDL
MODEL 7
REMARK VINA RESULT:      -7.1      4.572      7.553
REMARK  Name = 
REMARK  10 active torsions:
REMARK  status: ('A' for Active; 'I' for Inactive)
REMARK    1  A    between atoms: C_1  and  C_2
REMARK    2  A    between atoms: C_2  and  C_3
REMARK    3  A    between atoms: C_5  and  C_6
REMARK    4  A    between atoms: N_8  and  C_9
REMARK    5  A    between atoms: C_9  and  C_10
REMARK    6  A    between atoms: C_10  and  C_11
REMARK    7  A    between atoms: C_13  and  O_14
REMARK    8  A    between atoms: C_16  and  C_17
REMARK    9  A    between atoms: C_20  and  C_21
REMARK   10  A    between atoms: C_21  and  N_22
REMARK                            x       y       z     vdW  Elec       q    Type
REMARK                         _______ _______ _______ _____ _____    ______ ____
ROOT
ATOM      1  C   UNL     1       7.334   7.096  17.429  0.00  0.00    +0.000 C 
ATOM      2  O   UNL     1       7.972   6.899  16.395  0.00  0.00    +0.000 OA
ATOM      3  N   UNL     1       7.545   8.195  18.235  0.00  0.00    +0.000 N 
ATOM      4  H   UNL     1       7.006   8.237  19.092  0.00  0.00    +0.000 HD
ENDROOT
BRANCH   1   7
ATOM      5  C   UNL     1       4.203   5.592  18.275  0.00  0.00    +0.000 A 
ATOM      6  O   UNL     1       4.982   6.612  17.816  0.00  0.00    +0.000 OA
ATOM      7  C   UNL     1       6.287   6.207  17.905  0.00  0.00    +0.000 A 
ATOM      8  C   UNL     1       6.335   4.936  18.451  0.00  0.00    +0.000 A 
ATOM      9  C   UNL     1       4.989   4.522  18.682  0.00  0.00    +0.000 A 
BRANCH   5  11
ATOM     10  C   UNL     1       2.244   6.810  19.231  0.00  0.00    +0.000 C 
ATOM     11  C   UNL     1       2.734   5.819  18.190  0.00  0.00    +0.000 C 
ENDBRANCH   5  11
BRANCH   9  12
ATOM     12  C   UNL     1       4.522   3.198  19.221  0.00  0.00    +0.000 C 
BRANCH  12  13
ATOM     13  N   UNL     1       3.106   3.306  19.518  0.00  0.00    +0.000 NA
ATOM     14  C   UNL     1       2.234   2.336  18.868  0.00  0.00    +0.000 C 
ATOM     15  C   UNL     1       0.903   2.819  19.416  0.00  0.00    +0.000 C 
ATOM     16  C   UNL     1       1.217   3.165  20.871  0.00  0.00    +0.000 C 
ATOM     17  C   UNL     1       2.741   3.294  20.927  0.00  0.00    +0.000 C 
ENDBRANCH  12  13
ENDBRANCH   9  12
ENDBRANCH   1   7
BRANCH   3  18
ATOM     18  C   UNL     1       8.585   9.172  17.954  0.00  0.00    +0.000 C 
BRANCH  18  19
ATOM     19  C   UNL     1       9.067   9.881  19.216  0.00  0.00    +0.000 C 
BRANCH  19  20
ATOM     20  C   UNL     1       9.852  11.132  18.911  0.00  0.00    +0.000 A 
ATOM     21  C   UNL     1      10.447  11.310  17.677  0.00  0.00    +0.000 A 
ATOM     22  C   UNL     1      11.111  12.501  17.500  0.00  0.00    +0.000 A 
ATOM     23  N   UNL     1      11.209  13.455  18.430  0.00  0.00    +0.000 NA
ATOM     24  C   UNL     1      10.611  13.197  19.603  0.00  0.00    +0.000 A 
ATOM     25  C   UNL     1      10.690  14.245  20.668  0.00  0.00    +0.000 C 
ATOM     26  N   UNL     1       9.931  12.064  19.884  0.00  0.00    +0.000 NA
BRANCH  22  27
ATOM     27  O   UNL     1      11.726  12.799  16.319  0.00  0.00    +0.000 OA
ATOM     28  H   UNL     1      11.687  13.756  16.184  0.00  0.00    +0.000 HD
ENDBRANCH  22  27
ENDBRANCH  19  20
ENDBRANCH  18  19
ENDBRANCH   3  18
TORSDOF 8
ENDMDL
MODEL 8
REMARK VINA RESULT:      -7.1      2.623      8.816
REMARK  Name = 
REMARK  10 active torsions:
REMARK  status: ('A' for Active; 'I' for Inactive)
REMARK    1  A    between atoms: C_1  and  C_2
REMARK    2  A    between atoms: C_2  and  C_3
REMARK    3  A    between atoms: C_5  and  C_6
REMARK    4  A    between atoms: N_8  and  C_9
REMARK    5  A    between atoms: C_9  and  C_10
REMARK    6  A    between atoms: C_10  and  C_11
REMARK    7  A    between atoms: C_13  and  O_14
REMARK    8  A    between atoms: C_16  and  C_17
REMARK    9  A    between atoms: C_20  and  C_21
REMARK   10  A    between atoms: C_21  and  N_22
REMARK                            x       y       z     vdW  Elec       q    Type
REMARK                         _______ _______ _______ _____ _____    ______ ____
ROOT
ATOM      1  C   UNL     1       0.836   9.589  20.555  0.00  0.00    +0.000 C 
ATOM      2  O   UNL     1       1.192  10.221  21.548  0.00  0.00    +0.000 OA
ATOM      3  N   UNL     1      -0.228   9.977  19.768  0.00  0.00    +0.000 N 
ATOM      4  H   UNL     1      -0.474   9.359  19.003  0.00  0.00    +0.000 HD
ENDROOT
BRANCH   1   7
ATOM      5  C   UNL     1       2.094   6.261  20.204  0.00  0.00    +0.000 A 
ATOM      6  O   UNL     1       1.447   7.256  20.874  0.00  0.00    +0.000 OA
ATOM      7  C   UNL     1       1.500   8.381  20.094  0.00  0.00    +0.000 A 
ATOM      8  C   UNL     1       2.209   8.102  18.938  0.00  0.00    +0.000 A 
ATOM      9  C   UNL     1       2.587   6.727  18.993  0.00  0.00    +0.000 A 
BRANCH   5  11
ATOM     10  C   UNL     1       1.003   4.017  20.305  0.00  0.00    +0.000 C 
ATOM     11  C   UNL     1       2.080   4.928  20.867  0.00  0.00    +0.000 C 
ENDBRANCH   5  11
BRANCH   9  12
ATOM     12  C   UNL     1       3.332   5.944  17.947  0.00  0.00    +0.000 C 
BRANCH  12  13
ATOM     13  N   UNL     1       4.753   6.111  18.187  0.00  0.00    +0.000 NA
ATOM     14  C   UNL     1       5.438   4.986  18.812  0.00  0.00    +0.000 C 
ATOM     15  C   UNL     1       6.832   5.582  18.896  0.00  0.00    +0.000 C 
ATOM     16  C   UNL     1       6.987   6.322  17.568  0.00  0.00    +0.000 C 
ATOM     17  C   UNL     1       5.561   6.483  17.036  0.00  0.00    +0.000 C 
ENDBRANCH  12  13
ENDBRANCH   9  12
ENDBRANCH   1   7
BRANCH   3  18
ATOM     18  C   UNL     1      -1.051  11.130  20.095  0.00  0.00    +0.000 C 
BRANCH  18  19
ATOM     19  C   UNL     1      -1.268  12.044  18.892  0.00  0.00    +0.000 C 
BRANCH  19  20
ATOM     20  C   UNL     1      -2.450  11.625  18.054  0.00  0.00    +0.000 A 
ATOM     21  C   UNL     1      -3.739  11.757  18.535  0.00  0.00    +0.000 A 
ATOM     22  C   UNL     1      -4.740  11.371  17.674  0.00  0.00    +0.000 A 
ATOM     23  N   UNL     1      -4.533  10.888  16.446  0.00  0.00    +0.000 NA
ATOM     24  C   UNL     1      -3.251  10.782  16.063  0.00  0.00    +0.000 A 
ATOM     25  C   UNL     1      -2.978  10.253  14.690  0.00  0.00    +0.000 C 
ATOM     26  N   UNL     1      -2.192  11.133  16.824  0.00  0.00    +0.000 NA
BRANCH  22  27
ATOM     27  O   UNL     1      -6.053  11.468  18.028  0.00  0.00    +0.000 OA
ATOM     28  H   UNL     1      -6.533  10.720  17.644  0.00  0.00    +0.000 HD
ENDBRANCH  22  27
ENDBRANCH  19  20
ENDBRANCH  18  19
ENDBRANCH   3  18
TORSDOF 8
ENDMDL
MODEL 9
REMARK VINA RESULT:      -7.1      3.010      8.862
REMARK  Name = 
REMARK  10 active torsions:
REMARK  status: ('A' for Active; 'I' for Inactive)
REMARK    1  A    between atoms: C_1  and  C_2
REMARK    2  A    between atoms: C_2  and  C_3
REMARK    3  A    between atoms: C_5  and  C_6
REMARK    4  A    between atoms: N_8  and  C_9
REMARK    5  A    between atoms: C_9  and  C_10
REMARK    6  A    between atoms: C_10  and  C_11
REMARK    7  A    between atoms: C_13  and  O_14
REMARK    8  A    between atoms: C_16  and  C_17
REMARK    9  A    between atoms: C_20  and  C_21
REMARK   10  A    between atoms: C_21  and  N_22
REMARK                            x       y       z     vdW  Elec       q    Type
REMARK                         _______ _______ _______ _____ _____    ______ ____
ROOT
ATOM      1  C   UNL     1       1.971   9.341  17.923  0.00  0.00    +0.000 C 
ATOM      2  O   UNL     1       2.573  10.291  17.426  0.00  0.00    +0.000 OA
ATOM      3  N   UNL     1       0.749   9.478  18.547  0.00  0.00    +0.000 N 
ATOM      4  H   UNL     1       0.361   8.643  18.971  0.00  0.00    +0.000 HD
ENDROOT
BRANCH   1   7
ATOM      5  C   UNL     1       4.030   6.418  17.882  0.00  0.00    +0.000 A 
ATOM      6  O   UNL     1       3.823   7.764  17.844  0.00  0.00    +0.000 OA
ATOM      7  C   UNL     1       2.470   7.975  17.898  0.00  0.00    +0.000 A 
ATOM      8  C   UNL     1       1.819   6.755  17.942  0.00  0.00    +0.000 A 
ATOM      9  C   UNL     1       2.821   5.738  17.945  0.00  0.00    +0.000 A 
BRANCH   5  11
ATOM     10  C   UNL     1       6.342   6.898  17.072  0.00  0.00    +0.000 C 
ATOM     11  C   UNL     1       5.455   5.989  17.904  0.00  0.00    +0.000 C 
ENDBRANCH   5  11
BRANCH   9  12
ATOM     12  C   UNL     1       2.611   4.252  18.032  0.00  0.00    +0.000 C 
BRANCH  12  13
ATOM     13  N   UNL     1       2.346   3.914  19.418  0.00  0.00    +0.000 NA
ATOM     14  C   UNL     1       1.056   3.295  19.696  0.00  0.00    +0.000 C 
ATOM     15  C   UNL     1       1.191   3.148  21.202  0.00  0.00    +0.000 C 
ATOM     16  C   UNL     1       2.645   2.719  21.393  0.00  0.00    +0.000 C 
ATOM     17  C   UNL     1       3.341   3.084  20.080  0.00  0.00    +0.000 C 
ENDBRANCH  12  13
ENDBRANCH   9  12
ENDBRANCH   1   7
BRANCH   3  18
ATOM     18  C   UNL     1       0.110  10.772  18.719  0.00  0.00    +0.000 C 
BRANCH  18  19
ATOM     19  C   UNL     1      -1.311  10.648  19.263  0.00  0.00    +0.000 C 
BRANCH  19  20
ATOM     20  C   UNL     1      -2.358  10.874  18.202  0.00  0.00    +0.000 A 
ATOM     21  C   UNL     1      -3.494  11.610  18.476  0.00  0.00    +0.000 A 
ATOM     22  C   UNL     1      -4.366  11.777  17.426  0.00  0.00    +0.000 A 
ATOM     23  N   UNL     1      -4.175  11.276  16.202  0.00  0.00    +0.000 NA
ATOM     24  C   UNL     1      -3.051  10.566  16.024  0.00  0.00    +0.000 A 
ATOM     25  C   UNL     1      -2.797   9.996  14.664  0.00  0.00    +0.000 C 
ATOM     26  N   UNL     1      -2.127  10.341  16.983  0.00  0.00    +0.000 NA
BRANCH  22  27
ATOM     27  O   UNL     1      -5.516  12.496  17.568  0.00  0.00    +0.000 OA
ATOM     28  H   UNL     1      -5.484  13.252  16.963  0.00  0.00    +0.000 HD
ENDBRANCH  22  27
ENDBRANCH  19  20
ENDBRANCH  18  19
ENDBRANCH   3  18
TORSDOF 8
ENDMDL
