MODEL 1
REMARK VINA RESULT:      -5.8      0.000      0.000
REMARK  Name = 
REMARK  2 active torsions:
REMARK  status: ('A' for Active; 'I' for Inactive)
REMARK    1  A    between atoms: O_1  and  C_2
REMARK    2  A    between atoms: C_6  and  S_7
REMARK                            x       y       z     vdW  Elec       q    Type
REMARK                         _______ _______ _______ _____ _____    ______ ____
ROOT
ATOM      1  C   UNL     1       7.109   6.114  17.474  0.00  0.00    +0.000 A 
ATOM      2  N   UNL     1       7.587   6.090  16.276  0.00  0.00    +0.000 NA
ATOM      3  C   UNL     1       6.953   5.218  15.435  0.00  0.00    +0.000 A 
ATOM      4  N   UNL     1       7.204   5.024  14.176  0.00  0.00    +0.000 NA
ATOM      5  C   UNL     1       6.286   4.039  13.841  0.00  0.00    +0.000 A 
ATOM      6  N   UNL     1       5.491   3.592  14.774  0.00  0.00    +0.000 NA
ATOM      7  C   UNL     1       5.864   4.331  15.858  0.00  0.00    +0.000 A 
ATOM      8  C   UNL     1       5.457   4.445  17.122  0.00  0.00    +0.000 A 
ATOM      9  N   UNL     1       6.060   5.379  17.951  0.00  0.00    +0.000 N 
ATOM     10  C   UNL     1       5.570   5.356  19.321  0.00  0.00    +0.000 C 
ATOM     11  C   UNL     1       4.185   4.674  19.293  0.00  0.00    +0.000 C 
ATOM     12  S   UNL     1       4.180   3.525  17.856  0.00  0.00    +0.000 S 
ENDROOT
BRANCH   1  13
ATOM     13  O   UNL     1       7.687   6.937  18.360  0.00  0.00    +0.000 OA
ATOM     14  H   UNL     1       8.610   6.648  18.457  0.00  0.00    +0.000 HD
ENDBRANCH   1  13
BRANCH   5  15
ATOM     15  S   UNL     1       6.210   3.436  12.217  0.00  0.00    +0.000 S 
ATOM     16  H   UNL     1       6.934   4.429  11.687  0.00  0.00    +0.000 HD
ENDBRANCH   5  15
TORSDOF 2
ENDMDL
MODEL 2
REMARK VINA RESULT:      -5.7      1.172      1.208
REMARK  Name = 
REMARK  2 active torsions:
REMARK  status: ('A' for Active; 'I' for Inactive)
REMARK    1  A    between atoms: O_1  and  C_2
REMARK    2  A    between atoms: C_6  and  S_7
REMARK                            x       y       z     vdW  Elec       q    Type
REMARK                         _______ _______ _______ _____ _____    ______ ____
ROOT
ATOM      1  C   UNL     1       6.684   5.109  18.581  0.00  0.00    +0.000 A 
ATOM      2  N   UNL     1       7.511   5.138  17.591  0.00  0.00    +0.000 NA
ATOM      3  C   UNL     1       6.962   4.783  16.389  0.00  0.00    +0.000 A 
ATOM      4  N   UNL     1       7.554   4.765  15.234  0.00  0.00    +0.000 NA
ATOM      5  C   UNL     1       6.545   4.321  14.392  0.00  0.00    +0.000 A 
ATOM      6  N   UNL     1       5.379   4.052  14.914  0.00  0.00    +0.000 NA
ATOM      7  C   UNL     1       5.571   4.343  16.233  0.00  0.00    +0.000 A 
ATOM      8  C   UNL     1       4.814   4.351  17.329  0.00  0.00    +0.000 A 
ATOM      9  N   UNL     1       5.360   4.776  18.531  0.00  0.00    +0.000 N 
ATOM     10  C   UNL     1       4.449   4.674  19.661  0.00  0.00    +0.000 C 
ATOM     11  C   UNL     1       3.018   4.626  19.084  0.00  0.00    +0.000 C 
ATOM     12  S   UNL     1       3.140   3.893  17.400  0.00  0.00    +0.000 S 
ENDROOT
BRANCH   1  13
ATOM     13  O   UNL     1       7.153   5.433  19.794  0.00  0.00    +0.000 OA
ATOM     14  H   UNL     1       8.123   5.438  19.732  0.00  0.00    +0.000 HD
ENDBRANCH   1  13
BRANCH   5  15
ATOM     15  S   UNL     1       6.843   4.141  12.694  0.00  0.00    +0.000 S 
ATOM     16  H   UNL     1       5.643   3.620  12.417  0.00  0.00    +0.000 HD
ENDBRANCH   5  15
TORSDOF 2
ENDMDL
MODEL 3
REMARK VINA RESULT:      -5.6      2.886      3.743
REMARK  Name = 
REMARK  2 active torsions:
REMARK  status: ('A' for Active; 'I' for Inactive)
REMARK    1  A    between atoms: O_1  and  C_2
REMARK    2  A    between atoms: C_6  and  S_7
REMARK                            x       y       z     vdW  Elec       q    Type
REMARK                         _______ _______ _______ _____ _____    ______ ____
ROOT
ATOM      1  C   UNL     1       2.772   6.234  19.397  0.00  0.00    +0.000 A 
ATOM      2  N   UNL     1       3.574   6.656  18.479  0.00  0.00    +0.000 NA
ATOM      3  C   UNL     1       4.061   5.674  17.661  0.00  0.00    +0.000 A 
ATOM      4  N   UNL     1       4.848   5.825  16.641  0.00  0.00    +0.000 NA
ATOM      5  C   UNL     1       5.023   4.519  16.207  0.00  0.00    +0.000 A 
ATOM      6  N   UNL     1       4.426   3.564  16.866  0.00  0.00    +0.000 NA
ATOM      7  C   UNL     1       3.759   4.249  17.839  0.00  0.00    +0.000 A 
ATOM      8  C   UNL     1       2.920   3.934  18.825  0.00  0.00    +0.000 A 
ATOM      9  N   UNL     1       2.378   4.943  19.607  0.00  0.00    +0.000 N 
ATOM     10  C   UNL     1       1.531   4.460  20.688  0.00  0.00    +0.000 C 
ATOM     11  C   UNL     1       1.084   3.032  20.307  0.00  0.00    +0.000 C 
ATOM     12  S   UNL     1       2.395   2.328  19.225  0.00  0.00    +0.000 S 
ENDROOT
BRANCH   1  13
ATOM     13  O   UNL     1       2.263   7.138  20.245  0.00  0.00    +0.000 OA
ATOM     14  H   UNL     1       2.355   6.771  21.141  0.00  0.00    +0.000 HD
ENDBRANCH   1  13
BRANCH   5  15
ATOM     15  S   UNL     1       6.009   4.186  14.820  0.00  0.00    +0.000 S 
ATOM     16  H   UNL     1       5.108   4.618  13.929  0.00  0.00    +0.000 HD
ENDBRANCH   5  15
TORSDOF 2
ENDMDL
MODEL 4
REMARK VINA RESULT:      -5.6      3.765      4.946
REMARK  Name = 
REMARK  2 active torsions:
REMARK  status: ('A' for Active; 'I' for Inactive)
REMARK    1  A    between atoms: O_1  and  C_2
REMARK    2  A    between atoms: C_6  and  S_7
REMARK                            x       y       z     vdW  Elec       q    Type
REMARK                         _______ _______ _______ _____ _____    ______ ____
ROOT
ATOM      1  C   UNL     1       2.921   2.653  17.790  0.00  0.00    +0.000 A 
ATOM      2  N   UNL     1       4.033   2.990  17.231  0.00  0.00    +0.000 NA
ATOM      3  C   UNL     1       4.766   3.902  17.940  0.00  0.00    +0.000 A 
ATOM      4  N   UNL     1       5.932   4.380  17.630  0.00  0.00    +0.000 NA
ATOM      5  C   UNL     1       6.180   5.255  18.677  0.00  0.00    +0.000 A 
ATOM      6  N   UNL     1       5.275   5.375  19.610  0.00  0.00    +0.000 NA
ATOM      7  C   UNL     1       4.310   4.503  19.199  0.00  0.00    +0.000 A 
ATOM      8  C   UNL     1       3.142   4.077  19.677  0.00  0.00    +0.000 A 
ATOM      9  N   UNL     1       2.437   3.103  18.986  0.00  0.00    +0.000 N 
ATOM     10  C   UNL     1       1.149   2.774  19.579  0.00  0.00    +0.000 C 
ATOM     11  C   UNL     1       1.205   3.221  21.056  0.00  0.00    +0.000 C 
ATOM     12  S   UNL     1       2.399   4.618  21.151  0.00  0.00    +0.000 S 
ENDROOT
BRANCH   1  13
ATOM     13  O   UNL     1       2.142   1.771  17.147  0.00  0.00    +0.000 OA
ATOM     14  H   UNL     1       2.524   0.890  17.300  0.00  0.00    +0.000 HD
ENDBRANCH   1  13
BRANCH   5  15
ATOM     15  S   UNL     1       7.664   6.150  18.731  0.00  0.00    +0.000 S 
ATOM     16  H   UNL     1       7.944   5.994  17.432  0.00  0.00    +0.000 HD
ENDBRANCH   5  15
TORSDOF 2
ENDMDL
MODEL 5
REMARK VINA RESULT:      -5.5      2.177      4.335
REMARK  Name = 
REMARK  2 active torsions:
REMARK  status: ('A' for Active; 'I' for Inactive)
REMARK    1  A    between atoms: O_1  and  C_2
REMARK    2  A    between atoms: C_6  and  S_7
REMARK                            x       y       z     vdW  Elec       q    Type
REMARK                         _______ _______ _______ _____ _____    ______ ____
ROOT
ATOM      1  C   UNL     1       6.584   4.675  18.474  0.00  0.00    +0.000 A 
ATOM      2  N   UNL     1       5.709   4.290  19.340  0.00  0.00    +0.000 NA
ATOM      3  C   UNL     1       4.526   3.870  18.795  0.00  0.00    +0.000 A 
ATOM      4  N   UNL     1       3.497   3.398  19.430  0.00  0.00    +0.000 NA
ATOM      5  C   UNL     1       2.601   3.156  18.400  0.00  0.00    +0.000 A 
ATOM      6  N   UNL     1       2.969   3.440  17.180  0.00  0.00    +0.000 NA
ATOM      7  C   UNL     1       4.238   3.909  17.357  0.00  0.00    +0.000 A 
ATOM      8  C   UNL     1       5.220   4.329  16.561  0.00  0.00    +0.000 A 
ATOM      9  N   UNL     1       6.439   4.690  17.115  0.00  0.00    +0.000 N 
ATOM     10  C   UNL     1       7.402   5.193  16.147  0.00  0.00    +0.000 C 
ATOM     11  C   UNL     1       6.957   4.678  14.760  0.00  0.00    +0.000 C 
ATOM     12  S   UNL     1       5.133   4.448  14.831  0.00  0.00    +0.000 S 
ENDROOT
BRANCH   1  13
ATOM     13  O   UNL     1       7.765   5.112  18.933  0.00  0.00    +0.000 OA
ATOM     14  H   UNL     1       7.772   4.957  19.893  0.00  0.00    +0.000 HD
ENDBRANCH   1  13
BRANCH   5  15
ATOM     15  S   UNL     1       1.039   2.486  18.743  0.00  0.00    +0.000 S 
ATOM     16  H   UNL     1       0.992   2.934  20.003  0.00  0.00    +0.000 HD
ENDBRANCH   5  15
TORSDOF 2
ENDMDL
MODEL 6
REMARK VINA RESULT:      -5.4      4.605      5.929
REMARK  Name = 
REMARK  2 active torsions:
REMARK  status: ('A' for Active; 'I' for Inactive)
REMARK    1  A    between atoms: O_1  and  C_2
REMARK    2  A    between atoms: C_6  and  S_7
REMARK                            x       y       z     vdW  Elec       q    Type
REMARK                         _______ _______ _______ _____ _____    ______ ____
ROOT
ATOM      1  C   UNL     1       2.388   4.017  20.941  0.00  0.00    +0.000 A 
ATOM      2  N   UNL     1       2.037   5.245  21.123  0.00  0.00    +0.000 NA
ATOM      3  C   UNL     1       2.220   6.051  20.033  0.00  0.00    +0.000 A 
ATOM      4  N   UNL     1       1.917   7.309  19.930  0.00  0.00    +0.000 NA
ATOM      5  C   UNL     1       2.329   7.606  18.639  0.00  0.00    +0.000 A 
ATOM      6  N   UNL     1       2.868   6.655  17.927  0.00  0.00    +0.000 NA
ATOM      7  C   UNL     1       2.823   5.589  18.777  0.00  0.00    +0.000 A 
ATOM      8  C   UNL     1       3.149   4.298  18.709  0.00  0.00    +0.000 A 
ATOM      9  N   UNL     1       2.898   3.474  19.796  0.00  0.00    +0.000 N 
ATOM     10  C   UNL     1       3.360   2.105  19.617  0.00  0.00    +0.000 C 
ATOM     11  C   UNL     1       3.504   1.873  18.098  0.00  0.00    +0.000 C 
ATOM     12  S   UNL     1       3.857   3.510  17.334  0.00  0.00    +0.000 S 
ENDROOT
BRANCH   1  13
ATOM     13  O   UNL     1       2.249   3.170  21.970  0.00  0.00    +0.000 OA
ATOM     14  H   UNL     1       2.065   3.708  22.759  0.00  0.00    +0.000 HD
ENDBRANCH   1  13
BRANCH   5  15
ATOM     15  S   UNL     1       2.116   9.205  18.004  0.00  0.00    +0.000 S 
ATOM     16  H   UNL     1       3.060   9.764  18.770  0.00  0.00    +0.000 HD
ENDBRANCH   5  15
TORSDOF 2
ENDMDL
MODEL 7
REMARK VINA RESULT:      -5.3      3.473      4.459
REMARK  Name = 
REMARK  2 active torsions:
REMARK  status: ('A' for Active; 'I' for Inactive)
REMARK    1  A    between atoms: O_1  and  C_2
REMARK    2  A    between atoms: C_6  and  S_7
REMARK                            x       y       z     vdW  Elec       q    Type
REMARK                         _______ _______ _______ _____ _____    ______ ____
ROOT
ATOM      1  C   UNL     1       2.384   2.559  18.549  0.00  0.00    +0.000 A 
ATOM      2  N   UNL     1       3.259   2.281  17.643  0.00  0.00    +0.000 NA
ATOM      3  C   UNL     1       4.047   3.339  17.278  0.00  0.00    +0.000 A 
ATOM      4  N   UNL     1       5.024   3.329  16.424  0.00  0.00    +0.000 NA
ATOM      5  C   UNL     1       5.444   4.651  16.440  0.00  0.00    +0.000 A 
ATOM      6  N   UNL     1       4.815   5.489  17.218  0.00  0.00    +0.000 NA
ATOM      7  C   UNL     1       3.881   4.694  17.816  0.00  0.00    +0.000 A 
ATOM      8  C   UNL     1       2.941   4.859  18.745  0.00  0.00    +0.000 A 
ATOM      9  N   UNL     1       2.192   3.767  19.157  0.00  0.00    +0.000 N 
ATOM     10  C   UNL     1       1.156   4.094  20.127  0.00  0.00    +0.000 C 
ATOM     11  C   UNL     1       1.556   5.436  20.778  0.00  0.00    +0.000 C 
ATOM     12  S   UNL     1       2.564   6.355  19.543  0.00  0.00    +0.000 S 
ENDROOT
BRANCH   1  13
ATOM     13  O   UNL     1       1.567   1.574  18.949  0.00  0.00    +0.000 OA
ATOM     14  H   UNL     1       0.740   1.670  18.447  0.00  0.00    +0.000 HD
ENDBRANCH   1  13
BRANCH   5  15
ATOM     15  S   UNL     1       6.775   5.154  15.450  0.00  0.00    +0.000 S 
ATOM     16  H   UNL     1       6.477   4.341  14.429  0.00  0.00    +0.000 HD
ENDBRANCH   5  15
TORSDOF 2
ENDMDL
MODEL 8
REMARK VINA RESULT:      -5.3      4.042      4.964
REMARK  Name = 
REMARK  2 active torsions:
REMARK  status: ('A' for Active; 'I' for Inactive)
REMARK    1  A    between atoms: O_1  and  C_2
REMARK    2  A    between atoms: C_6  and  S_7
REMARK                            x       y       z     vdW  Elec       q    Type
REMARK                         _______ _______ _______ _____ _____    ______ ____
ROOT
ATOM      1  C   UNL     1       4.919   4.425  18.684  0.00  0.00    +0.000 A 
ATOM      2  N   UNL     1       4.982   5.550  18.055  0.00  0.00    +0.000 NA
ATOM      3  C   UNL     1       3.902   6.366  18.253  0.00  0.00    +0.000 A 
ATOM      4  N   UNL     1       3.727   7.561  17.775  0.00  0.00    +0.000 NA
ATOM      5  C   UNL     1       2.479   7.899  18.277  0.00  0.00    +0.000 A 
ATOM      6  N   UNL     1       1.853   7.025  19.017  0.00  0.00    +0.000 NA
ATOM      7  C   UNL     1       2.735   5.985  19.057  0.00  0.00    +0.000 A 
ATOM      8  C   UNL     1       2.784   4.796  19.656  0.00  0.00    +0.000 A 
ATOM      9  N   UNL     1       3.911   4.003  19.505  0.00  0.00    +0.000 N 
ATOM     10  C   UNL     1       3.810   2.704  20.155  0.00  0.00    +0.000 C 
ATOM     11  C   UNL     1       2.713   2.825  21.235  0.00  0.00    +0.000 C 
ATOM     12  S   UNL     1       1.543   4.128  20.670  0.00  0.00    +0.000 S 
ENDROOT
BRANCH   1  13
ATOM     13  O   UNL     1       5.936   3.566  18.529  0.00  0.00    +0.000 OA
ATOM     14  H   UNL     1       6.271   3.683  17.624  0.00  0.00    +0.000 HD
ENDBRANCH   1  13
BRANCH   5  15
ATOM     15  S   UNL     1       1.789   9.449  17.923  0.00  0.00    +0.000 S 
ATOM     16  H   UNL     1       0.532   9.002  17.827  0.00  0.00    +0.000 HD
ENDBRANCH   5  15
TORSDOF 2
ENDMDL
MODEL 9
REMARK VINA RESULT:      -5.2      2.609      3.180
REMARK  Name = 
REMARK  2 active torsions:
REMARK  status: ('A' for Active; 'I' for Inactive)
REMARK    1  A    between atoms: O_1  and  C_2
REMARK    2  A    between atoms: C_6  and  S_7
REMARK                            x       y       z     vdW  Elec       q    Type
REMARK                         _______ _______ _______ _____ _____    ______ ____
ROOT
ATOM      1  C   UNL     1       3.020   6.912  18.481  0.00  0.00    +0.000 A 
ATOM      2  N   UNL     1       3.753   7.312  17.498  0.00  0.00    +0.000 NA
ATOM      3  C   UNL     1       4.478   6.319  16.897  0.00  0.00    +0.000 A 
ATOM      4  N   UNL     1       5.261   6.435  15.869  0.00  0.00    +0.000 NA
ATOM      5  C   UNL     1       5.732   5.140  15.709  0.00  0.00    +0.000 A 
ATOM      6  N   UNL     1       5.324   4.226  16.546  0.00  0.00    +0.000 NA
ATOM      7  C   UNL     1       4.481   4.926  17.359  0.00  0.00    +0.000 A 
ATOM      8  C   UNL     1       3.684   4.635  18.387  0.00  0.00    +0.000 A 
ATOM      9  N   UNL     1       2.903   5.634  18.947  0.00  0.00    +0.000 N 
ATOM     10  C   UNL     1       2.129   5.200  20.102  0.00  0.00    +0.000 C 
ATOM     11  C   UNL     1       2.017   3.662  20.017  0.00  0.00    +0.000 C 
ATOM     12  S   UNL     1       3.498   3.064  19.103  0.00  0.00    +0.000 S 
ENDROOT
BRANCH   1  13
ATOM     13  O   UNL     1       2.290   7.832  19.128  0.00  0.00    +0.000 OA
ATOM     14  H   UNL     1       2.358   8.658  18.619  0.00  0.00    +0.000 HD
ENDBRANCH   1  13
BRANCH   5  15
ATOM     15  S   UNL     1       6.829   4.765  14.420  0.00  0.00    +0.000 S 
ATOM     16  H   UNL     1       6.830   3.446  14.644  0.00  0.00    +0.000 HD
ENDBRANCH   5  15
TORSDOF 2
ENDMDL
