MODEL 1
REMARK VINA RESULT:      -8.8      0.000      0.000
REMARK  Name = 
REMARK  7 active torsions:
REMARK  status: ('A' for Active; 'I' for Inactive)
REMARK    1  A    between atoms: C_1  and  C_2
REMARK    2  A    between atoms: C_5  and  N_6
REMARK    3  A    between atoms: C_8  and  C_9
REMARK    4  A    between atoms: C_12  and  N_13
REMARK    5  A    between atoms: N_13  and  S_14
REMARK    6  A    between atoms: S_14  and  C_17
REMARK    7  A    between atoms: C_27  and  N_28
REMARK                            x       y       z     vdW  Elec       q    Type
REMARK                         _______ _______ _______ _____ _____    ______ ____
ROOT
ATOM      1  C   UNL     1       1.061   9.142  19.242  0.00  0.00    +0.000 A 
ATOM      2  C   UNL     1       1.037   8.461  20.469  0.00  0.00    +0.000 A 
ATOM      3  C   UNL     1       1.846   7.334  20.682  0.00  0.00    +0.000 A 
ATOM      4  C   UNL     1       2.694   6.890  19.672  0.00  0.00    +0.000 A 
ATOM      5  C   UNL     1       2.729   7.556  18.449  0.00  0.00    +0.000 A 
ATOM      6  C   UNL     1       1.916   8.673  18.235  0.00  0.00    +0.000 A 
ENDROOT
BRANCH   1   9
ATOM      7  N   UNL     1      -1.578  11.461  18.643  0.00  0.00    +0.000 N 
ATOM      8  N   UNL     1      -1.140  10.223  19.009  0.00  0.00    +0.000 NA
ATOM      9  C   UNL     1       0.200  10.304  18.994  0.00  0.00    +0.000 A 
ATOM     10  C   UNL     1       0.621  11.634  18.743  0.00  0.00    +0.000 A 
ATOM     11  C   UNL     1      -0.521  12.371  18.553  0.00  0.00    +0.000 A 
BRANCH   7  16
ATOM     12  C   UNL     1      -7.160  12.380  17.732  0.00  0.00    +0.000 C 
ATOM     13  C   UNL     1      -5.699  12.133  17.960  0.00  0.00    +0.000 A 
ATOM     14  C   UNL     1      -4.881  11.626  16.942  0.00  0.00    +0.000 A 
ATOM     15  C   UNL     1      -3.514  11.428  17.159  0.00  0.00    +0.000 A 
ATOM     16  C   UNL     1      -2.961  11.701  18.415  0.00  0.00    +0.000 A 
ATOM     17  C   UNL     1      -3.773  12.219  19.433  0.00  0.00    +0.000 A 
ATOM     18  C   UNL     1      -5.132  12.437  19.203  0.00  0.00    +0.000 A 
ENDBRANCH   7  16
BRANCH  11  19
ATOM     19  N   UNL     1      -0.643  13.713  18.372  0.00  0.00    +0.000 N 
ATOM     20  H   UNL     1      -0.047  14.180  17.695  0.00  0.00    +0.000 HD
ATOM     21  H   UNL     1      -0.848  14.312  19.170  0.00  0.00    +0.000 HD
ENDBRANCH  11  19
ENDBRANCH   1   9
BRANCH   4  22
ATOM     22  N   UNL     1       3.566   5.789  19.872  0.00  0.00    +0.000 N 
ATOM     23  H   UNL     1       3.922   5.617  20.811  0.00  0.00    +0.000 HD
BRANCH  22  24
ATOM     24  S   UNL     1       3.362   4.382  18.970  0.00  0.00    +0.000 S 
ATOM     25  O   UNL     1       3.727   3.281  19.844  0.00  0.00    +0.000 OA
ATOM     26  O   UNL     1       2.075   4.422  18.314  0.00  0.00    +0.000 OA
BRANCH  24  27
ATOM     27  C   UNL     1       4.642   4.523  17.748  0.00  0.00    +0.000 A 
ATOM     28  C   UNL     1       4.313   4.394  16.392  0.00  0.00    +0.000 A 
ATOM     29  C   UNL     1       5.332   4.375  15.441  0.00  0.00    +0.000 A 
ATOM     30  C   UNL     1       6.656   4.507  15.851  0.00  0.00    +0.000 A 
ATOM     31  F   UNL     1       7.636   4.451  14.940  0.00  0.00    +0.000 F 
ATOM     32  C   UNL     1       6.982   4.681  17.194  0.00  0.00    +0.000 A 
ATOM     33  C   UNL     1       5.970   4.693  18.153  0.00  0.00    +0.000 A 
ENDBRANCH  24  27
ENDBRANCH  22  24
ENDBRANCH   4  22
TORSDOF 6
ENDMDL
MODEL 2
REMARK VINA RESULT:      -8.7      2.077      2.964
REMARK  Name = 
REMARK  7 active torsions:
REMARK  status: ('A' for Active; 'I' for Inactive)
REMARK    1  A    between atoms: C_1  and  C_2
REMARK    2  A    between atoms: C_5  and  N_6
REMARK    3  A    between atoms: C_8  and  C_9
REMARK    4  A    between atoms: C_12  and  N_13
REMARK    5  A    between atoms: N_13  and  S_14
REMARK    6  A    between atoms: S_14  and  C_17
REMARK    7  A    between atoms: C_27  and  N_28
REMARK                            x       y       z     vdW  Elec       q    Type
REMARK                         _______ _______ _______ _____ _____    ______ ____
ROOT
ATOM      1  C   UNL     1       1.658   8.465  19.296  0.00  0.00    +0.000 A 
ATOM      2  C   UNL     1       2.280   8.147  18.079  0.00  0.00    +0.000 A 
ATOM      3  C   UNL     1       2.882   6.894  17.885  0.00  0.00    +0.000 A 
ATOM      4  C   UNL     1       2.854   5.947  18.905  0.00  0.00    +0.000 A 
ATOM      5  C   UNL     1       2.239   6.248  20.118  0.00  0.00    +0.000 A 
ATOM      6  C   UNL     1       1.648   7.499  20.313  0.00  0.00    +0.000 A 
ENDROOT
BRANCH   1   9
ATOM      7  N   UNL     1      -0.273  11.286  20.303  0.00  0.00    +0.000 N 
ATOM      8  N   UNL     1       0.108   9.986  20.458  0.00  0.00    +0.000 NA
ATOM      9  C   UNL     1       1.050   9.780  19.525  0.00  0.00    +0.000 A 
ATOM     10  C   UNL     1       1.366  10.989  18.854  0.00  0.00    +0.000 A 
ATOM     11  C   UNL     1       0.539  11.949  19.380  0.00  0.00    +0.000 A 
BRANCH   7  16
ATOM     12  C   UNL     1      -4.660  13.446  23.290  0.00  0.00    +0.000 C 
ATOM     13  C   UNL     1      -3.505  12.880  22.518  0.00  0.00    +0.000 A 
ATOM     14  C   UNL     1      -2.406  12.310  23.172  0.00  0.00    +0.000 A 
ATOM     15  C   UNL     1      -1.349  11.760  22.440  0.00  0.00    +0.000 A 
ATOM     16  C   UNL     1      -1.369  11.812  21.042  0.00  0.00    +0.000 A 
ATOM     17  C   UNL     1      -2.472  12.371  20.384  0.00  0.00    +0.000 A 
ATOM     18  C   UNL     1      -3.534  12.897  21.120  0.00  0.00    +0.000 A 
ENDBRANCH   7  16
BRANCH  11  19
ATOM     19  N   UNL     1       0.523  13.285  19.127  0.00  0.00    +0.000 N 
ATOM     20  H   UNL     1      -0.090  13.648  18.402  0.00  0.00    +0.000 HD
ATOM     21  H   UNL     1       1.389  13.820  19.189  0.00  0.00    +0.000 HD
ENDBRANCH  11  19
ENDBRANCH   1   9
BRANCH   4  22
ATOM     22  N   UNL     1       3.402   4.651  18.723  0.00  0.00    +0.000 N 
ATOM     23  H   UNL     1       3.013   4.058  17.992  0.00  0.00    +0.000 HD
BRANCH  22  24
ATOM     24  S   UNL     1       5.045   4.391  18.985  0.00  0.00    +0.000 S 
ATOM     25  O   UNL     1       5.544   5.580  19.654  0.00  0.00    +0.000 OA
ATOM     26  O   UNL     1       5.232   3.077  19.557  0.00  0.00    +0.000 OA
BRANCH  24  27
ATOM     27  C   UNL     1       5.702   4.407  17.336  0.00  0.00    +0.000 A 
ATOM     28  C   UNL     1       7.055   4.714  17.139  0.00  0.00    +0.000 A 
ATOM     29  C   UNL     1       7.541   4.853  15.840  0.00  0.00    +0.000 A 
ATOM     30  C   UNL     1       6.682   4.666  14.761  0.00  0.00    +0.000 A 
ATOM     31  F   UNL     1       7.142   4.837  13.516  0.00  0.00    +0.000 F 
ATOM     32  C   UNL     1       5.347   4.317  14.954  0.00  0.00    +0.000 A 
ATOM     33  C   UNL     1       4.850   4.182  16.250  0.00  0.00    +0.000 A 
ENDBRANCH  24  27
ENDBRANCH  22  24
ENDBRANCH   4  22
TORSDOF 6
ENDMDL
MODEL 3
REMARK VINA RESULT:      -8.7      0.238      1.269
REMARK  Name = 
REMARK  7 active torsions:
REMARK  status: ('A' for Active; 'I' for Inactive)
REMARK    1  A    between atoms: C_1  and  C_2
REMARK    2  A    between atoms: C_5  and  N_6
REMARK    3  A    between atoms: C_8  and  C_9
REMARK    4  A    between atoms: C_12  and  N_13
REMARK    5  A    between atoms: N_13  and  S_14
REMARK    6  A    between atoms: S_14  and  C_17
REMARK    7  A    between atoms: C_27  and  N_28
REMARK                            x       y       z     vdW  Elec       q    Type
REMARK                         _______ _______ _______ _____ _____    ______ ____
ROOT
ATOM      1  C   UNL     1       1.078   9.177  19.076  0.00  0.00    +0.000 A 
ATOM      2  C   UNL     1       1.916   8.711  18.051  0.00  0.00    +0.000 A 
ATOM      3  C   UNL     1       2.773   7.619  18.265  0.00  0.00    +0.000 A 
ATOM      4  C   UNL     1       2.785   6.980  19.501  0.00  0.00    +0.000 A 
ATOM      5  C   UNL     1       1.958   7.432  20.527  0.00  0.00    +0.000 A 
ATOM      6  C   UNL     1       1.113   8.524  20.317  0.00  0.00    +0.000 A 
ENDROOT
BRANCH   1   9
ATOM      7  N   UNL     1      -1.598  11.483  18.599  0.00  0.00    +0.000 N 
ATOM      8  N   UNL     1      -1.138  10.240  18.923  0.00  0.00    +0.000 NA
ATOM      9  C   UNL     1       0.199  10.336  18.878  0.00  0.00    +0.000 A 
ATOM     10  C   UNL     1       0.601  11.677  18.651  0.00  0.00    +0.000 A 
ATOM     11  C   UNL     1      -0.553  12.405  18.507  0.00  0.00    +0.000 A 
BRANCH   7  16
ATOM     12  C   UNL     1      -7.191  12.460  17.833  0.00  0.00    +0.000 C 
ATOM     13  C   UNL     1      -5.728  12.211  18.044  0.00  0.00    +0.000 A 
ATOM     14  C   UNL     1      -5.120  12.466  19.279  0.00  0.00    +0.000 A 
ATOM     15  C   UNL     1      -3.760  12.202  19.471  0.00  0.00    +0.000 A 
ATOM     16  C   UNL     1      -2.988  11.714  18.410  0.00  0.00    +0.000 A 
ATOM     17  C   UNL     1      -3.596  11.446  17.177  0.00  0.00    +0.000 A 
ATOM     18  C   UNL     1      -4.958  11.689  16.998  0.00  0.00    +0.000 A 
ENDBRANCH   7  16
BRANCH  11  19
ATOM     19  N   UNL     1      -0.693  13.750  18.363  0.00  0.00    +0.000 N 
ATOM     20  H   UNL     1       0.129  14.320  18.180  0.00  0.00    +0.000 HD
ATOM     21  H   UNL     1      -1.378  14.249  18.930  0.00  0.00    +0.000 HD
ENDBRANCH  11  19
ENDBRANCH   1   9
BRANCH   4  22
ATOM     22  N   UNL     1       3.595   5.839  19.733  0.00  0.00    +0.000 N 
ATOM     23  H   UNL     1       3.874   5.628  20.689  0.00  0.00    +0.000 HD
BRANCH  22  24
ATOM     24  S   UNL     1       3.399   4.464  18.780  0.00  0.00    +0.000 S 
ATOM     25  O   UNL     1       3.795   3.337  19.604  0.00  0.00    +0.000 OA
ATOM     26  O   UNL     1       2.101   4.508  18.145  0.00  0.00    +0.000 OA
BRANCH  24  27
ATOM     27  C   UNL     1       4.657   4.674  17.545  0.00  0.00    +0.000 A 
ATOM     28  C   UNL     1       4.421   4.218  16.241  0.00  0.00    +0.000 A 
ATOM     29  C   UNL     1       5.453   4.264  15.305  0.00  0.00    +0.000 A 
ATOM     30  C   UNL     1       6.692   4.781  15.673  0.00  0.00    +0.000 A 
ATOM     31  F   UNL     1       7.692   4.790  14.783  0.00  0.00    +0.000 F 
ATOM     32  C   UNL     1       6.916   5.275  16.956  0.00  0.00    +0.000 A 
ATOM     33  C   UNL     1       5.891   5.226  17.901  0.00  0.00    +0.000 A 
ENDBRANCH  24  27
ENDBRANCH  22  24
ENDBRANCH   4  22
TORSDOF 6
ENDMDL
MODEL 4
REMARK VINA RESULT:      -8.7      2.064      2.726
REMARK  Name = 
REMARK  7 active torsions:
REMARK  status: ('A' for Active; 'I' for Inactive)
REMARK    1  A    between atoms: C_1  and  C_2
REMARK    2  A    between atoms: C_5  and  N_6
REMARK    3  A    between atoms: C_8  and  C_9
REMARK    4  A    between atoms: C_12  and  N_13
REMARK    5  A    between atoms: N_13  and  S_14
REMARK    6  A    between atoms: S_14  and  C_17
REMARK    7  A    between atoms: C_27  and  N_28
REMARK                            x       y       z     vdW  Elec       q    Type
REMARK                         _______ _______ _______ _____ _____    ______ ____
ROOT
ATOM      1  C   UNL     1       1.665   8.365  19.371  0.00  0.00    +0.000 A 
ATOM      2  C   UNL     1       1.666   7.405  20.395  0.00  0.00    +0.000 A 
ATOM      3  C   UNL     1       2.196   6.123  20.178  0.00  0.00    +0.000 A 
ATOM      4  C   UNL     1       2.742   5.801  18.939  0.00  0.00    +0.000 A 
ATOM      5  C   UNL     1       2.749   6.744  17.914  0.00  0.00    +0.000 A 
ATOM      6  C   UNL     1       2.212   8.016  18.128  0.00  0.00    +0.000 A 
ENDROOT
BRANCH   1   9
ATOM      7  N   UNL     1      -0.212  11.247  20.307  0.00  0.00    +0.000 N 
ATOM      8  N   UNL     1       0.132   9.939  20.484  0.00  0.00    +0.000 NA
ATOM      9  C   UNL     1       1.088   9.699  19.573  0.00  0.00    +0.000 A 
ATOM     10  C   UNL     1       1.449  10.891  18.896  0.00  0.00    +0.000 A 
ATOM     11  C   UNL     1       0.637  11.878  19.394  0.00  0.00    +0.000 A 
BRANCH   7  16
ATOM     12  C   UNL     1      -4.651  13.470  23.168  0.00  0.00    +0.000 C 
ATOM     13  C   UNL     1      -3.496  12.888  22.409  0.00  0.00    +0.000 A 
ATOM     14  C   UNL     1      -3.519  12.796  21.011  0.00  0.00    +0.000 A 
ATOM     15  C   UNL     1      -2.423  12.277  20.314  0.00  0.00    +0.000 A 
ATOM     16  C   UNL     1      -1.307  11.809  21.018  0.00  0.00    +0.000 A 
ATOM     17  C   UNL     1      -1.276  11.910  22.415  0.00  0.00    +0.000 A 
ATOM     18  C   UNL     1      -2.363  12.450  23.103  0.00  0.00    +0.000 A 
ENDBRANCH   7  16
BRANCH  11  19
ATOM     19  N   UNL     1       0.661  13.211  19.127  0.00  0.00    +0.000 N 
ATOM     20  H   UNL     1      -0.174  13.661  18.761  0.00  0.00    +0.000 HD
ATOM     21  H   UNL     1       1.510  13.635  18.755  0.00  0.00    +0.000 HD
ENDBRANCH  11  19
ENDBRANCH   1   9
BRANCH   4  22
ATOM     22  N   UNL     1       3.338   4.535  18.704  0.00  0.00    +0.000 N 
ATOM     23  H   UNL     1       2.985   3.968  17.934  0.00  0.00    +0.000 HD
BRANCH  22  24
ATOM     24  S   UNL     1       4.983   4.317  18.989  0.00  0.00    +0.000 S 
ATOM     25  O   UNL     1       5.436   5.504  19.692  0.00  0.00    +0.000 OA
ATOM     26  O   UNL     1       5.199   2.996  19.535  0.00  0.00    +0.000 OA
BRANCH  24  27
ATOM     27  C   UNL     1       5.667   4.388  17.352  0.00  0.00    +0.000 A 
ATOM     28  C   UNL     1       7.006   4.766  17.184  0.00  0.00    +0.000 A 
ATOM     29  C   UNL     1       7.507   4.948  15.895  0.00  0.00    +0.000 A 
ATOM     30  C   UNL     1       6.677   4.730  14.799  0.00  0.00    +0.000 A 
ATOM     31  F   UNL     1       7.150   4.942  13.564  0.00  0.00    +0.000 F 
ATOM     32  C   UNL     1       5.359   4.311  14.963  0.00  0.00    +0.000 A 
ATOM     33  C   UNL     1       4.847   4.134  16.248  0.00  0.00    +0.000 A 
ENDBRANCH  24  27
ENDBRANCH  22  24
ENDBRANCH   4  22
TORSDOF 6
ENDMDL
MODEL 5
REMARK VINA RESULT:      -8.6      2.112      2.772
REMARK  Name = 
REMARK  7 active torsions:
REMARK  status: ('A' for Active; 'I' for Inactive)
REMARK    1  A    between atoms: C_1  and  C_2
REMARK    2  A    between atoms: C_5  and  N_6
REMARK    3  A    between atoms: C_8  and  C_9
REMARK    4  A    between atoms: C_12  and  N_13
REMARK    5  A    between atoms: N_13  and  S_14
REMARK    6  A    between atoms: S_14  and  C_17
REMARK    7  A    between atoms: C_27  and  N_28
REMARK                            x       y       z     vdW  Elec       q    Type
REMARK                         _______ _______ _______ _____ _____    ______ ____
ROOT
ATOM      1  C   UNL     1       1.612   8.447  19.405  0.00  0.00    +0.000 A 
ATOM      2  C   UNL     1       2.247   8.143  18.191  0.00  0.00    +0.000 A 
ATOM      3  C   UNL     1       2.858   6.894  17.993  0.00  0.00    +0.000 A 
ATOM      4  C   UNL     1       2.824   5.939  19.005  0.00  0.00    +0.000 A 
ATOM      5  C   UNL     1       2.197   6.227  20.215  0.00  0.00    +0.000 A 
ATOM      6  C   UNL     1       1.597   7.474  20.414  0.00  0.00    +0.000 A 
ENDROOT
BRANCH   1   9
ATOM      7  N   UNL     1      -0.336  11.253  20.424  0.00  0.00    +0.000 N 
ATOM      8  N   UNL     1       0.057   9.955  20.577  0.00  0.00    +0.000 NA
ATOM      9  C   UNL     1       0.995   9.758  19.638  0.00  0.00    +0.000 A 
ATOM     10  C   UNL     1       1.297  10.970  18.965  0.00  0.00    +0.000 A 
ATOM     11  C   UNL     1       0.465  11.923  19.496  0.00  0.00    +0.000 A 
BRANCH   7  16
ATOM     12  C   UNL     1      -4.772  13.295  23.421  0.00  0.00    +0.000 C 
ATOM     13  C   UNL     1      -3.618  12.762  22.626  0.00  0.00    +0.000 A 
ATOM     14  C   UNL     1      -3.578  12.885  21.232  0.00  0.00    +0.000 A 
ATOM     15  C   UNL     1      -2.482  12.409  20.506  0.00  0.00    +0.000 A 
ATOM     16  C   UNL     1      -1.430  11.770  21.171  0.00  0.00    +0.000 A 
ATOM     17  C   UNL     1      -1.460  11.655  22.567  0.00  0.00    +0.000 A 
ATOM     18  C   UNL     1      -2.546  12.153  23.288  0.00  0.00    +0.000 A 
ENDBRANCH   7  16
BRANCH  11  19
ATOM     19  N   UNL     1       0.437  13.259  19.244  0.00  0.00    +0.000 N 
ATOM     20  H   UNL     1       0.650  13.593  18.308  0.00  0.00    +0.000 HD
ATOM     21  H   UNL     1       0.754  13.914  19.958  0.00  0.00    +0.000 HD
ENDBRANCH  11  19
ENDBRANCH   1   9
BRANCH   4  22
ATOM     22  N   UNL     1       3.381   4.647  18.818  0.00  0.00    +0.000 N 
ATOM     23  H   UNL     1       2.961   4.034  18.122  0.00  0.00    +0.000 HD
BRANCH  22  24
ATOM     24  S   UNL     1       5.040   4.416  18.993  0.00  0.00    +0.000 S 
ATOM     25  O   UNL     1       5.541   5.580  19.701  0.00  0.00    +0.000 OA
ATOM     26  O   UNL     1       5.283   3.079  19.485  0.00  0.00    +0.000 OA
BRANCH  24  27
ATOM     27  C   UNL     1       5.620   4.535  17.320  0.00  0.00    +0.000 A 
ATOM     28  C   UNL     1       4.745   4.234  16.267  0.00  0.00    +0.000 A 
ATOM     29  C   UNL     1       5.234   4.200  14.962  0.00  0.00    +0.000 A 
ATOM     30  C   UNL     1       6.575   4.487  14.723  0.00  0.00    +0.000 A 
ATOM     31  F   UNL     1       7.050   4.418  13.473  0.00  0.00    +0.000 F 
ATOM     32  C   UNL     1       7.436   4.830  15.763  0.00  0.00    +0.000 A 
ATOM     33  C   UNL     1       6.958   4.859  17.073  0.00  0.00    +0.000 A 
ENDBRANCH  24  27
ENDBRANCH  22  24
ENDBRANCH   4  22
TORSDOF 6
ENDMDL
MODEL 6
REMARK VINA RESULT:      -8.6      2.772      3.648
REMARK  Name = 
REMARK  7 active torsions:
REMARK  status: ('A' for Active; 'I' for Inactive)
REMARK    1  A    between atoms: C_1  and  C_2
REMARK    2  A    between atoms: C_5  and  N_6
REMARK    3  A    between atoms: C_8  and  C_9
REMARK    4  A    between atoms: C_12  and  N_13
REMARK    5  A    between atoms: N_13  and  S_14
REMARK    6  A    between atoms: S_14  and  C_17
REMARK    7  A    between atoms: C_27  and  N_28
REMARK                            x       y       z     vdW  Elec       q    Type
REMARK                         _______ _______ _______ _____ _____    ______ ____
ROOT
ATOM      1  C   UNL     1       1.735   8.469  19.143  0.00  0.00    +0.000 A 
ATOM      2  C   UNL     1       2.353   8.063  17.949  0.00  0.00    +0.000 A 
ATOM      3  C   UNL     1       2.939   6.791  17.840  0.00  0.00    +0.000 A 
ATOM      4  C   UNL     1       2.898   5.915  18.921  0.00  0.00    +0.000 A 
ATOM      5  C   UNL     1       2.288   6.305  20.111  0.00  0.00    +0.000 A 
ATOM      6  C   UNL     1       1.713   7.574  20.222  0.00  0.00    +0.000 A 
ENDROOT
BRANCH   1   9
ATOM      7  N   UNL     1       0.301  11.553  20.207  0.00  0.00    +0.000 N 
ATOM      8  N   UNL     1       0.948  10.383  20.477  0.00  0.00    +0.000 NA
ATOM      9  C   UNL     1       1.145   9.805  19.282  0.00  0.00    +0.000 A 
ATOM     10  C   UNL     1       0.738  10.667  18.232  0.00  0.00    +0.000 A 
ATOM     11  C   UNL     1       0.231  11.792  18.832  0.00  0.00    +0.000 A 
BRANCH   7  16
ATOM     12  C   UNL     1      -1.670  14.804  24.494  0.00  0.00    +0.000 C 
ATOM     13  C   UNL     1      -1.160  13.943  23.377  0.00  0.00    +0.000 A 
ATOM     14  C   UNL     1      -1.667  12.655  23.164  0.00  0.00    +0.000 A 
ATOM     15  C   UNL     1      -1.203  11.874  22.101  0.00  0.00    +0.000 A 
ATOM     16  C   UNL     1      -0.195  12.366  21.263  0.00  0.00    +0.000 A 
ATOM     17  C   UNL     1       0.306  13.658  21.466  0.00  0.00    +0.000 A 
ATOM     18  C   UNL     1      -0.178  14.441  22.514  0.00  0.00    +0.000 A 
ENDBRANCH   7  16
BRANCH  11  19
ATOM     19  N   UNL     1      -0.202  12.941  18.248  0.00  0.00    +0.000 N 
ATOM     20  H   UNL     1       0.137  13.188  17.322  0.00  0.00    +0.000 HD
ATOM     21  H   UNL     1      -0.364  13.768  18.822  0.00  0.00    +0.000 HD
ENDBRANCH  11  19
ENDBRANCH   1   9
BRANCH   4  22
ATOM     22  N   UNL     1       3.429   4.603  18.826  0.00  0.00    +0.000 N 
ATOM     23  H   UNL     1       3.005   3.954  18.165  0.00  0.00    +0.000 HD
BRANCH  22  24
ATOM     24  S   UNL     1       5.081   4.350  19.038  0.00  0.00    +0.000 S 
ATOM     25  O   UNL     1       5.596   5.542  19.688  0.00  0.00    +0.000 OA
ATOM     26  O   UNL     1       5.290   3.038  19.607  0.00  0.00    +0.000 OA
BRANCH  24  27
ATOM     27  C   UNL     1       5.686   4.363  17.370  0.00  0.00    +0.000 A 
ATOM     28  C   UNL     1       7.011   4.750  17.124  0.00  0.00    +0.000 A 
ATOM     29  C   UNL     1       7.449   4.885  15.807  0.00  0.00    +0.000 A 
ATOM     30  C   UNL     1       6.572   4.614  14.760  0.00  0.00    +0.000 A 
ATOM     31  F   UNL     1       6.984   4.781  13.497  0.00  0.00    +0.000 F 
ATOM     32  C   UNL     1       5.268   4.187  15.003  0.00  0.00    +0.000 A 
ATOM     33  C   UNL     1       4.819   4.056  16.317  0.00  0.00    +0.000 A 
ENDBRANCH  24  27
ENDBRANCH  22  24
ENDBRANCH   4  22
TORSDOF 6
ENDMDL
MODEL 7
REMARK VINA RESULT:      -8.5      2.752      3.458
REMARK  Name = 
REMARK  7 active torsions:
REMARK  status: ('A' for Active; 'I' for Inactive)
REMARK    1  A    between atoms: C_1  and  C_2
REMARK    2  A    between atoms: C_5  and  N_6
REMARK    3  A    between atoms: C_8  and  C_9
REMARK    4  A    between atoms: C_12  and  N_13
REMARK    5  A    between atoms: N_13  and  S_14
REMARK    6  A    between atoms: S_14  and  C_17
REMARK    7  A    between atoms: C_27  and  N_28
REMARK                            x       y       z     vdW  Elec       q    Type
REMARK                         _______ _______ _______ _____ _____    ______ ____
ROOT
ATOM      1  C   UNL     1       1.682   8.375  19.271  0.00  0.00    +0.000 A 
ATOM      2  C   UNL     1       1.647   7.474  20.346  0.00  0.00    +0.000 A 
ATOM      3  C   UNL     1       2.194   6.186  20.223  0.00  0.00    +0.000 A 
ATOM      4  C   UNL     1       2.789   5.799  19.026  0.00  0.00    +0.000 A 
ATOM      5  C   UNL     1       2.831   6.684  17.950  0.00  0.00    +0.000 A 
ATOM      6  C   UNL     1       2.279   7.962  18.072  0.00  0.00    +0.000 A 
ENDROOT
BRANCH   1   9
ATOM      7  N   UNL     1       0.263  11.494  20.255  0.00  0.00    +0.000 N 
ATOM      8  N   UNL     1       0.923  10.337  20.552  0.00  0.00    +0.000 NA
ATOM      9  C   UNL     1       1.089   9.713  19.375  0.00  0.00    +0.000 A 
ATOM     10  C   UNL     1       0.649  10.533  18.305  0.00  0.00    +0.000 A 
ATOM     11  C   UNL     1       0.154  11.678  18.874  0.00  0.00    +0.000 A 
BRANCH   7  16
ATOM     12  C   UNL     1      -1.605  14.900  24.466  0.00  0.00    +0.000 C 
ATOM     13  C   UNL     1      -1.122  13.999  23.369  0.00  0.00    +0.000 A 
ATOM     14  C   UNL     1      -1.680  12.729  23.175  0.00  0.00    +0.000 A 
ATOM     15  C   UNL     1      -1.240  11.910  22.130  0.00  0.00    +0.000 A 
ATOM     16  C   UNL     1      -0.207  12.345  21.292  0.00  0.00    +0.000 A 
ATOM     17  C   UNL     1       0.345  13.619  21.476  0.00  0.00    +0.000 A 
ATOM     18  C   UNL     1      -0.114  14.441  22.505  0.00  0.00    +0.000 A 
ENDBRANCH   7  16
BRANCH  11  19
ATOM     19  N   UNL     1      -0.301  12.802  18.259  0.00  0.00    +0.000 N 
ATOM     20  H   UNL     1       0.274  13.640  18.265  0.00  0.00    +0.000 HD
ATOM     21  H   UNL     1      -1.294  13.028  18.290  0.00  0.00    +0.000 HD
ENDBRANCH  11  19
ENDBRANCH   1   9
BRANCH   4  22
ATOM     22  N   UNL     1       3.401   4.527  18.885  0.00  0.00    +0.000 N 
ATOM     23  H   UNL     1       3.002   3.867  18.220  0.00  0.00    +0.000 HD
BRANCH  22  24
ATOM     24  S   UNL     1       5.071   4.378  19.047  0.00  0.00    +0.000 S 
ATOM     25  O   UNL     1       5.523   5.575  19.732  0.00  0.00    +0.000 OA
ATOM     26  O   UNL     1       5.381   3.061  19.557  0.00  0.00    +0.000 OA
BRANCH  24  27
ATOM     27  C   UNL     1       5.630   4.497  17.366  0.00  0.00    +0.000 A 
ATOM     28  C   UNL     1       4.760   4.139  16.327  0.00  0.00    +0.000 A 
ATOM     29  C   UNL     1       5.237   4.108  15.017  0.00  0.00    +0.000 A 
ATOM     30  C   UNL     1       6.561   4.453  14.761  0.00  0.00    +0.000 A 
ATOM     31  F   UNL     1       7.027   4.386  13.507  0.00  0.00    +0.000 F 
ATOM     32  C   UNL     1       7.415   4.852  15.787  0.00  0.00    +0.000 A 
ATOM     33  C   UNL     1       6.949   4.878  17.101  0.00  0.00    +0.000 A 
ENDBRANCH  24  27
ENDBRANCH  22  24
ENDBRANCH   4  22
TORSDOF 6
ENDMDL
MODEL 8
REMARK VINA RESULT:      -8.4      2.834      3.762
REMARK  Name = 
REMARK  7 active torsions:
REMARK  status: ('A' for Active; 'I' for Inactive)
REMARK    1  A    between atoms: C_1  and  C_2
REMARK    2  A    between atoms: C_5  and  N_6
REMARK    3  A    between atoms: C_8  and  C_9
REMARK    4  A    between atoms: C_12  and  N_13
REMARK    5  A    between atoms: N_13  and  S_14
REMARK    6  A    between atoms: S_14  and  C_17
REMARK    7  A    between atoms: C_27  and  N_28
REMARK                            x       y       z     vdW  Elec       q    Type
REMARK                         _______ _______ _______ _____ _____    ______ ____
ROOT
ATOM      1  C   UNL     1       1.564   8.164  19.965  0.00  0.00    +0.000 A 
ATOM      2  C   UNL     1       1.506   7.019  20.775  0.00  0.00    +0.000 A 
ATOM      3  C   UNL     1       2.053   5.802  20.338  0.00  0.00    +0.000 A 
ATOM      4  C   UNL     1       2.672   5.728  19.093  0.00  0.00    +0.000 A 
ATOM      5  C   UNL     1       2.736   6.857  18.279  0.00  0.00    +0.000 A 
ATOM      6  C   UNL     1       2.184   8.066  18.711  0.00  0.00    +0.000 A 
ENDROOT
BRANCH   1   9
ATOM      7  N   UNL     1       0.516  11.537  20.447  0.00  0.00    +0.000 N 
ATOM      8  N   UNL     1       1.110  10.569  19.691  0.00  0.00    +0.000 NA
ATOM      9  C   UNL     1       0.971   9.435  20.395  0.00  0.00    +0.000 A 
ATOM     10  C   UNL     1       0.172   9.653  21.547  0.00  0.00    +0.000 A 
ATOM     11  C   UNL     1      -0.139  10.989  21.553  0.00  0.00    +0.000 A 
BRANCH   7  16
ATOM     12  C   UNL     1       0.816  17.059  18.948  0.00  0.00    +0.000 C 
ATOM     13  C   UNL     1       0.726  15.613  19.335  0.00  0.00    +0.000 A 
ATOM     14  C   UNL     1      -0.243  14.771  18.775  0.00  0.00    +0.000 A 
ATOM     15  C   UNL     1      -0.297  13.417  19.123  0.00  0.00    +0.000 A 
ATOM     16  C   UNL     1       0.599  12.905  20.067  0.00  0.00    +0.000 A 
ATOM     17  C   UNL     1       1.578  13.741  20.621  0.00  0.00    +0.000 A 
ATOM     18  C   UNL     1       1.642  15.084  20.252  0.00  0.00    +0.000 A 
ENDBRANCH   7  16
BRANCH  11  19
ATOM     19  N   UNL     1      -0.958  11.665  22.403  0.00  0.00    +0.000 N 
ATOM     20  H   UNL     1      -1.242  12.613  22.173  0.00  0.00    +0.000 HD
ATOM     21  H   UNL     1      -0.856  11.537  23.409  0.00  0.00    +0.000 HD
ENDBRANCH  11  19
ENDBRANCH   1   9
BRANCH   4  22
ATOM     22  N   UNL     1       3.285   4.530  18.644  0.00  0.00    +0.000 N 
ATOM     23  H   UNL     1       2.972   4.125  17.764  0.00  0.00    +0.000 HD
BRANCH  22  24
ATOM     24  S   UNL     1       4.915   4.253  18.961  0.00  0.00    +0.000 S 
ATOM     25  O   UNL     1       5.390   5.411  19.697  0.00  0.00    +0.000 OA
ATOM     26  O   UNL     1       5.076   2.916  19.484  0.00  0.00    +0.000 OA
BRANCH  24  27
ATOM     27  C   UNL     1       5.637   4.334  17.341  0.00  0.00    +0.000 A 
ATOM     28  C   UNL     1       6.997   4.645  17.211  0.00  0.00    +0.000 A 
ATOM     29  C   UNL     1       7.535   4.836  15.938  0.00  0.00    +0.000 A 
ATOM     30  C   UNL     1       6.719   4.694  14.819  0.00  0.00    +0.000 A 
ATOM     31  F   UNL     1       7.228   4.914  13.601  0.00  0.00    +0.000 F 
ATOM     32  C   UNL     1       5.377   4.341  14.945  0.00  0.00    +0.000 A 
ATOM     33  C   UNL     1       4.829   4.155  16.214  0.00  0.00    +0.000 A 
ENDBRANCH  24  27
ENDBRANCH  22  24
ENDBRANCH   4  22
TORSDOF 6
ENDMDL
MODEL 9
REMARK VINA RESULT:      -8.4      2.104      2.696
REMARK  Name = 
REMARK  7 active torsions:
REMARK  status: ('A' for Active; 'I' for Inactive)
REMARK    1  A    between atoms: C_1  and  C_2
REMARK    2  A    between atoms: C_5  and  N_6
REMARK    3  A    between atoms: C_8  and  C_9
REMARK    4  A    between atoms: C_12  and  N_13
REMARK    5  A    between atoms: N_13  and  S_14
REMARK    6  A    between atoms: S_14  and  C_17
REMARK    7  A    between atoms: C_27  and  N_28
REMARK                            x       y       z     vdW  Elec       q    Type
REMARK                         _______ _______ _______ _____ _____    ______ ____
ROOT
ATOM      1  C   UNL     1       1.607   8.403  19.450  0.00  0.00    +0.000 A 
ATOM      2  C   UNL     1       1.550   7.419  20.449  0.00  0.00    +0.000 A 
ATOM      3  C   UNL     1       2.087   6.140  20.228  0.00  0.00    +0.000 A 
ATOM      4  C   UNL     1       2.696   5.845  19.012  0.00  0.00    +0.000 A 
ATOM      5  C   UNL     1       2.760   6.813  18.012  0.00  0.00    +0.000 A 
ATOM      6  C   UNL     1       2.217   8.082  18.229  0.00  0.00    +0.000 A 
ENDROOT
BRANCH   1   9
ATOM      7  N   UNL     1      -0.288  11.274  20.384  0.00  0.00    +0.000 N 
ATOM      8  N   UNL     1       0.057   9.966  20.556  0.00  0.00    +0.000 NA
ATOM      9  C   UNL     1       1.024   9.734  19.654  0.00  0.00    +0.000 A 
ATOM     10  C   UNL     1       1.390  10.932  18.989  0.00  0.00    +0.000 A 
ATOM     11  C   UNL     1       0.570  11.914  19.485  0.00  0.00    +0.000 A 
BRANCH   7  16
ATOM     12  C   UNL     1      -4.714  13.550  23.222  0.00  0.00    +0.000 C 
ATOM     13  C   UNL     1      -3.549  12.953  22.490  0.00  0.00    +0.000 A 
ATOM     14  C   UNL     1      -2.518  12.300  23.177  0.00  0.00    +0.000 A 
ATOM     15  C   UNL     1      -1.452  11.723  22.479  0.00  0.00    +0.000 A 
ATOM     16  C   UNL     1      -1.393  11.829  21.086  0.00  0.00    +0.000 A 
ATOM     17  C   UNL     1      -2.428  12.472  20.394  0.00  0.00    +0.000 A 
ATOM     18  C   UNL     1      -3.501  13.025  21.094  0.00  0.00    +0.000 A 
ENDBRANCH   7  16
BRANCH  11  19
ATOM     19  N   UNL     1       0.594  13.249  19.227  0.00  0.00    +0.000 N 
ATOM     20  H   UNL     1       1.445  13.670  18.864  0.00  0.00    +0.000 HD
ATOM     21  H   UNL     1       0.088  13.890  19.836  0.00  0.00    +0.000 HD
ENDBRANCH  11  19
ENDBRANCH   1   9
BRANCH   4  22
ATOM     22  N   UNL     1       3.300   4.583  18.777  0.00  0.00    +0.000 N 
ATOM     23  H   UNL     1       2.921   3.994  18.037  0.00  0.00    +0.000 HD
BRANCH  22  24
ATOM     24  S   UNL     1       4.959   4.394  18.992  0.00  0.00    +0.000 S 
ATOM     25  O   UNL     1       5.400   5.528  19.784  0.00  0.00    +0.000 OA
ATOM     26  O   UNL     1       5.232   3.038  19.411  0.00  0.00    +0.000 OA
BRANCH  24  27
ATOM     27  C   UNL     1       5.587   4.632  17.348  0.00  0.00    +0.000 A 
ATOM     28  C   UNL     1       4.886   4.090  16.262  0.00  0.00    +0.000 A 
ATOM     29  C   UNL     1       5.443   4.164  14.986  0.00  0.00    +0.000 A 
ATOM     30  C   UNL     1       6.673   4.791  14.808  0.00  0.00    +0.000 A 
ATOM     31  F   UNL     1       7.223   4.828  13.588  0.00  0.00    +0.000 F 
ATOM     32  C   UNL     1       7.350   5.369  15.880  0.00  0.00    +0.000 A 
ATOM     33  C   UNL     1       6.804   5.294  17.161  0.00  0.00    +0.000 A 
ENDBRANCH  24  27
ENDBRANCH  22  24
ENDBRANCH   4  22
TORSDOF 6
ENDMDL
