MODEL 1
REMARK VINA RESULT:      -7.8      0.000      0.000
REMARK  Name = 
REMARK  7 active torsions:
REMARK  status: ('A' for Active; 'I' for Inactive)
REMARK    1  A    between atoms: C_1  and  C_2
REMARK    2  A    between atoms: C_2  and  O_3
REMARK    3  A    between atoms: O_3  and  C_4
REMARK    4  A    between atoms: C_4  and  O_5
REMARK    5  A    between atoms: C_7  and  C_8
REMARK    6  A    between atoms: N_18  and  S_19
REMARK    7  A    between atoms: S_19  and  C_22
REMARK                            x       y       z     vdW  Elec       q    Type
REMARK                         _______ _______ _______ _____ _____    ______ ____
ROOT
ATOM      1  C   UNL     1      -0.260  13.515  19.186  0.00  0.00    +0.000 C 
ATOM      2  C   UNL     1      -1.040  12.504  19.588  0.00  0.00    +0.000 C 
ATOM      3  C   UNL     1      -2.462  12.707  19.944  0.00  0.00    +0.000 C 
ATOM      4  C   UNL     1      -2.765  13.532  21.172  0.00  0.00    +0.000 C 
ATOM      5  N   UNL     1      -3.461  12.160  19.323  0.00  0.00    +0.000 NA
ATOM      6  C   UNL     1      -3.251  11.377  18.162  0.00  0.00    +0.000 A 
ATOM      7  C   UNL     1      -4.203  11.545  17.144  0.00  0.00    +0.000 A 
ATOM      8  C   UNL     1      -4.119  10.840  15.942  0.00  0.00    +0.000 A 
ATOM      9  C   UNL     1      -3.082   9.938  15.742  0.00  0.00    +0.000 A 
ATOM     10  C   UNL     1      -2.137   9.743  16.747  0.00  0.00    +0.000 A 
ATOM     11  C   UNL     1      -2.198  10.450  17.960  0.00  0.00    +0.000 A 
ATOM     12  N   UNL     1      -1.174  10.149  18.880  0.00  0.00    +0.000 NA
ATOM     13  C   UNL     1      -0.621  11.090  19.560  0.00  0.00    +0.000 C 
ATOM     14  N   UNL     1       0.442  10.791  20.430  0.00  0.00    +0.000 N 
ATOM     15  H   UNL     1       1.074  11.513  20.758  0.00  0.00    +0.000 HD
ENDROOT
BRANCH  14  16
ATOM     16  S   UNL     1       0.660   9.325  21.195  0.00  0.00    +0.000 S 
ATOM     17  O   UNL     1       1.588   9.578  22.278  0.00  0.00    +0.000 OA
ATOM     18  O   UNL     1      -0.637   8.742  21.455  0.00  0.00    +0.000 OA
BRANCH  16  19
ATOM     19  C   UNL     1       1.518   8.366  19.978  0.00  0.00    +0.000 A 
ATOM     20  C   UNL     1       1.922   7.069  20.309  0.00  0.00    +0.000 A 
ATOM     21  C   UNL     1       2.737   6.362  19.426  0.00  0.00    +0.000 A 
ATOM     22  C   UNL     1       3.126   6.949  18.220  0.00  0.00    +0.000 A 
ATOM     23 CL   UNL     1       4.208   6.110  17.179  0.00  0.00    +0.000 Cl
ATOM     24  C   UNL     1       2.671   8.220  17.866  0.00  0.00    +0.000 A 
ATOM     25  C   UNL     1       1.854   8.934  18.744  0.00  0.00    +0.000 A 
ENDBRANCH  16  19
ENDBRANCH  14  16
BRANCH   1  26
ATOM     26  O   UNL     1      -0.746  14.809  19.197  0.00  0.00    +0.000 OA
ATOM     27  H   UNL     1      -1.115  15.011  18.324  0.00  0.00    +0.000 HD
ENDBRANCH   1  26
BRANCH   1  28
ATOM     28  O   UNL     1       1.004  13.238  18.707  0.00  0.00    +0.000 OA
BRANCH  28  30
ATOM     29  C   UNL     1       3.158  14.085  18.229  0.00  0.00    +0.000 C 
ATOM     30  C   UNL     1       2.110  13.902  19.309  0.00  0.00    +0.000 C 
ENDBRANCH  28  30
ENDBRANCH   1  28
TORSDOF 5
ENDMDL
MODEL 2
REMARK VINA RESULT:      -7.8      1.964      4.241
REMARK  Name = 
REMARK  7 active torsions:
REMARK  status: ('A' for Active; 'I' for Inactive)
REMARK    1  A    between atoms: C_1  and  C_2
REMARK    2  A    between atoms: C_2  and  O_3
REMARK    3  A    between atoms: O_3  and  C_4
REMARK    4  A    between atoms: C_4  and  O_5
REMARK    5  A    between atoms: C_7  and  C_8
REMARK    6  A    between atoms: N_18  and  S_19
REMARK    7  A    between atoms: S_19  and  C_22
REMARK                            x       y       z     vdW  Elec       q    Type
REMARK                         _______ _______ _______ _____ _____    ______ ____
ROOT
ATOM      1  C   UNL     1      -1.254  12.999  19.457  0.00  0.00    +0.000 C 
ATOM      2  C   UNL     1      -0.686  12.749  20.643  0.00  0.00    +0.000 C 
ATOM      3  C   UNL     1       0.016  13.803  21.411  0.00  0.00    +0.000 C 
ATOM      4  C   UNL     1       1.292  14.361  20.828  0.00  0.00    +0.000 C 
ATOM      5  N   UNL     1      -0.346  14.221  22.585  0.00  0.00    +0.000 NA
ATOM      6  C   UNL     1      -1.533  13.744  23.190  0.00  0.00    +0.000 A 
ATOM      7  C   UNL     1      -2.280  14.705  23.888  0.00  0.00    +0.000 A 
ATOM      8  C   UNL     1      -3.475  14.377  24.531  0.00  0.00    +0.000 A 
ATOM      9  C   UNL     1      -3.939  13.069  24.497  0.00  0.00    +0.000 A 
ATOM     10  C   UNL     1      -3.203  12.094  23.826  0.00  0.00    +0.000 A 
ATOM     11  C   UNL     1      -2.003  12.407  23.164  0.00  0.00    +0.000 A 
ATOM     12  N   UNL     1      -1.372  11.320  22.527  0.00  0.00    +0.000 NA
ATOM     13  C   UNL     1      -0.837  11.474  21.368  0.00  0.00    +0.000 C 
ATOM     14  N   UNL     1      -0.263  10.372  20.712  0.00  0.00    +0.000 N 
ATOM     15  H   UNL     1      -0.092  10.383  19.712  0.00  0.00    +0.000 HD
ENDROOT
BRANCH  14  16
ATOM     16  S   UNL     1       0.403   9.049  21.480  0.00  0.00    +0.000 S 
ATOM     17  O   UNL     1       1.360   9.582  22.427  0.00  0.00    +0.000 OA
ATOM     18  O   UNL     1      -0.668   8.183  21.919  0.00  0.00    +0.000 OA
BRANCH  16  19
ATOM     19  C   UNL     1       1.322   8.261  20.187  0.00  0.00    +0.000 A 
ATOM     20  C   UNL     1       1.892   7.010  20.437  0.00  0.00    +0.000 A 
ATOM     21  C   UNL     1       2.752   6.450  19.493  0.00  0.00    +0.000 A 
ATOM     22  C   UNL     1       3.019   7.137  18.307  0.00  0.00    +0.000 A 
ATOM     23 CL   UNL     1       4.154   6.487  17.188  0.00  0.00    +0.000 Cl
ATOM     24  C   UNL     1       2.401   8.358  18.033  0.00  0.00    +0.000 A 
ATOM     25  C   UNL     1       1.539   8.924  18.974  0.00  0.00    +0.000 A 
ENDBRANCH  16  19
ENDBRANCH  14  16
BRANCH   1  26
ATOM     26  O   UNL     1      -1.105  14.240  18.866  0.00  0.00    +0.000 OA
ATOM     27  H   UNL     1      -1.191  14.922  19.547  0.00  0.00    +0.000 HD
ENDBRANCH   1  26
BRANCH   1  28
ATOM     28  O   UNL     1      -2.037  12.026  18.870  0.00  0.00    +0.000 OA
BRANCH  28  30
ATOM     29  C   UNL     1      -1.759  10.185  17.414  0.00  0.00    +0.000 C 
ATOM     30  C   UNL     1      -1.789  11.697  17.507  0.00  0.00    +0.000 C 
ENDBRANCH  28  30
ENDBRANCH   1  28
TORSDOF 5
ENDMDL
MODEL 3
REMARK VINA RESULT:      -7.6      1.635      4.117
REMARK  Name = 
REMARK  7 active torsions:
REMARK  status: ('A' for Active; 'I' for Inactive)
REMARK    1  A    between atoms: C_1  and  C_2
REMARK    2  A    between atoms: C_2  and  O_3
REMARK    3  A    between atoms: O_3  and  C_4
REMARK    4  A    between atoms: C_4  and  O_5
REMARK    5  A    between atoms: C_7  and  C_8
REMARK    6  A    between atoms: N_18  and  S_19
REMARK    7  A    between atoms: S_19  and  C_22
REMARK                            x       y       z     vdW  Elec       q    Type
REMARK                         _______ _______ _______ _____ _____    ______ ____
ROOT
ATOM      1  C   UNL     1      -1.233  11.941  18.353  0.00  0.00    +0.000 C 
ATOM      2  C   UNL     1      -0.592  12.064  19.522  0.00  0.00    +0.000 C 
ATOM      3  C   UNL     1       0.163  13.288  19.874  0.00  0.00    +0.000 C 
ATOM      4  C   UNL     1       1.403  13.601  19.071  0.00  0.00    +0.000 C 
ATOM      5  N   UNL     1      -0.120  14.064  20.875  0.00  0.00    +0.000 NA
ATOM      6  C   UNL     1      -1.269  13.833  21.668  0.00  0.00    +0.000 A 
ATOM      7  C   UNL     1      -1.965  14.985  22.068  0.00  0.00    +0.000 A 
ATOM      8  C   UNL     1      -3.119  14.907  22.850  0.00  0.00    +0.000 A 
ATOM      9  C   UNL     1      -3.592  13.667  23.260  0.00  0.00    +0.000 A 
ATOM     10  C   UNL     1      -2.906  12.512  22.889  0.00  0.00    +0.000 A 
ATOM     11  C   UNL     1      -1.749  12.569  22.094  0.00  0.00    +0.000 A 
ATOM     12  N   UNL     1      -1.166  11.321  21.798  0.00  0.00    +0.000 NA
ATOM     13  C   UNL     1      -0.705  11.087  20.620  0.00  0.00    +0.000 C 
ATOM     14  N   UNL     1      -0.180   9.820  20.314  0.00  0.00    +0.000 N 
ATOM     15  H   UNL     1      -0.073   9.511  19.355  0.00  0.00    +0.000 HD
ENDROOT
BRANCH  14  16
ATOM     16  S   UNL     1       0.525   8.790  21.421  0.00  0.00    +0.000 S 
ATOM     17  O   UNL     1       1.439   9.606  22.194  0.00  0.00    +0.000 OA
ATOM     18  O   UNL     1      -0.517   8.028  22.072  0.00  0.00    +0.000 OA
BRANCH  16  19
ATOM     19  C   UNL     1       1.504   7.723  20.402  0.00  0.00    +0.000 A 
ATOM     20  C   UNL     1       1.994   8.217  19.190  0.00  0.00    +0.000 A 
ATOM     21  C   UNL     1       2.625   7.346  18.303  0.00  0.00    +0.000 A 
ATOM     22  C   UNL     1       2.774   5.999  18.643  0.00  0.00    +0.000 A 
ATOM     23 CL   UNL     1       3.468   4.910  17.505  0.00  0.00    +0.000 Cl
ATOM     24  C   UNL     1       2.338   5.522  19.880  0.00  0.00    +0.000 A 
ATOM     25  C   UNL     1       1.706   6.388  20.773  0.00  0.00    +0.000 A 
ENDBRANCH  16  19
ENDBRANCH  14  16
BRANCH   1  26
ATOM     26  O   UNL     1      -1.114  12.928  17.392  0.00  0.00    +0.000 OA
ATOM     27  H   UNL     1      -1.528  13.739  17.724  0.00  0.00    +0.000 HD
ENDBRANCH   1  26
BRANCH   1  28
ATOM     28  O   UNL     1      -2.057  10.854  18.151  0.00  0.00    +0.000 OA
BRANCH  28  30
ATOM     29  C   UNL     1      -2.724  10.180  15.985  0.00  0.00    +0.000 C 
ATOM     30  C   UNL     1      -1.727   9.948  17.104  0.00  0.00    +0.000 C 
ENDBRANCH  28  30
ENDBRANCH   1  28
TORSDOF 5
ENDMDL
MODEL 4
REMARK VINA RESULT:      -7.6      0.436      1.016
REMARK  Name = 
REMARK  7 active torsions:
REMARK  status: ('A' for Active; 'I' for Inactive)
REMARK    1  A    between atoms: C_1  and  C_2
REMARK    2  A    between atoms: C_2  and  O_3
REMARK    3  A    between atoms: O_3  and  C_4
REMARK    4  A    between atoms: C_4  and  O_5
REMARK    5  A    between atoms: C_7  and  C_8
REMARK    6  A    between atoms: N_18  and  S_19
REMARK    7  A    between atoms: S_19  and  C_22
REMARK                            x       y       z     vdW  Elec       q    Type
REMARK                         _______ _______ _______ _____ _____    ______ ____
ROOT
ATOM      1  C   UNL     1       0.087  13.308  19.313  0.00  0.00    +0.000 C 
ATOM      2  C   UNL     1      -0.784  12.384  19.733  0.00  0.00    +0.000 C 
ATOM      3  C   UNL     1      -2.189  12.723  20.057  0.00  0.00    +0.000 C 
ATOM      4  C   UNL     1      -2.436  13.613  21.252  0.00  0.00    +0.000 C 
ATOM      5  N   UNL     1      -3.223  12.245  19.436  0.00  0.00    +0.000 NA
ATOM      6  C   UNL     1      -3.066  11.408  18.306  0.00  0.00    +0.000 A 
ATOM      7  C   UNL     1      -3.983  11.624  17.266  0.00  0.00    +0.000 A 
ATOM      8  C   UNL     1      -3.944  10.874  16.089  0.00  0.00    +0.000 A 
ATOM      9  C   UNL     1      -2.988   9.878  15.937  0.00  0.00    +0.000 A 
ATOM     10  C   UNL     1      -2.079   9.635  16.965  0.00  0.00    +0.000 A 
ATOM     11  C   UNL     1      -2.096  10.385  18.153  0.00  0.00    +0.000 A 
ATOM     12  N   UNL     1      -1.116  10.027  19.100  0.00  0.00    +0.000 NA
ATOM     13  C   UNL     1      -0.492  10.938  19.759  0.00  0.00    +0.000 C 
ATOM     14  N   UNL     1       0.527  10.577  20.656  0.00  0.00    +0.000 N 
ATOM     15  H   UNL     1       1.215  11.252  20.973  0.00  0.00    +0.000 HD
ENDROOT
BRANCH  14  16
ATOM     16  S   UNL     1       0.604   9.124  21.473  0.00  0.00    +0.000 S 
ATOM     17  O   UNL     1       1.409   9.374  22.650  0.00  0.00    +0.000 OA
ATOM     18  O   UNL     1      -0.734   8.590  21.592  0.00  0.00    +0.000 OA
BRANCH  16  19
ATOM     19  C   UNL     1       1.562   8.108  20.384  0.00  0.00    +0.000 A 
ATOM     20  C   UNL     1       1.967   8.637  19.156  0.00  0.00    +0.000 A 
ATOM     21  C   UNL     1       2.578   7.802  18.221  0.00  0.00    +0.000 A 
ATOM     22  C   UNL     1       2.793   6.457  18.529  0.00  0.00    +0.000 A 
ATOM     23 CL   UNL     1       3.460   5.410  17.338  0.00  0.00    +0.000 Cl
ATOM     24  C   UNL     1       2.443   5.946  19.780  0.00  0.00    +0.000 A 
ATOM     25  C   UNL     1       1.831   6.776  20.720  0.00  0.00    +0.000 A 
ENDBRANCH  16  19
ENDBRANCH  14  16
BRANCH   1  26
ATOM     26  O   UNL     1      -0.282  14.640  19.273  0.00  0.00    +0.000 OA
ATOM     27  H   UNL     1      -1.249  14.695  19.268  0.00  0.00    +0.000 HD
ENDBRANCH   1  26
BRANCH   1  28
ATOM     28  O   UNL     1       1.329  12.906  18.865  0.00  0.00    +0.000 OA
BRANCH  28  30
ATOM     29  C   UNL     1       3.113  14.315  18.220  0.00  0.00    +0.000 C 
ATOM     30  C   UNL     1       2.476  13.574  19.379  0.00  0.00    +0.000 C 
ENDBRANCH  28  30
ENDBRANCH   1  28
TORSDOF 5
ENDMDL
MODEL 5
REMARK VINA RESULT:      -7.3      1.893      4.449
REMARK  Name = 
REMARK  7 active torsions:
REMARK  status: ('A' for Active; 'I' for Inactive)
REMARK    1  A    between atoms: C_1  and  C_2
REMARK    2  A    between atoms: C_2  and  O_3
REMARK    3  A    between atoms: O_3  and  C_4
REMARK    4  A    between atoms: C_4  and  O_5
REMARK    5  A    between atoms: C_7  and  C_8
REMARK    6  A    between atoms: N_18  and  S_19
REMARK    7  A    between atoms: S_19  and  C_22
REMARK                            x       y       z     vdW  Elec       q    Type
REMARK                         _______ _______ _______ _____ _____    ______ ____
ROOT
ATOM      1  C   UNL     1      -0.977  12.228  18.544  0.00  0.00    +0.000 C 
ATOM      2  C   UNL     1      -0.056  12.192  19.514  0.00  0.00    +0.000 C 
ATOM      3  C   UNL     1       1.061  13.163  19.569  0.00  0.00    +0.000 C 
ATOM      4  C   UNL     1       2.099  13.099  18.474  0.00  0.00    +0.000 C 
ATOM      5  N   UNL     1       1.253  14.009  20.533  0.00  0.00    +0.000 NA
ATOM      6  C   UNL     1       0.319  14.127  21.590  0.00  0.00    +0.000 A 
ATOM      7  C   UNL     1       0.077  15.436  22.036  0.00  0.00    +0.000 A 
ATOM      8  C   UNL     1      -0.823  15.701  23.069  0.00  0.00    +0.000 A 
ATOM      9  C   UNL     1      -1.492  14.653  23.689  0.00  0.00    +0.000 A 
ATOM     10  C   UNL     1      -1.252  13.344  23.274  0.00  0.00    +0.000 A 
ATOM     11  C   UNL     1      -0.358  13.057  22.229  0.00  0.00    +0.000 A 
ATOM     12  N   UNL     1      -0.220  11.690  21.919  0.00  0.00    +0.000 NA
ATOM     13  C   UNL     1      -0.147  11.310  20.693  0.00  0.00    +0.000 C 
ATOM     14  N   UNL     1      -0.071   9.941  20.388  0.00  0.00    +0.000 N 
ATOM     15  H   UNL     1      -0.293   9.593  19.462  0.00  0.00    +0.000 HD
ENDROOT
BRANCH  14  16
ATOM     16  S   UNL     1       0.588   8.779  21.389  0.00  0.00    +0.000 S 
ATOM     17  O   UNL     1       1.568   9.468  22.202  0.00  0.00    +0.000 OA
ATOM     18  O   UNL     1      -0.488   8.033  22.001  0.00  0.00    +0.000 OA
BRANCH  16  19
ATOM     19  C   UNL     1       1.474   7.740  20.260  0.00  0.00    +0.000 A 
ATOM     20  C   UNL     1       1.756   6.425  20.641  0.00  0.00    +0.000 A 
ATOM     21  C   UNL     1       2.590   5.647  19.839  0.00  0.00    +0.000 A 
ATOM     22  C   UNL     1       3.117   6.183  18.662  0.00  0.00    +0.000 A 
ATOM     23 CL   UNL     1       4.221   5.252  17.727  0.00  0.00    +0.000 Cl
ATOM     24  C   UNL     1       2.785   7.476  18.255  0.00  0.00    +0.000 A 
ATOM     25  C   UNL     1       1.950   8.260  19.052  0.00  0.00    +0.000 A 
ENDBRANCH  16  19
ENDBRANCH  14  16
BRANCH   1  26
ATOM     26  O   UNL     1      -0.843  13.121  17.496  0.00  0.00    +0.000 OA
ATOM     27  H   UNL     1      -0.093  13.705  17.677  0.00  0.00    +0.000 HD
ENDBRANCH   1  26
BRANCH   1  28
ATOM     28  O   UNL     1      -2.084  11.410  18.638  0.00  0.00    +0.000 OA
BRANCH  28  30
ATOM     29  C   UNL     1      -3.624  10.824  16.943  0.00  0.00    +0.000 C 
ATOM     30  C   UNL     1      -2.307  10.461  17.601  0.00  0.00    +0.000 C 
ENDBRANCH  28  30
ENDBRANCH   1  28
TORSDOF 5
ENDMDL
MODEL 6
REMARK VINA RESULT:      -6.9      3.084      5.725
REMARK  Name = 
REMARK  7 active torsions:
REMARK  status: ('A' for Active; 'I' for Inactive)
REMARK    1  A    between atoms: C_1  and  C_2
REMARK    2  A    between atoms: C_2  and  O_3
REMARK    3  A    between atoms: O_3  and  C_4
REMARK    4  A    between atoms: C_4  and  O_5
REMARK    5  A    between atoms: C_7  and  C_8
REMARK    6  A    between atoms: N_18  and  S_19
REMARK    7  A    between atoms: S_19  and  C_22
REMARK                            x       y       z     vdW  Elec       q    Type
REMARK                         _______ _______ _______ _____ _____    ______ ____
ROOT
ATOM      1  C   UNL     1       0.876   9.791  20.931  0.00  0.00    +0.000 C 
ATOM      2  C   UNL     1       0.787  10.445  19.767  0.00  0.00    +0.000 C 
ATOM      3  C   UNL     1       0.768   9.734  18.469  0.00  0.00    +0.000 C 
ATOM      4  C   UNL     1       2.023   9.004  18.053  0.00  0.00    +0.000 C 
ATOM      5  N   UNL     1      -0.221   9.762  17.629  0.00  0.00    +0.000 NA
ATOM      6  C   UNL     1      -1.428  10.424  17.955  0.00  0.00    +0.000 A 
ATOM      7  C   UNL     1      -2.601   9.774  17.538  0.00  0.00    +0.000 A 
ATOM      8  C   UNL     1      -3.864  10.311  17.794  0.00  0.00    +0.000 A 
ATOM      9  C   UNL     1      -3.976  11.522  18.465  0.00  0.00    +0.000 A 
ATOM     10  C   UNL     1      -2.824  12.193  18.871  0.00  0.00    +0.000 A 
ATOM     11  C   UNL     1      -1.544  11.664  18.631  0.00  0.00    +0.000 A 
ATOM     12  N   UNL     1      -0.475  12.453  19.101  0.00  0.00    +0.000 NA
ATOM     13  C   UNL     1       0.539  11.896  19.664  0.00  0.00    +0.000 C 
ATOM     14  N   UNL     1       1.573  12.691  20.185  0.00  0.00    +0.000 N 
ATOM     15  H   UNL     1       2.229  12.325  20.866  0.00  0.00    +0.000 HD
ENDROOT
BRANCH  14  16
ATOM     16  S   UNL     1       1.993  14.200  19.611  0.00  0.00    +0.000 S 
ATOM     17  O   UNL     1       2.219  14.034  18.190  0.00  0.00    +0.000 OA
ATOM     18  O   UNL     1       1.033  15.164  20.099  0.00  0.00    +0.000 OA
BRANCH  16  19
ATOM     19  C   UNL     1       3.570  14.487  20.366  0.00  0.00    +0.000 A 
ATOM     20  C   UNL     1       4.585  15.065  19.598  0.00  0.00    +0.000 A 
ATOM     21  C   UNL     1       5.874  15.148  20.123  0.00  0.00    +0.000 A 
ATOM     22  C   UNL     1       6.130  14.670  21.410  0.00  0.00    +0.000 A 
ATOM     23 CL   UNL     1       7.741  14.687  22.016  0.00  0.00    +0.000 Cl
ATOM     24  C   UNL     1       5.101  14.149  22.196  0.00  0.00    +0.000 A 
ATOM     25  C   UNL     1       3.809  14.064  21.678  0.00  0.00    +0.000 A 
ENDBRANCH  16  19
ENDBRANCH  14  16
BRANCH   1  26
ATOM     26  O   UNL     1       1.060   8.420  20.941  0.00  0.00    +0.000 OA
ATOM     27  H   UNL     1       0.213   7.990  20.756  0.00  0.00    +0.000 HD
ENDBRANCH   1  26
BRANCH   1  28
ATOM     28  O   UNL     1       0.718  10.491  22.109  0.00  0.00    +0.000 OA
BRANCH  28  30
ATOM     29  C   UNL     1      -1.337  11.376  22.873  0.00  0.00    +0.000 C 
ATOM     30  C   UNL     1      -0.404  10.182  22.928  0.00  0.00    +0.000 C 
ENDBRANCH  28  30
ENDBRANCH   1  28
TORSDOF 5
ENDMDL
MODEL 7
REMARK VINA RESULT:      -6.9      3.510      6.290
REMARK  Name = 
REMARK  7 active torsions:
REMARK  status: ('A' for Active; 'I' for Inactive)
REMARK    1  A    between atoms: C_1  and  C_2
REMARK    2  A    between atoms: C_2  and  O_3
REMARK    3  A    between atoms: O_3  and  C_4
REMARK    4  A    between atoms: C_4  and  O_5
REMARK    5  A    between atoms: C_7  and  C_8
REMARK    6  A    between atoms: N_18  and  S_19
REMARK    7  A    between atoms: S_19  and  C_22
REMARK                            x       y       z     vdW  Elec       q    Type
REMARK                         _______ _______ _______ _____ _____    ______ ____
ROOT
ATOM      1  C   UNL     1       0.883   9.503  21.070  0.00  0.00    +0.000 C 
ATOM      2  C   UNL     1       0.862  10.239  19.952  0.00  0.00    +0.000 C 
ATOM      3  C   UNL     1       0.867   9.620  18.607  0.00  0.00    +0.000 C 
ATOM      4  C   UNL     1       2.109   8.872  18.186  0.00  0.00    +0.000 C 
ATOM      5  N   UNL     1      -0.088   9.744  17.738  0.00  0.00    +0.000 NA
ATOM      6  C   UNL     1      -1.282  10.429  18.066  0.00  0.00    +0.000 A 
ATOM      7  C   UNL     1      -2.461   9.856  17.564  0.00  0.00    +0.000 A 
ATOM      8  C   UNL     1      -3.713  10.422  17.813  0.00  0.00    +0.000 A 
ATOM      9  C   UNL     1      -3.806  11.588  18.562  0.00  0.00    +0.000 A 
ATOM     10  C   UNL     1      -2.646  12.184  19.054  0.00  0.00    +0.000 A 
ATOM     11  C   UNL     1      -1.378  11.624  18.823  0.00  0.00    +0.000 A 
ATOM     12  N   UNL     1      -0.299  12.335  19.385  0.00  0.00    +0.000 NA
ATOM     13  C   UNL     1       0.671  11.702  19.943  0.00  0.00    +0.000 C 
ATOM     14  N   UNL     1       1.713  12.418  20.554  0.00  0.00    +0.000 N 
ATOM     15  H   UNL     1       2.329  11.981  21.231  0.00  0.00    +0.000 HD
ENDROOT
BRANCH  14  16
ATOM     16  S   UNL     1       2.209  13.946  20.103  0.00  0.00    +0.000 S 
ATOM     17  O   UNL     1       3.420  14.206  20.853  0.00  0.00    +0.000 OA
ATOM     18  O   UNL     1       2.202  14.026  18.660  0.00  0.00    +0.000 OA
BRANCH  16  19
ATOM     19  C   UNL     1       0.942  14.988  20.769  0.00  0.00    +0.000 A 
ATOM     20  C   UNL     1       0.546  14.798  22.096  0.00  0.00    +0.000 A 
ATOM     21  C   UNL     1      -0.558  15.495  22.586  0.00  0.00    +0.000 A 
ATOM     22  C   UNL     1      -1.241  16.384  21.753  0.00  0.00    +0.000 A 
ATOM     23 CL   UNL     1      -2.658  17.169  22.332  0.00  0.00    +0.000 Cl
ATOM     24  C   UNL     1      -0.806  16.617  20.447  0.00  0.00    +0.000 A 
ATOM     25  C   UNL     1       0.298  15.924  19.951  0.00  0.00    +0.000 A 
ENDBRANCH  16  19
ENDBRANCH  14  16
BRANCH   1  26
ATOM     26  O   UNL     1       1.017   8.129  20.991  0.00  0.00    +0.000 OA
ATOM     27  H   UNL     1       0.144   7.739  20.834  0.00  0.00    +0.000 HD
ENDBRANCH   1  26
BRANCH   1  28
ATOM     28  O   UNL     1       0.706  10.126  22.288  0.00  0.00    +0.000 OA
BRANCH  28  30
ATOM     29  C   UNL     1      -1.284  11.185  22.998  0.00  0.00    +0.000 C 
ATOM     30  C   UNL     1      -0.505   9.885  22.996  0.00  0.00    +0.000 C 
ENDBRANCH  28  30
ENDBRANCH   1  28
TORSDOF 5
ENDMDL
MODEL 8
REMARK VINA RESULT:      -6.8      3.541      6.388
REMARK  Name = 
REMARK  7 active torsions:
REMARK  status: ('A' for Active; 'I' for Inactive)
REMARK    1  A    between atoms: C_1  and  C_2
REMARK    2  A    between atoms: C_2  and  O_3
REMARK    3  A    between atoms: O_3  and  C_4
REMARK    4  A    between atoms: C_4  and  O_5
REMARK    5  A    between atoms: C_7  and  C_8
REMARK    6  A    between atoms: N_18  and  S_19
REMARK    7  A    between atoms: S_19  and  C_22
REMARK                            x       y       z     vdW  Elec       q    Type
REMARK                         _______ _______ _______ _____ _____    ______ ____
ROOT
ATOM      1  C   UNL     1       0.811   9.708  21.033  0.00  0.00    +0.000 C 
ATOM      2  C   UNL     1       0.772  10.358  19.863  0.00  0.00    +0.000 C 
ATOM      3  C   UNL     1       0.771   9.638  18.569  0.00  0.00    +0.000 C 
ATOM      4  C   UNL     1       2.017   8.873  18.192  0.00  0.00    +0.000 C 
ATOM      5  N   UNL     1      -0.194   9.686  17.702  0.00  0.00    +0.000 NA
ATOM      6  C   UNL     1      -1.392  10.381  17.990  0.00  0.00    +0.000 A 
ATOM      7  C   UNL     1      -2.569   9.759  17.545  0.00  0.00    +0.000 A 
ATOM      8  C   UNL     1      -3.825  10.329  17.762  0.00  0.00    +0.000 A 
ATOM      9  C   UNL     1      -3.924  11.548  18.422  0.00  0.00    +0.000 A 
ATOM     10  C   UNL     1      -2.767  12.191  18.856  0.00  0.00    +0.000 A 
ATOM     11  C   UNL     1      -1.495  11.628  18.655  0.00  0.00    +0.000 A 
ATOM     12  N   UNL     1      -0.419  12.392  19.150  0.00  0.00    +0.000 NA
ATOM     13  C   UNL     1       0.564  11.813  19.744  0.00  0.00    +0.000 C 
ATOM     14  N   UNL     1       1.603  12.585  20.290  0.00  0.00    +0.000 N 
ATOM     15  H   UNL     1       2.231  12.206  20.991  0.00  0.00    +0.000 HD
ENDROOT
BRANCH  14  16
ATOM     16  S   UNL     1       2.078  14.079  19.719  0.00  0.00    +0.000 S 
ATOM     17  O   UNL     1       3.146  14.516  20.594  0.00  0.00    +0.000 OA
ATOM     18  O   UNL     1       2.285  13.983  18.291  0.00  0.00    +0.000 OA
BRANCH  16  19
ATOM     19  C   UNL     1       0.669  15.099  20.055  0.00  0.00    +0.000 A 
ATOM     20  C   UNL     1       0.115  15.841  19.009  0.00  0.00    +0.000 A 
ATOM     21  C   UNL     1      -0.888  16.769  19.288  0.00  0.00    +0.000 A 
ATOM     22  C   UNL     1      -1.334  16.934  20.601  0.00  0.00    +0.000 A 
ATOM     23 CL   UNL     1      -2.502  18.148  20.954  0.00  0.00    +0.000 Cl
ATOM     24  C   UNL     1      -0.820  16.148  21.634  0.00  0.00    +0.000 A 
ATOM     25  C   UNL     1       0.183  15.216  21.362  0.00  0.00    +0.000 A 
ENDBRANCH  16  19
ENDBRANCH  14  16
BRANCH   1  26
ATOM     26  O   UNL     1       0.960   8.334  21.056  0.00  0.00    +0.000 OA
ATOM     27  H   UNL     1       1.904   8.122  21.030  0.00  0.00    +0.000 HD
ENDBRANCH   1  26
BRANCH   1  28
ATOM     28  O   UNL     1       0.639  10.420  22.202  0.00  0.00    +0.000 OA
BRANCH  28  30
ATOM     29  C   UNL     1      -1.346  11.502  22.894  0.00  0.00    +0.000 C 
ATOM     30  C   UNL     1      -0.556  10.209  22.946  0.00  0.00    +0.000 C 
ENDBRANCH  28  30
ENDBRANCH   1  28
TORSDOF 5
ENDMDL
MODEL 9
REMARK VINA RESULT:      -6.8      3.870      7.223
REMARK  Name = 
REMARK  7 active torsions:
REMARK  status: ('A' for Active; 'I' for Inactive)
REMARK    1  A    between atoms: C_1  and  C_2
REMARK    2  A    between atoms: C_2  and  O_3
REMARK    3  A    between atoms: O_3  and  C_4
REMARK    4  A    between atoms: C_4  and  O_5
REMARK    5  A    between atoms: C_7  and  C_8
REMARK    6  A    between atoms: N_18  and  S_19
REMARK    7  A    between atoms: S_19  and  C_22
REMARK                            x       y       z     vdW  Elec       q    Type
REMARK                         _______ _______ _______ _____ _____    ______ ____
ROOT
ATOM      1  C   UNL     1      -1.328  11.246  18.167  0.00  0.00    +0.000 C 
ATOM      2  C   UNL     1      -0.414  11.474  19.117  0.00  0.00    +0.000 C 
ATOM      3  C   UNL     1       0.963  10.936  19.023  0.00  0.00    +0.000 C 
ATOM      4  C   UNL     1       1.135   9.438  19.106  0.00  0.00    +0.000 C 
ATOM      5  N   UNL     1       2.034  11.665  18.956  0.00  0.00    +0.000 NA
ATOM      6  C   UNL     1       1.946  13.075  18.872  0.00  0.00    +0.000 A 
ATOM      7  C   UNL     1       2.870  13.683  18.008  0.00  0.00    +0.000 A 
ATOM      8  C   UNL     1       2.897  15.067  17.823  0.00  0.00    +0.000 A 
ATOM      9  C   UNL     1       2.002  15.873  18.515  0.00  0.00    +0.000 A 
ATOM     10  C   UNL     1       1.088  15.291  19.392  0.00  0.00    +0.000 A 
ATOM     11  C   UNL     1       1.039  13.899  19.584  0.00  0.00    +0.000 A 
ATOM     12  N   UNL     1       0.063  13.456  20.498  0.00  0.00    +0.000 NA
ATOM     13  C   UNL     1      -0.625  12.399  20.246  0.00  0.00    +0.000 C 
ATOM     14  N   UNL     1      -1.639  11.997  21.132  0.00  0.00    +0.000 N 
ATOM     15  H   UNL     1      -2.370  11.358  20.842  0.00  0.00    +0.000 HD
ENDROOT
BRANCH  14  16
ATOM     16  S   UNL     1      -1.649  12.312  22.771  0.00  0.00    +0.000 S 
ATOM     17  O   UNL     1      -1.148  11.111  23.407  0.00  0.00    +0.000 OA
ATOM     18  O   UNL     1      -1.014  13.590  22.999  0.00  0.00    +0.000 OA
BRANCH  16  19
ATOM     19  C   UNL     1      -3.377  12.424  23.142  0.00  0.00    +0.000 A 
ATOM     20  C   UNL     1      -4.262  12.769  22.117  0.00  0.00    +0.000 A 
ATOM     21  C   UNL     1      -5.598  13.021  22.425  0.00  0.00    +0.000 A 
ATOM     22  C   UNL     1      -6.038  12.909  23.746  0.00  0.00    +0.000 A 
ATOM     23 CL   UNL     1      -7.664  13.314  24.136  0.00  0.00    +0.000 Cl
ATOM     24  C   UNL     1      -5.165  12.505  24.757  0.00  0.00    +0.000 A 
ATOM     25  C   UNL     1      -3.826  12.251  24.456  0.00  0.00    +0.000 A 
ENDBRANCH  16  19
ENDBRANCH  14  16
BRANCH   1  26
ATOM     26  O   UNL     1      -1.034  10.401  17.112  0.00  0.00    +0.000 OA
ATOM     27  H   UNL     1      -1.857  10.005  16.791  0.00  0.00    +0.000 HD
ENDBRANCH   1  26
BRANCH   1  28
ATOM     28  O   UNL     1      -2.536  11.911  18.223  0.00  0.00    +0.000 OA
BRANCH  28  30
ATOM     29  C   UNL     1      -4.826  11.326  18.200  0.00  0.00    +0.000 C 
ATOM     30  C   UNL     1      -3.579  11.483  17.354  0.00  0.00    +0.000 C 
ENDBRANCH  28  30
ENDBRANCH   1  28
TORSDOF 5
ENDMDL
