MODEL 1
REMARK VINA RESULT:      -7.9      0.000      0.000
REMARK  Name = 
REMARK  6 active torsions:
REMARK  status: ('A' for Active; 'I' for Inactive)
REMARK    1  A    between atoms: C_1  and  O_2
REMARK    2  A    between atoms: O_2  and  C_3
REMARK    3  A    between atoms: C_6  and  C_7
REMARK    4  A    between atoms: C_11  and  N_12
REMARK    5  A    between atoms: N_15  and  C_16
REMARK    6  A    between atoms: C_22  and  N_23
REMARK                            x       y       z     vdW  Elec       q    Type
REMARK                         _______ _______ _______ _____ _____    ______ ____
ROOT
ATOM      1  N   UNL     1       1.432   8.432  20.691  0.00  0.00    +0.000 N 
ATOM      2  C   UNL     1       0.934   9.480  19.780  0.00  0.00    +0.000 C 
ATOM      3  C   UNL     1      -0.417  10.044  20.277  0.00  0.00    +0.000 C 
ATOM      4  N   UNL     1      -0.338  10.432  21.698  0.00  0.00    +0.000 N 
ATOM      5  C   UNL     1       0.185   9.391  22.602  0.00  0.00    +0.000 C 
ATOM      6  C   UNL     1       1.544   8.860  22.096  0.00  0.00    +0.000 C 
ENDROOT
BRANCH   4   7
ATOM      7  C   UNL     1      -0.810  11.645  22.158  0.00  0.00    +0.000 A 
ATOM      8  C   UNL     1      -1.949  11.746  22.942  0.00  0.00    +0.000 A 
ATOM      9  N   UNL     1      -2.460  12.887  23.450  0.00  0.00    +0.000 NA
ATOM     10  C   UNL     1      -1.780  13.997  23.182  0.00  0.00    +0.000 A 
ATOM     11  N   UNL     1      -2.280  15.179  23.687  0.00  0.00    +0.000 N 
ATOM     12  N   UNL     1      -0.690  14.059  22.418  0.00  0.00    +0.000 NA
ATOM     13  C   UNL     1      -0.225  12.897  21.922  0.00  0.00    +0.000 A 
ATOM     14  H   UNL     1      -3.267  15.071  23.874  0.00  0.00    +0.000 HD
ATOM     15  H   UNL     1      -1.996  15.949  23.098  0.00  0.00    +0.000 HD
BRANCH  13  16
ATOM     16  N   UNL     1       0.913  13.035  21.110  0.00  0.00    +0.000 N 
ATOM     17  H   UNL     1       0.609  13.450  20.235  0.00  0.00    +0.000 HD
ATOM     18  H   UNL     1       1.359  12.132  20.988  0.00  0.00    +0.000 HD
ENDBRANCH  13  16
ENDBRANCH   4   7
BRANCH   1  23
ATOM     19  C   UNL     1       3.094   5.755  18.686  0.00  0.00    +0.000 A 
ATOM     20  C   UNL     1       2.554   4.621  19.305  0.00  0.00    +0.000 A 
ATOM     21  C   UNL     1       1.654   4.747  20.361  0.00  0.00    +0.000 A 
ATOM     22  C   UNL     1       1.286   6.012  20.822  0.00  0.00    +0.000 A 
ATOM     23  C   UNL     1       1.801   7.180  20.252  0.00  0.00    +0.000 A 
ATOM     24  C   UNL     1       2.703   7.014  19.187  0.00  0.00    +0.000 A 
BRANCH  19  28
ATOM     25  C   UNL     1       5.712   5.457  15.415  0.00  0.00    +0.000 A 
ATOM     26  N   UNL     1       5.264   4.315  15.948  0.00  0.00    +0.000 NA
ATOM     27  C   UNL     1       4.419   4.445  16.994  0.00  0.00    +0.000 A 
ATOM     28  C   UNL     1       4.024   5.650  17.551  0.00  0.00    +0.000 A 
ATOM     29  C   UNL     1       4.579   6.749  16.913  0.00  0.00    +0.000 A 
ATOM     30  N   UNL     1       5.410   6.689  15.851  0.00  0.00    +0.000 NA
BRANCH  25  32
ATOM     31  C   UNL     1       6.391   4.075  13.683  0.00  0.00    +0.000 C 
ATOM     32  O   UNL     1       6.592   5.306  14.367  0.00  0.00    +0.000 OA
ENDBRANCH  25  32
ENDBRANCH  19  28
ENDBRANCH   1  23
TORSDOF 5
ENDMDL
MODEL 2
REMARK VINA RESULT:      -7.8      1.598      1.856
REMARK  Name = 
REMARK  6 active torsions:
REMARK  status: ('A' for Active; 'I' for Inactive)
REMARK    1  A    between atoms: C_1  and  O_2
REMARK    2  A    between atoms: O_2  and  C_3
REMARK    3  A    between atoms: C_6  and  C_7
REMARK    4  A    between atoms: C_11  and  N_12
REMARK    5  A    between atoms: N_15  and  C_16
REMARK    6  A    between atoms: C_22  and  N_23
REMARK                            x       y       z     vdW  Elec       q    Type
REMARK                         _______ _______ _______ _____ _____    ______ ____
ROOT
ATOM      1  N   UNL     1       1.775   8.266  19.757  0.00  0.00    +0.000 N 
ATOM      2  C   UNL     1       1.760   9.290  18.696  0.00  0.00    +0.000 C 
ATOM      3  C   UNL     1       0.347   9.896  18.537  0.00  0.00    +0.000 C 
ATOM      4  N   UNL     1      -0.192  10.332  19.839  0.00  0.00    +0.000 N 
ATOM      5  C   UNL     1      -0.151   9.313  20.905  0.00  0.00    +0.000 C 
ATOM      6  C   UNL     1       1.274   8.741  21.059  0.00  0.00    +0.000 C 
ENDROOT
BRANCH   4   7
ATOM      7  C   UNL     1      -0.779  11.569  20.017  0.00  0.00    +0.000 A 
ATOM      8  C   UNL     1      -2.140  11.774  19.843  0.00  0.00    +0.000 A 
ATOM      9  N   UNL     1      -2.791  12.943  20.020  0.00  0.00    +0.000 NA
ATOM     10  C   UNL     1      -2.046  13.967  20.422  0.00  0.00    +0.000 A 
ATOM     11  N   UNL     1      -2.686  15.175  20.609  0.00  0.00    +0.000 N 
ATOM     12  N   UNL     1      -0.725  13.928  20.598  0.00  0.00    +0.000 NA
ATOM     13  C   UNL     1      -0.117  12.745  20.396  0.00  0.00    +0.000 A 
ATOM     14  H   UNL     1      -3.542  15.186  20.074  0.00  0.00    +0.000 HD
ATOM     15  H   UNL     1      -2.033  15.932  20.467  0.00  0.00    +0.000 HD
BRANCH  13  16
ATOM     16  N   UNL     1       1.275  12.778  20.580  0.00  0.00    +0.000 N 
ATOM     17  H   UNL     1       1.507  13.692  20.955  0.00  0.00    +0.000 HD
ATOM     18  H   UNL     1       1.742  12.578  19.702  0.00  0.00    +0.000 HD
ENDBRANCH  13  16
ENDBRANCH   4   7
BRANCH   1  23
ATOM     19  C   UNL     1       3.614   5.406  18.211  0.00  0.00    +0.000 A 
ATOM     20  C   UNL     1       3.243   4.380  19.088  0.00  0.00    +0.000 A 
ATOM     21  C   UNL     1       2.398   4.634  20.165  0.00  0.00    +0.000 A 
ATOM     22  C   UNL     1       1.914   5.925  20.388  0.00  0.00    +0.000 A 
ATOM     23  C   UNL     1       2.258   6.993  19.553  0.00  0.00    +0.000 A 
ATOM     24  C   UNL     1       3.111   6.697  18.476  0.00  0.00    +0.000 A 
BRANCH  19  28
ATOM     25  C   UNL     1       6.134   4.704  14.925  0.00  0.00    +0.000 A 
ATOM     26  N   UNL     1       5.774   5.970  15.163  0.00  0.00    +0.000 NA
ATOM     27  C   UNL     1       4.969   6.164  16.230  0.00  0.00    +0.000 A 
ATOM     28  C   UNL     1       4.483   5.158  17.050  0.00  0.00    +0.000 A 
ATOM     29  C   UNL     1       4.919   3.896  16.677  0.00  0.00    +0.000 A 
ATOM     30  N   UNL     1       5.741   3.638  15.638  0.00  0.00    +0.000 NA
BRANCH  25  32
ATOM     31  C   UNL     1       6.308   3.694  12.847  0.00  0.00    +0.000 C 
ATOM     32  O   UNL     1       6.933   4.523  13.819  0.00  0.00    +0.000 OA
ENDBRANCH  25  32
ENDBRANCH  19  28
ENDBRANCH   1  23
TORSDOF 5
ENDMDL
MODEL 3
REMARK VINA RESULT:      -7.8      2.299      3.004
REMARK  Name = 
REMARK  6 active torsions:
REMARK  status: ('A' for Active; 'I' for Inactive)
REMARK    1  A    between atoms: C_1  and  O_2
REMARK    2  A    between atoms: O_2  and  C_3
REMARK    3  A    between atoms: C_6  and  C_7
REMARK    4  A    between atoms: C_11  and  N_12
REMARK    5  A    between atoms: N_15  and  C_16
REMARK    6  A    between atoms: C_22  and  N_23
REMARK                            x       y       z     vdW  Elec       q    Type
REMARK                         _______ _______ _______ _____ _____    ______ ____
ROOT
ATOM      1  N   UNL     1       1.416   9.242  19.137  0.00  0.00    +0.000 N 
ATOM      2  C   UNL     1       0.570   9.808  20.204  0.00  0.00    +0.000 C 
ATOM      3  C   UNL     1       1.104  11.187  20.655  0.00  0.00    +0.000 C 
ATOM      4  N   UNL     1       1.332  12.071  19.498  0.00  0.00    +0.000 N 
ATOM      5  C   UNL     1       2.157  11.492  18.421  0.00  0.00    +0.000 C 
ATOM      6  C   UNL     1       1.591  10.128  17.972  0.00  0.00    +0.000 C 
ENDROOT
BRANCH   4   7
ATOM      7  C   UNL     1       0.886  13.378  19.470  0.00  0.00    +0.000 A 
ATOM      8  C   UNL     1       1.438  14.365  20.272  0.00  0.00    +0.000 A 
ATOM      9  N   UNL     1       1.076  15.665  20.287  0.00  0.00    +0.000 NA
ATOM     10  C   UNL     1       0.121  16.011  19.430  0.00  0.00    +0.000 A 
ATOM     11  N   UNL     1      -0.269  17.334  19.424  0.00  0.00    +0.000 N 
ATOM     12  N   UNL     1      -0.522  15.169  18.622  0.00  0.00    +0.000 NA
ATOM     13  C   UNL     1      -0.136  13.880  18.652  0.00  0.00    +0.000 A 
ATOM     14  H   UNL     1      -0.030  17.757  20.309  0.00  0.00    +0.000 HD
ATOM     15  H   UNL     1      -1.228  17.405  19.115  0.00  0.00    +0.000 HD
BRANCH  13  16
ATOM     16  N   UNL     1      -0.867  13.042  17.793  0.00  0.00    +0.000 N 
ATOM     17  H   UNL     1      -1.711  12.767  18.287  0.00  0.00    +0.000 HD
ATOM     18  H   UNL     1      -0.295  12.253  17.515  0.00  0.00    +0.000 HD
ENDBRANCH  13  16
ENDBRANCH   4   7
BRANCH   1  23
ATOM     19  C   UNL     1       3.390   6.202  18.234  0.00  0.00    +0.000 A 
ATOM     20  C   UNL     1       3.060   5.372  19.312  0.00  0.00    +0.000 A 
ATOM     21  C   UNL     1       2.197   5.814  20.312  0.00  0.00    +0.000 A 
ATOM     22  C   UNL     1       1.655   7.099  20.255  0.00  0.00    +0.000 A 
ATOM     23  C   UNL     1       1.957   7.977  19.209  0.00  0.00    +0.000 A 
ATOM     24  C   UNL     1       2.828   7.496  18.217  0.00  0.00    +0.000 A 
BRANCH  19  28
ATOM     25  C   UNL     1       5.958   4.914  15.170  0.00  0.00    +0.000 A 
ATOM     26  N   UNL     1       5.784   6.232  15.311  0.00  0.00    +0.000 NA
ATOM     27  C   UNL     1       4.958   6.615  16.309  0.00  0.00    +0.000 A 
ATOM     28  C   UNL     1       4.277   5.750  17.150  0.00  0.00    +0.000 A 
ATOM     29  C   UNL     1       4.534   4.415  16.880  0.00  0.00    +0.000 A 
ATOM     30  N   UNL     1       5.366   3.968  15.914  0.00  0.00    +0.000 NA
BRANCH  25  32
ATOM     31  C   UNL     1       6.116   3.689  13.209  0.00  0.00    +0.000 C 
ATOM     32  O   UNL     1       6.783   4.541  14.132  0.00  0.00    +0.000 OA
ENDBRANCH  25  32
ENDBRANCH  19  28
ENDBRANCH   1  23
TORSDOF 5
ENDMDL
MODEL 4
REMARK VINA RESULT:      -7.6      1.391      1.610
REMARK  Name = 
REMARK  6 active torsions:
REMARK  status: ('A' for Active; 'I' for Inactive)
REMARK    1  A    between atoms: C_1  and  O_2
REMARK    2  A    between atoms: O_2  and  C_3
REMARK    3  A    between atoms: C_6  and  C_7
REMARK    4  A    between atoms: C_11  and  N_12
REMARK    5  A    between atoms: N_15  and  C_16
REMARK    6  A    between atoms: C_22  and  N_23
REMARK                            x       y       z     vdW  Elec       q    Type
REMARK                         _______ _______ _______ _____ _____    ______ ____
ROOT
ATOM      1  N   UNL     1       1.730   8.130  20.074  0.00  0.00    +0.000 N 
ATOM      2  C   UNL     1       1.771   9.254  19.119  0.00  0.00    +0.000 C 
ATOM      3  C   UNL     1       0.380   9.917  18.990  0.00  0.00    +0.000 C 
ATOM      4  N   UNL     1      -0.179  10.239  20.315  0.00  0.00    +0.000 N 
ATOM      5  C   UNL     1      -0.194   9.120  21.276  0.00  0.00    +0.000 C 
ATOM      6  C   UNL     1       1.209   8.491  21.405  0.00  0.00    +0.000 C 
ENDROOT
BRANCH   4   7
ATOM      7  C   UNL     1      -0.734  11.470  20.602  0.00  0.00    +0.000 A 
ATOM      8  C   UNL     1      -0.243  12.285  21.611  0.00  0.00    +0.000 A 
ATOM      9  N   UNL     1      -0.712  13.508  21.938  0.00  0.00    +0.000 NA
ATOM     10  C   UNL     1      -1.718  13.960  21.196  0.00  0.00    +0.000 A 
ATOM     11  N   UNL     1      -2.219  15.207  21.508  0.00  0.00    +0.000 N 
ATOM     12  N   UNL     1      -2.312  13.278  20.216  0.00  0.00    +0.000 NA
ATOM     13  C   UNL     1      -1.818  12.058  19.936  0.00  0.00    +0.000 A 
ATOM     14  H   UNL     1      -1.989  15.428  22.466  0.00  0.00    +0.000 HD
ATOM     15  H   UNL     1      -3.188  15.263  21.233  0.00  0.00    +0.000 HD
BRANCH  13  16
ATOM     16  N   UNL     1      -2.501  11.386  18.909  0.00  0.00    +0.000 N 
ATOM     17  H   UNL     1      -1.823  10.798  18.432  0.00  0.00    +0.000 HD
ATOM     18  H   UNL     1      -2.945  12.059  18.294  0.00  0.00    +0.000 HD
ENDBRANCH  13  16
ENDBRANCH   4   7
BRANCH   1  23
ATOM     19  C   UNL     1       3.518   5.379  18.290  0.00  0.00    +0.000 A 
ATOM     20  C   UNL     1       3.101   4.284  19.057  0.00  0.00    +0.000 A 
ATOM     21  C   UNL     1       2.242   4.460  20.140  0.00  0.00    +0.000 A 
ATOM     22  C   UNL     1       1.791   5.737  20.478  0.00  0.00    +0.000 A 
ATOM     23  C   UNL     1       2.181   6.869  19.756  0.00  0.00    +0.000 A 
ATOM     24  C   UNL     1       3.046   6.653  18.670  0.00  0.00    +0.000 A 
BRANCH  19  28
ATOM     25  C   UNL     1       6.004   4.918  14.936  0.00  0.00    +0.000 A 
ATOM     26  N   UNL     1       5.598   3.805  15.557  0.00  0.00    +0.000 NA
ATOM     27  C   UNL     1       4.796   3.986  16.628  0.00  0.00    +0.000 A 
ATOM     28  C   UNL     1       4.402   5.218  17.125  0.00  0.00    +0.000 A 
ATOM     29  C   UNL     1       4.911   6.284  16.398  0.00  0.00    +0.000 A 
ATOM     30  N   UNL     1       5.698   6.170  15.308  0.00  0.00    +0.000 NA
BRANCH  25  32
ATOM     31  C   UNL     1       6.342   3.717  12.984  0.00  0.00    +0.000 C 
ATOM     32  O   UNL     1       6.843   4.716  13.864  0.00  0.00    +0.000 OA
ENDBRANCH  25  32
ENDBRANCH  19  28
ENDBRANCH   1  23
TORSDOF 5
ENDMDL
MODEL 5
REMARK VINA RESULT:      -7.4      1.213      1.760
REMARK  Name = 
REMARK  6 active torsions:
REMARK  status: ('A' for Active; 'I' for Inactive)
REMARK    1  A    between atoms: C_1  and  O_2
REMARK    2  A    between atoms: O_2  and  C_3
REMARK    3  A    between atoms: C_6  and  C_7
REMARK    4  A    between atoms: C_11  and  N_12
REMARK    5  A    between atoms: N_15  and  C_16
REMARK    6  A    between atoms: C_22  and  N_23
REMARK                            x       y       z     vdW  Elec       q    Type
REMARK                         _______ _______ _______ _____ _____    ______ ____
ROOT
ATOM      1  N   UNL     1       1.631   8.101  20.161  0.00  0.00    +0.000 N 
ATOM      2  C   UNL     1       1.610   9.234  19.217  0.00  0.00    +0.000 C 
ATOM      3  C   UNL     1       0.193   9.846  19.123  0.00  0.00    +0.000 C 
ATOM      4  N   UNL     1      -0.349  10.135  20.463  0.00  0.00    +0.000 N 
ATOM      5  C   UNL     1      -0.302   9.007  21.413  0.00  0.00    +0.000 C 
ATOM      6  C   UNL     1       1.126   8.429  21.506  0.00  0.00    +0.000 C 
ENDROOT
BRANCH   4   7
ATOM      7  C   UNL     1      -0.942  11.342  20.774  0.00  0.00    +0.000 A 
ATOM      8  C   UNL     1      -1.230  12.295  19.808  0.00  0.00    +0.000 A 
ATOM      9  N   UNL     1      -1.828  13.485  20.026  0.00  0.00    +0.000 NA
ATOM     10  C   UNL     1      -2.187  13.733  21.281  0.00  0.00    +0.000 A 
ATOM     11  N   UNL     1      -2.799  14.943  21.533  0.00  0.00    +0.000 N 
ATOM     12  N   UNL     1      -1.948  12.928  22.317  0.00  0.00    +0.000 NA
ATOM     13  C   UNL     1      -1.337  11.759  22.053  0.00  0.00    +0.000 A 
ATOM     14  H   UNL     1      -2.559  15.597  20.803  0.00  0.00    +0.000 HD
ATOM     15  H   UNL     1      -2.625  15.221  22.488  0.00  0.00    +0.000 HD
BRANCH  13  16
ATOM     16  N   UNL     1      -1.097  10.969  23.189  0.00  0.00    +0.000 N 
ATOM     17  H   UNL     1      -0.349  10.322  22.954  0.00  0.00    +0.000 HD
ATOM     18  H   UNL     1      -1.952  10.501  23.469  0.00  0.00    +0.000 HD
ENDBRANCH  13  16
ENDBRANCH   4   7
BRANCH   1  23
ATOM     19  C   UNL     1       3.507   5.440  18.332  0.00  0.00    +0.000 A 
ATOM     20  C   UNL     1       3.122   4.319  19.078  0.00  0.00    +0.000 A 
ATOM     21  C   UNL     1       2.256   4.447  20.161  0.00  0.00    +0.000 A 
ATOM     22  C   UNL     1       1.765   5.703  20.521  0.00  0.00    +0.000 A 
ATOM     23  C   UNL     1       2.121   6.860  19.821  0.00  0.00    +0.000 A 
ATOM     24  C   UNL     1       2.995   6.691  18.734  0.00  0.00    +0.000 A 
BRANCH  19  28
ATOM     25  C   UNL     1       6.090   5.125  15.034  0.00  0.00    +0.000 A 
ATOM     26  N   UNL     1       5.681   6.351  15.379  0.00  0.00    +0.000 NA
ATOM     27  C   UNL     1       4.856   6.419  16.446  0.00  0.00    +0.000 A 
ATOM     28  C   UNL     1       4.398   5.328  17.167  0.00  0.00    +0.000 A 
ATOM     29  C   UNL     1       4.885   4.120  16.689  0.00  0.00    +0.000 A 
ATOM     30  N   UNL     1       5.728   3.986  15.644  0.00  0.00    +0.000 NA
BRANCH  25  32
ATOM     31  C   UNL     1       6.627   3.938  13.118  0.00  0.00    +0.000 C 
ATOM     32  O   UNL     1       6.908   5.072  13.929  0.00  0.00    +0.000 OA
ENDBRANCH  25  32
ENDBRANCH  19  28
ENDBRANCH   1  23
TORSDOF 5
ENDMDL
MODEL 6
REMARK VINA RESULT:      -7.3      0.557      1.563
REMARK  Name = 
REMARK  6 active torsions:
REMARK  status: ('A' for Active; 'I' for Inactive)
REMARK    1  A    between atoms: C_1  and  O_2
REMARK    2  A    between atoms: O_2  and  C_3
REMARK    3  A    between atoms: C_6  and  C_7
REMARK    4  A    between atoms: C_11  and  N_12
REMARK    5  A    between atoms: N_15  and  C_16
REMARK    6  A    between atoms: C_22  and  N_23
REMARK                            x       y       z     vdW  Elec       q    Type
REMARK                         _______ _______ _______ _____ _____    ______ ____
ROOT
ATOM      1  N   UNL     1       1.445   8.675  20.742  0.00  0.00    +0.000 N 
ATOM      2  C   UNL     1       0.989   9.726  19.814  0.00  0.00    +0.000 C 
ATOM      3  C   UNL     1      -0.328  10.366  20.310  0.00  0.00    +0.000 C 
ATOM      4  N   UNL     1      -0.218  10.778  21.721  0.00  0.00    +0.000 N 
ATOM      5  C   UNL     1       0.262   9.732  22.643  0.00  0.00    +0.000 C 
ATOM      6  C   UNL     1       1.589   9.126  22.138  0.00  0.00    +0.000 C 
ENDROOT
BRANCH   4   7
ATOM      7  C   UNL     1      -0.626  12.022  22.159  0.00  0.00    +0.000 A 
ATOM      8  C   UNL     1       0.052  13.184  21.823  0.00  0.00    +0.000 A 
ATOM      9  N   UNL     1      -0.295  14.436  22.190  0.00  0.00    +0.000 NA
ATOM     10  C   UNL     1      -1.402  14.541  22.917  0.00  0.00    +0.000 A 
ATOM     11  N   UNL     1      -1.780  15.809  23.308  0.00  0.00    +0.000 N 
ATOM     12  N   UNL     1      -2.137  13.514  23.342  0.00  0.00    +0.000 NA
ATOM     13  C   UNL     1      -1.745  12.284  22.963  0.00  0.00    +0.000 A 
ATOM     14  H   UNL     1      -0.974  16.418  23.289  0.00  0.00    +0.000 HD
ATOM     15  H   UNL     1      -2.309  15.757  24.166  0.00  0.00    +0.000 HD
BRANCH  13  16
ATOM     16  N   UNL     1      -2.550  11.246  23.461  0.00  0.00    +0.000 N 
ATOM     17  H   UNL     1      -2.503  11.289  24.474  0.00  0.00    +0.000 HD
ATOM     18  H   UNL     1      -2.236  10.358  23.086  0.00  0.00    +0.000 HD
ENDBRANCH  13  16
ENDBRANCH   4   7
BRANCH   1  23
ATOM     19  C   UNL     1       2.970   5.879  18.792  0.00  0.00    +0.000 A 
ATOM     20  C   UNL     1       2.369   4.786  19.428  0.00  0.00    +0.000 A 
ATOM     21  C   UNL     1       1.474   4.977  20.478  0.00  0.00    +0.000 A 
ATOM     22  C   UNL     1       1.171   6.268  20.915  0.00  0.00    +0.000 A 
ATOM     23  C   UNL     1       1.748   7.398  20.327  0.00  0.00    +0.000 A 
ATOM     24  C   UNL     1       2.643   7.166  19.269  0.00  0.00    +0.000 A 
BRANCH  19  28
ATOM     25  C   UNL     1       5.653   5.387  15.597  0.00  0.00    +0.000 A 
ATOM     26  N   UNL     1       5.301   6.638  15.916  0.00  0.00    +0.000 NA
ATOM     27  C   UNL     1       4.442   6.763  16.951  0.00  0.00    +0.000 A 
ATOM     28  C   UNL     1       3.897   5.706  17.662  0.00  0.00    +0.000 A 
ATOM     29  C   UNL     1       4.332   4.468  17.213  0.00  0.00    +0.000 A 
ATOM     30  N   UNL     1       5.205   4.276  16.201  0.00  0.00    +0.000 NA
BRANCH  25  32
ATOM     31  C   UNL     1       6.287   4.076  13.795  0.00  0.00    +0.000 C 
ATOM     32  O   UNL     1       6.508   5.277  14.524  0.00  0.00    +0.000 OA
ENDBRANCH  25  32
ENDBRANCH  19  28
ENDBRANCH   1  23
TORSDOF 5
ENDMDL
MODEL 7
REMARK VINA RESULT:      -7.3      1.461      2.285
REMARK  Name = 
REMARK  6 active torsions:
REMARK  status: ('A' for Active; 'I' for Inactive)
REMARK    1  A    between atoms: C_1  and  O_2
REMARK    2  A    between atoms: O_2  and  C_3
REMARK    3  A    between atoms: C_6  and  C_7
REMARK    4  A    between atoms: C_11  and  N_12
REMARK    5  A    between atoms: N_15  and  C_16
REMARK    6  A    between atoms: C_22  and  N_23
REMARK                            x       y       z     vdW  Elec       q    Type
REMARK                         _______ _______ _______ _____ _____    ______ ____
ROOT
ATOM      1  N   UNL     1       2.159   7.375  19.558  0.00  0.00    +0.000 N 
ATOM      2  C   UNL     1       2.204   8.722  18.959  0.00  0.00    +0.000 C 
ATOM      3  C   UNL     1       0.860   9.459  19.161  0.00  0.00    +0.000 C 
ATOM      4  N   UNL     1       0.438   9.413  20.573  0.00  0.00    +0.000 N 
ATOM      5  C   UNL     1       0.419   8.067  21.177  0.00  0.00    +0.000 C 
ATOM      6  C   UNL     1       1.778   7.362  20.981  0.00  0.00    +0.000 C 
ENDROOT
BRANCH   4   7
ATOM      7  C   UNL     1       0.002  10.536  21.249  0.00  0.00    +0.000 A 
ATOM      8  C   UNL     1      -0.084  11.779  20.640  0.00  0.00    +0.000 A 
ATOM      9  N   UNL     1      -0.521  12.915  21.222  0.00  0.00    +0.000 NA
ATOM     10  C   UNL     1      -0.923  12.802  22.484  0.00  0.00    +0.000 A 
ATOM     11  N   UNL     1      -1.374  13.949  23.104  0.00  0.00    +0.000 N 
ATOM     12  N   UNL     1      -0.870  11.684  23.206  0.00  0.00    +0.000 NA
ATOM     13  C   UNL     1      -0.414  10.579  22.587  0.00  0.00    +0.000 A 
ATOM     14  H   UNL     1      -0.996  14.756  22.631  0.00  0.00    +0.000 HD
ATOM     15  H   UNL     1      -1.225  13.878  24.101  0.00  0.00    +0.000 HD
BRANCH  13  16
ATOM     16  N   UNL     1      -0.364   9.441  23.408  0.00  0.00    +0.000 N 
ATOM     17  H   UNL     1      -1.140   9.507  24.060  0.00  0.00    +0.000 HD
ATOM     18  H   UNL     1       0.538   9.389  23.869  0.00  0.00    +0.000 HD
ENDBRANCH  13  16
ENDBRANCH   4   7
BRANCH   1  23
ATOM     19  C   UNL     1       3.947   5.081  17.215  0.00  0.00    +0.000 A 
ATOM     20  C   UNL     1       3.170   3.926  17.370  0.00  0.00    +0.000 A 
ATOM     21  C   UNL     1       2.075   3.915  18.230  0.00  0.00    +0.000 A 
ATOM     22  C   UNL     1       1.743   5.058  18.958  0.00  0.00    +0.000 A 
ATOM     23  C   UNL     1       2.487   6.237  18.854  0.00  0.00    +0.000 A 
ATOM     24  C   UNL     1       3.583   6.212  17.975  0.00  0.00    +0.000 A 
BRANCH  19  28
ATOM     25  C   UNL     1       7.235   5.179  14.604  0.00  0.00    +0.000 A 
ATOM     26  N   UNL     1       7.295   5.950  15.695  0.00  0.00    +0.000 NA
ATOM     27  C   UNL     1       6.225   5.892  16.518  0.00  0.00    +0.000 A 
ATOM     28  C   UNL     1       5.091   5.128  16.292  0.00  0.00    +0.000 A 
ATOM     29  C   UNL     1       5.157   4.395  15.117  0.00  0.00    +0.000 A 
ATOM     30  N   UNL     1       6.204   4.392  14.265  0.00  0.00    +0.000 NA
BRANCH  25  32
ATOM     31  C   UNL     1       7.928   5.426  12.407  0.00  0.00    +0.000 C 
ATOM     32  O   UNL     1       8.322   5.271  13.764  0.00  0.00    +0.000 OA
ENDBRANCH  25  32
ENDBRANCH  19  28
ENDBRANCH   1  23
TORSDOF 5
ENDMDL
MODEL 8
REMARK VINA RESULT:      -7.3      3.798     10.115
REMARK  Name = 
REMARK  6 active torsions:
REMARK  status: ('A' for Active; 'I' for Inactive)
REMARK    1  A    between atoms: C_1  and  O_2
REMARK    2  A    between atoms: O_2  and  C_3
REMARK    3  A    between atoms: C_6  and  C_7
REMARK    4  A    between atoms: C_11  and  N_12
REMARK    5  A    between atoms: N_15  and  C_16
REMARK    6  A    between atoms: C_22  and  N_23
REMARK                            x       y       z     vdW  Elec       q    Type
REMARK                         _______ _______ _______ _____ _____    ______ ____
ROOT
ATOM      1  N   UNL     1       1.460   8.709  19.598  0.00  0.00    +0.000 N 
ATOM      2  C   UNL     1       1.669   8.016  20.882  0.00  0.00    +0.000 C 
ATOM      3  C   UNL     1       1.465   6.491  20.725  0.00  0.00    +0.000 C 
ATOM      4  N   UNL     1       2.250   5.966  19.592  0.00  0.00    +0.000 N 
ATOM      5  C   UNL     1       2.058   6.678  18.315  0.00  0.00    +0.000 C 
ATOM      6  C   UNL     1       2.289   8.193  18.494  0.00  0.00    +0.000 C 
ENDROOT
BRANCH   4   7
ATOM      7  C   UNL     1       3.032   4.833  19.700  0.00  0.00    +0.000 A 
ATOM      8  C   UNL     1       2.540   3.640  20.209  0.00  0.00    +0.000 A 
ATOM      9  N   UNL     1       3.230   2.486  20.324  0.00  0.00    +0.000 NA
ATOM     10  C   UNL     1       4.483   2.513  19.881  0.00  0.00    +0.000 A 
ATOM     11  N   UNL     1       5.212   1.347  19.989  0.00  0.00    +0.000 N 
ATOM     12  N   UNL     1       5.099   3.591  19.398  0.00  0.00    +0.000 NA
ATOM     13  C   UNL     1       4.375   4.722  19.315  0.00  0.00    +0.000 A 
ATOM     14  H   UNL     1       4.807   0.764  20.706  0.00  0.00    +0.000 HD
ATOM     15  H   UNL     1       6.195   1.566  20.061  0.00  0.00    +0.000 HD
BRANCH  13  16
ATOM     16  N   UNL     1       5.089   5.825  18.817  0.00  0.00    +0.000 N 
ATOM     17  H   UNL     1       4.963   5.835  17.809  0.00  0.00    +0.000 HD
ATOM     18  H   UNL     1       6.063   5.757  19.094  0.00  0.00    +0.000 HD
ENDBRANCH  13  16
ENDBRANCH   4   7
BRANCH   1  23
ATOM     19  C   UNL     1      -0.550  11.742  20.440  0.00  0.00    +0.000 A 
ATOM     20  C   UNL     1      -1.200  11.947  19.217  0.00  0.00    +0.000 A 
ATOM     21  C   UNL     1      -0.976  11.093  18.140  0.00  0.00    +0.000 A 
ATOM     22  C   UNL     1      -0.091  10.021  18.267  0.00  0.00    +0.000 A 
ATOM     23  C   UNL     1       0.595   9.772  19.459  0.00  0.00    +0.000 A 
ATOM     24  C   UNL     1       0.343  10.653  20.524  0.00  0.00    +0.000 A 
BRANCH  19  28
ATOM     25  C   UNL     1      -1.259  14.257  23.729  0.00  0.00    +0.000 A 
ATOM     26  N   UNL     1      -0.184  14.518  22.977  0.00  0.00    +0.000 NA
ATOM     27  C   UNL     1       0.014  13.695  21.925  0.00  0.00    +0.000 A 
ATOM     28  C   UNL     1      -0.789  12.613  21.602  0.00  0.00    +0.000 A 
ATOM     29  C   UNL     1      -1.854  12.449  22.475  0.00  0.00    +0.000 A 
ATOM     30  N   UNL     1      -2.119  13.248  23.530  0.00  0.00    +0.000 NA
BRANCH  25  32
ATOM     31  C   UNL     1      -2.746  15.000  25.343  0.00  0.00    +0.000 C 
ATOM     32  O   UNL     1      -1.430  15.089  24.812  0.00  0.00    +0.000 OA
ENDBRANCH  25  32
ENDBRANCH  19  28
ENDBRANCH   1  23
TORSDOF 5
ENDMDL
MODEL 9
REMARK VINA RESULT:      -7.3      1.973      2.628
REMARK  Name = 
REMARK  6 active torsions:
REMARK  status: ('A' for Active; 'I' for Inactive)
REMARK    1  A    between atoms: C_1  and  O_2
REMARK    2  A    between atoms: O_2  and  C_3
REMARK    3  A    between atoms: C_6  and  C_7
REMARK    4  A    between atoms: C_11  and  N_12
REMARK    5  A    between atoms: N_15  and  C_16
REMARK    6  A    between atoms: C_22  and  N_23
REMARK                            x       y       z     vdW  Elec       q    Type
REMARK                         _______ _______ _______ _____ _____    ______ ____
ROOT
ATOM      1  N   UNL     1       1.306   8.628  19.596  0.00  0.00    +0.000 N 
ATOM      2  C   UNL     1       0.619   9.175  20.781  0.00  0.00    +0.000 C 
ATOM      3  C   UNL     1       1.052  10.636  21.041  0.00  0.00    +0.000 C 
ATOM      4  N   UNL     1       0.936  11.449  19.817  0.00  0.00    +0.000 N 
ATOM      5  C   UNL     1       1.602  10.886  18.627  0.00  0.00    +0.000 C 
ATOM      6  C   UNL     1       1.137   9.436  18.376  0.00  0.00    +0.000 C 
ENDROOT
BRANCH   4   7
ATOM      7  C   UNL     1       0.332  12.691  19.810  0.00  0.00    +0.000 A 
ATOM      8  C   UNL     1       1.063  13.869  19.759  0.00  0.00    +0.000 A 
ATOM      9  N   UNL     1       0.549  15.116  19.725  0.00  0.00    +0.000 NA
ATOM     10  C   UNL     1      -0.778  15.197  19.715  0.00  0.00    +0.000 A 
ATOM     11  N   UNL     1      -1.330  16.460  19.682  0.00  0.00    +0.000 N 
ATOM     12  N   UNL     1      -1.607  14.156  19.793  0.00  0.00    +0.000 NA
ATOM     13  C   UNL     1      -1.048  12.933  19.839  0.00  0.00    +0.000 A 
ATOM     14  H   UNL     1      -0.658  17.128  20.031  0.00  0.00    +0.000 HD
ATOM     15  H   UNL     1      -2.243  16.444  20.115  0.00  0.00    +0.000 HD
BRANCH  13  16
ATOM     16  N   UNL     1      -1.976  11.883  19.940  0.00  0.00    +0.000 N 
ATOM     17  H   UNL     1      -1.683  11.159  19.291  0.00  0.00    +0.000 HD
ATOM     18  H   UNL     1      -2.910  12.230  19.752  0.00  0.00    +0.000 HD
ENDBRANCH  13  16
ENDBRANCH   4   7
BRANCH   1  23
ATOM     19  C   UNL     1       3.761   5.969  18.676  0.00  0.00    +0.000 A 
ATOM     20  C   UNL     1       3.441   5.002  19.637  0.00  0.00    +0.000 A 
ATOM     21  C   UNL     1       2.428   5.230  20.566  0.00  0.00    +0.000 A 
ATOM     22  C   UNL     1       1.723   6.435  20.553  0.00  0.00    +0.000 A 
ATOM     23  C   UNL     1       2.005   7.442  19.625  0.00  0.00    +0.000 A 
ATOM     24  C   UNL     1       3.031   7.175  18.703  0.00  0.00    +0.000 A 
BRANCH  19  28
ATOM     25  C   UNL     1       6.776   5.354  15.816  0.00  0.00    +0.000 A 
ATOM     26  N   UNL     1       5.865   6.299  15.555  0.00  0.00    +0.000 NA
ATOM     27  C   UNL     1       4.913   6.476  16.496  0.00  0.00    +0.000 A 
ATOM     28  C   UNL     1       4.808   5.742  17.667  0.00  0.00    +0.000 A 
ATOM     29  C   UNL     1       5.804   4.786  17.799  0.00  0.00    +0.000 A 
ATOM     30  N   UNL     1       6.795   4.574  16.907  0.00  0.00    +0.000 NA
BRANCH  25  32
ATOM     31  C   UNL     1       7.135   4.767  13.603  0.00  0.00    +0.000 C 
ATOM     32  O   UNL     1       7.723   5.169  14.834  0.00  0.00    +0.000 OA
ENDBRANCH  25  32
ENDBRANCH  19  28
ENDBRANCH   1  23
TORSDOF 5
ENDMDL
