MODEL 1
REMARK VINA RESULT:      -7.5      0.000      0.000
REMARK  Name = 
REMARK  5 active torsions:
REMARK  status: ('A' for Active; 'I' for Inactive)
REMARK    1  A    between atoms: C_2  and  O_3
REMARK    2  A    between atoms: C_2  and  C_4
REMARK    3  A    between atoms: C_4  and  N_5
REMARK    4  A    between atoms: N_7  and  C_8
REMARK    5  A    between atoms: C_8  and  C_9
REMARK                            x       y       z     vdW  Elec       q    Type
REMARK                         _______ _______ _______ _____ _____    ______ ____
ROOT
ATOM      1  N   UNL     1       5.771   6.393  18.068  0.00  0.00    +0.000 NA
ATOM      2  C   UNL     1       4.446   6.915  17.700  0.00  0.00    +0.000 C 
ATOM      3  N   UNL     1       3.301   6.289  18.368  0.00  0.00    +0.000 N 
ATOM      4  C   UNL     1       3.340   5.044  18.981  0.00  0.00    +0.000 A 
ATOM      5  C   UNL     1       2.251   4.529  19.714  0.00  0.00    +0.000 A 
ATOM      6  C   UNL     1       2.307   3.300  20.389  0.00  0.00    +0.000 A 
ATOM      7  C   UNL     1       3.469   2.542  20.367  0.00  0.00    +0.000 A 
ATOM      8  C   UNL     1       4.558   3.003  19.645  0.00  0.00    +0.000 A 
ATOM      9  C   UNL     1       4.466   4.221  18.951  0.00  0.00    +0.000 A 
ATOM     10  S   UNL     1       5.811   4.709  17.954  0.00  0.00    +0.000 S 
ATOM     11  O   UNL     1       7.043   4.297  18.596  0.00  0.00    +0.000 OA
ATOM     12  O   UNL     1       5.523   4.346  16.584  0.00  0.00    +0.000 OA
ENDROOT
BRANCH   1  13
ATOM     13  C   UNL     1       6.845   6.974  17.198  0.00  0.00    +0.000 C 
BRANCH  13  15
ATOM     14  O   UNL     1       8.145   8.924  17.771  0.00  0.00    +0.000 OA
ATOM     15  C   UNL     1       7.871   7.752  17.983  0.00  0.00    +0.000 C 
BRANCH  15  16
ATOM     16  O   UNL     1       8.449   7.031  18.971  0.00  0.00    +0.000 OA
ATOM     17  H   UNL     1       9.353   6.740  18.731  0.00  0.00    +0.000 HD
ENDBRANCH  15  16
ENDBRANCH  13  15
ENDBRANCH   1  13
BRANCH   3  18
ATOM     18  C   UNL     1       2.009   6.932  18.077  0.00  0.00    +0.000 C 
BRANCH  18  19
ATOM     19  C   UNL     1       1.657   8.039  19.047  0.00  0.00    +0.000 A 
ATOM     20  C   UNL     1       1.580   7.861  20.436  0.00  0.00    +0.000 A 
ATOM     21  C   UNL     1       1.300   8.942  21.266  0.00  0.00    +0.000 A 
ATOM     22  F   UNL     1       1.246   8.753  22.591  0.00  0.00    +0.000 F 
ATOM     23  C   UNL     1       1.086  10.207  20.729  0.00  0.00    +0.000 A 
ATOM     24  F   UNL     1       0.833  11.246  21.535  0.00  0.00    +0.000 F 
ATOM     25  C   UNL     1       1.136  10.406  19.356  0.00  0.00    +0.000 A 
ATOM     26  C   UNL     1       1.418   9.322  18.530  0.00  0.00    +0.000 A 
ATOM     27  F   UNL     1       1.468   9.520  17.205  0.00  0.00    +0.000 F 
ENDBRANCH  18  19
ENDBRANCH   3  18
TORSDOF 5
ENDMDL
MODEL 2
REMARK VINA RESULT:      -7.4      0.816      1.706
REMARK  Name = 
REMARK  5 active torsions:
REMARK  status: ('A' for Active; 'I' for Inactive)
REMARK    1  A    between atoms: C_2  and  O_3
REMARK    2  A    between atoms: C_2  and  C_4
REMARK    3  A    between atoms: C_4  and  N_5
REMARK    4  A    between atoms: N_7  and  C_8
REMARK    5  A    between atoms: C_8  and  C_9
REMARK                            x       y       z     vdW  Elec       q    Type
REMARK                         _______ _______ _______ _____ _____    ______ ____
ROOT
ATOM      1  N   UNL     1       5.803   6.433  18.004  0.00  0.00    +0.000 NA
ATOM      2  C   UNL     1       4.482   6.931  17.591  0.00  0.00    +0.000 C 
ATOM      3  N   UNL     1       3.326   6.290  18.225  0.00  0.00    +0.000 N 
ATOM      4  C   UNL     1       3.366   5.050  18.847  0.00  0.00    +0.000 A 
ATOM      5  C   UNL     1       2.263   4.520  19.547  0.00  0.00    +0.000 A 
ATOM      6  C   UNL     1       2.317   3.296  20.231  0.00  0.00    +0.000 A 
ATOM      7  C   UNL     1       3.491   2.558  20.251  0.00  0.00    +0.000 A 
ATOM      8  C   UNL     1       4.595   3.033  19.562  0.00  0.00    +0.000 A 
ATOM      9  C   UNL     1       4.505   4.246  18.858  0.00  0.00    +0.000 A 
ATOM     10  S   UNL     1       5.873   4.750  17.901  0.00  0.00    +0.000 S 
ATOM     11  O   UNL     1       7.091   4.361  18.585  0.00  0.00    +0.000 OA
ATOM     12  O   UNL     1       5.636   4.375  16.525  0.00  0.00    +0.000 OA
ENDROOT
BRANCH   1  13
ATOM     13  C   UNL     1       6.895   7.028  17.165  0.00  0.00    +0.000 C 
BRANCH  13  15
ATOM     14  O   UNL     1       8.164   8.980  17.796  0.00  0.00    +0.000 OA
ATOM     15  C   UNL     1       7.898   7.802  17.982  0.00  0.00    +0.000 C 
BRANCH  15  16
ATOM     16  O   UNL     1       8.467   7.068  18.967  0.00  0.00    +0.000 OA
ATOM     17  H   UNL     1       7.796   6.624  19.526  0.00  0.00    +0.000 HD
ENDBRANCH  15  16
ENDBRANCH  13  15
ENDBRANCH   1  13
BRANCH   3  18
ATOM     18  C   UNL     1       2.033   6.910  17.889  0.00  0.00    +0.000 C 
BRANCH  18  19
ATOM     19  C   UNL     1       1.807   8.237  18.580  0.00  0.00    +0.000 A 
ATOM     20  C   UNL     1       1.890   9.478  17.930  0.00  0.00    +0.000 A 
ATOM     21  C   UNL     1       1.618  10.652  18.626  0.00  0.00    +0.000 A 
ATOM     22  F   UNL     1       1.689  11.825  17.983  0.00  0.00    +0.000 F 
ATOM     23  C   UNL     1       1.269  10.610  19.971  0.00  0.00    +0.000 A 
ATOM     24  F   UNL     1       0.992  11.743  20.630  0.00  0.00    +0.000 F 
ATOM     25  C   UNL     1       1.199   9.397  20.643  0.00  0.00    +0.000 A 
ATOM     26  C   UNL     1       1.470   8.225  19.943  0.00  0.00    +0.000 A 
ATOM     27  F   UNL     1       1.399   7.056  20.595  0.00  0.00    +0.000 F 
ENDBRANCH  18  19
ENDBRANCH   3  18
TORSDOF 5
ENDMDL
MODEL 3
REMARK VINA RESULT:      -7.2      1.014      1.180
REMARK  Name = 
REMARK  5 active torsions:
REMARK  status: ('A' for Active; 'I' for Inactive)
REMARK    1  A    between atoms: C_2  and  O_3
REMARK    2  A    between atoms: C_2  and  C_4
REMARK    3  A    between atoms: C_4  and  N_5
REMARK    4  A    between atoms: N_7  and  C_8
REMARK    5  A    between atoms: C_8  and  C_9
REMARK                            x       y       z     vdW  Elec       q    Type
REMARK                         _______ _______ _______ _____ _____    ______ ____
ROOT
ATOM      1  N   UNL     1       5.303   5.570  18.784  0.00  0.00    +0.000 NA
ATOM      2  C   UNL     1       4.244   6.407  18.201  0.00  0.00    +0.000 C 
ATOM      3  N   UNL     1       2.884   6.157  18.690  0.00  0.00    +0.000 N 
ATOM      4  C   UNL     1       2.486   4.989  19.324  0.00  0.00    +0.000 A 
ATOM      5  C   UNL     1       1.202   4.833  19.885  0.00  0.00    +0.000 A 
ATOM      6  C   UNL     1       0.815   3.679  20.583  0.00  0.00    +0.000 A 
ATOM      7  C   UNL     1       1.712   2.635  20.759  0.00  0.00    +0.000 A 
ATOM      8  C   UNL     1       2.979   2.739  20.211  0.00  0.00    +0.000 A 
ATOM      9  C   UNL     1       3.332   3.891  19.489  0.00  0.00    +0.000 A 
ATOM     10  S   UNL     1       4.891   3.934  18.708  0.00  0.00    +0.000 S 
ATOM     11  O   UNL     1       5.852   3.244  19.545  0.00  0.00    +0.000 OA
ATOM     12  O   UNL     1       4.719   3.580  17.317  0.00  0.00    +0.000 OA
ENDROOT
BRANCH   1  13
ATOM     13  C   UNL     1       6.612   5.784  18.084  0.00  0.00    +0.000 C 
BRANCH  13  15
ATOM     14  O   UNL     1       8.426   7.206  18.797  0.00  0.00    +0.000 OA
ATOM     15  C   UNL     1       7.700   6.248  19.018  0.00  0.00    +0.000 C 
BRANCH  15  16
ATOM     16  O   UNL     1       7.786   5.510  20.151  0.00  0.00    +0.000 OA
ATOM     17  H   UNL     1       7.125   5.788  20.819  0.00  0.00    +0.000 HD
ENDBRANCH  15  16
ENDBRANCH  13  15
ENDBRANCH   1  13
BRANCH   3  18
ATOM     18  C   UNL     1       1.879   7.107  18.185  0.00  0.00    +0.000 C 
BRANCH  18  19
ATOM     19  C   UNL     1       1.547   8.209  19.168  0.00  0.00    +0.000 A 
ATOM     20  C   UNL     1       1.524   8.028  20.560  0.00  0.00    +0.000 A 
ATOM     21  C   UNL     1       1.259   9.106  21.400  0.00  0.00    +0.000 A 
ATOM     22  F   UNL     1       1.256   8.915  22.726  0.00  0.00    +0.000 F 
ATOM     23  C   UNL     1       1.007  10.367  20.873  0.00  0.00    +0.000 A 
ATOM     24  F   UNL     1       0.769  11.403  21.688  0.00  0.00    +0.000 F 
ATOM     25  C   UNL     1       1.004  10.567  19.499  0.00  0.00    +0.000 A 
ATOM     26  C   UNL     1       1.271   9.488  18.662  0.00  0.00    +0.000 A 
ATOM     27  F   UNL     1       1.270   9.687  17.337  0.00  0.00    +0.000 F 
ENDBRANCH  18  19
ENDBRANCH   3  18
TORSDOF 5
ENDMDL
MODEL 4
REMARK VINA RESULT:      -7.2      1.715      2.719
REMARK  Name = 
REMARK  5 active torsions:
REMARK  status: ('A' for Active; 'I' for Inactive)
REMARK    1  A    between atoms: C_2  and  O_3
REMARK    2  A    between atoms: C_2  and  C_4
REMARK    3  A    between atoms: C_4  and  N_5
REMARK    4  A    between atoms: N_7  and  C_8
REMARK    5  A    between atoms: C_8  and  C_9
REMARK                            x       y       z     vdW  Elec       q    Type
REMARK                         _______ _______ _______ _____ _____    ______ ____
ROOT
ATOM      1  N   UNL     1       5.193   5.000  18.766  0.00  0.00    +0.000 NA
ATOM      2  C   UNL     1       4.342   5.922  19.534  0.00  0.00    +0.000 C 
ATOM      3  N   UNL     1       3.048   5.388  19.972  0.00  0.00    +0.000 N 
ATOM      4  C   UNL     1       2.430   4.281  19.406  0.00  0.00    +0.000 A 
ATOM      5  C   UNL     1       1.244   3.728  19.931  0.00  0.00    +0.000 A 
ATOM      6  C   UNL     1       0.649   2.573  19.403  0.00  0.00    +0.000 A 
ATOM      7  C   UNL     1       1.232   1.915  18.329  0.00  0.00    +0.000 A 
ATOM      8  C   UNL     1       2.389   2.432  17.772  0.00  0.00    +0.000 A 
ATOM      9  C   UNL     1       2.948   3.609  18.299  0.00  0.00    +0.000 A 
ATOM     10  S   UNL     1       4.332   4.300  17.494  0.00  0.00    +0.000 S 
ATOM     11  O   UNL     1       5.167   3.226  16.995  0.00  0.00    +0.000 OA
ATOM     12  O   UNL     1       3.877   5.361  16.624  0.00  0.00    +0.000 OA
ENDROOT
BRANCH   1  13
ATOM     13  C   UNL     1       6.400   5.704  18.219  0.00  0.00    +0.000 C 
BRANCH  13  15
ATOM     14  O   UNL     1       8.296   5.213  19.629  0.00  0.00    +0.000 OA
ATOM     15  C   UNL     1       7.690   5.014  18.586  0.00  0.00    +0.000 C 
BRANCH  15  16
ATOM     16  O   UNL     1       8.106   4.126  17.654  0.00  0.00    +0.000 OA
ATOM     17  H   UNL     1       7.362   3.781  17.118  0.00  0.00    +0.000 HD
ENDBRANCH  15  16
ENDBRANCH  13  15
ENDBRANCH   1  13
BRANCH   3  18
ATOM     18  C   UNL     1       2.290   6.292  20.852  0.00  0.00    +0.000 C 
BRANCH  18  19
ATOM     19  C   UNL     1       1.903   7.594  20.184  0.00  0.00    +0.000 A 
ATOM     20  C   UNL     1       2.180   7.892  18.841  0.00  0.00    +0.000 A 
ATOM     21  C   UNL     1       1.746   9.092  18.287  0.00  0.00    +0.000 A 
ATOM     22  F   UNL     1       2.009   9.351  16.999  0.00  0.00    +0.000 F 
ATOM     23  C   UNL     1       1.041  10.011  19.057  0.00  0.00    +0.000 A 
ATOM     24  F   UNL     1       0.611  11.157  18.512  0.00  0.00    +0.000 F 
ATOM     25  C   UNL     1       0.771   9.749  20.393  0.00  0.00    +0.000 A 
ATOM     26  C   UNL     1       1.206   8.547  20.943  0.00  0.00    +0.000 A 
ATOM     27  F   UNL     1       0.941   8.297  22.233  0.00  0.00    +0.000 F 
ENDBRANCH  18  19
ENDBRANCH   3  18
TORSDOF 5
ENDMDL
MODEL 5
REMARK VINA RESULT:      -7.0      2.716      4.401
REMARK  Name = 
REMARK  5 active torsions:
REMARK  status: ('A' for Active; 'I' for Inactive)
REMARK    1  A    between atoms: C_2  and  O_3
REMARK    2  A    between atoms: C_2  and  C_4
REMARK    3  A    between atoms: C_4  and  N_5
REMARK    4  A    between atoms: N_7  and  C_8
REMARK    5  A    between atoms: C_8  and  C_9
REMARK                            x       y       z     vdW  Elec       q    Type
REMARK                         _______ _______ _______ _____ _____    ______ ____
ROOT
ATOM      1  N   UNL     1       2.119   3.471  19.055  0.00  0.00    +0.000 NA
ATOM      2  C   UNL     1       2.443   4.687  19.815  0.00  0.00    +0.000 C 
ATOM      3  N   UNL     1       3.170   5.729  19.081  0.00  0.00    +0.000 N 
ATOM      4  C   UNL     1       3.887   5.504  17.915  0.00  0.00    +0.000 A 
ATOM      5  C   UNL     1       4.474   6.552  17.176  0.00  0.00    +0.000 A 
ATOM      6  C   UNL     1       5.145   6.339  15.962  0.00  0.00    +0.000 A 
ATOM      7  C   UNL     1       5.243   5.060  15.432  0.00  0.00    +0.000 A 
ATOM      8  C   UNL     1       4.695   3.999  16.133  0.00  0.00    +0.000 A 
ATOM      9  C   UNL     1       4.055   4.235  17.362  0.00  0.00    +0.000 A 
ATOM     10  S   UNL     1       3.487   2.862  18.276  0.00  0.00    +0.000 S 
ATOM     11  O   UNL     1       3.004   1.854  17.353  0.00  0.00    +0.000 OA
ATOM     12  O   UNL     1       4.472   2.542  19.285  0.00  0.00    +0.000 OA
ENDROOT
BRANCH   1  13
ATOM     13  C   UNL     1       1.543   2.410  19.946  0.00  0.00    +0.000 C 
BRANCH  13  15
ATOM     14  O   UNL     1       1.120   2.962  22.256  0.00  0.00    +0.000 OA
ATOM     15  C   UNL     1       1.911   2.607  21.394  0.00  0.00    +0.000 C 
BRANCH  15  16
ATOM     16  O   UNL     1       3.209   2.329  21.661  0.00  0.00    +0.000 OA
ATOM     17  H   UNL     1       3.647   3.057  22.148  0.00  0.00    +0.000 HD
ENDBRANCH  15  16
ENDBRANCH  13  15
ENDBRANCH   1  13
BRANCH   3  18
ATOM     18  C   UNL     1       3.351   6.980  19.835  0.00  0.00    +0.000 C 
BRANCH  18  19
ATOM     19  C   UNL     1       2.098   7.825  19.905  0.00  0.00    +0.000 A 
ATOM     20  C   UNL     1       1.216   7.820  20.997  0.00  0.00    +0.000 A 
ATOM     21  C   UNL     1       0.110   8.664  21.007  0.00  0.00    +0.000 A 
ATOM     22  F   UNL     1      -0.711   8.654  22.066  0.00  0.00    +0.000 F 
ATOM     23  C   UNL     1      -0.139   9.514  19.936  0.00  0.00    +0.000 A 
ATOM     24  F   UNL     1      -1.196  10.336  19.960  0.00  0.00    +0.000 F 
ATOM     25  C   UNL     1       0.706   9.524  18.834  0.00  0.00    +0.000 A 
ATOM     26  C   UNL     1       1.812   8.680  18.829  0.00  0.00    +0.000 A 
ATOM     27  F   UNL     1       2.627   8.694  17.765  0.00  0.00    +0.000 F 
ENDBRANCH  18  19
ENDBRANCH   3  18
TORSDOF 5
ENDMDL
MODEL 6
REMARK VINA RESULT:      -6.8      3.626      5.479
REMARK  Name = 
REMARK  5 active torsions:
REMARK  status: ('A' for Active; 'I' for Inactive)
REMARK    1  A    between atoms: C_2  and  O_3
REMARK    2  A    between atoms: C_2  and  C_4
REMARK    3  A    between atoms: C_4  and  N_5
REMARK    4  A    between atoms: N_7  and  C_8
REMARK    5  A    between atoms: C_8  and  C_9
REMARK                            x       y       z     vdW  Elec       q    Type
REMARK                         _______ _______ _______ _____ _____    ______ ____
ROOT
ATOM      1  N   UNL     1       6.218   5.206  17.889  0.00  0.00    +0.000 NA
ATOM      2  C   UNL     1       4.870   4.624  17.791  0.00  0.00    +0.000 C 
ATOM      3  N   UNL     1       4.560   3.929  16.537  0.00  0.00    +0.000 N 
ATOM      4  C   UNL     1       5.254   4.116  15.350  0.00  0.00    +0.000 A 
ATOM      5  C   UNL     1       5.001   3.343  14.198  0.00  0.00    +0.000 A 
ATOM      6  C   UNL     1       5.743   3.482  13.015  0.00  0.00    +0.000 A 
ATOM      7  C   UNL     1       6.782   4.399  12.945  0.00  0.00    +0.000 A 
ATOM      8  C   UNL     1       7.055   5.190  14.049  0.00  0.00    +0.000 A 
ATOM      9  C   UNL     1       6.277   5.053  15.211  0.00  0.00    +0.000 A 
ATOM     10  S   UNL     1       6.568   6.151  16.535  0.00  0.00    +0.000 S 
ATOM     11  O   UNL     1       7.988   6.433  16.605  0.00  0.00    +0.000 OA
ATOM     12  O   UNL     1       5.595   7.218  16.469  0.00  0.00    +0.000 OA
ENDROOT
BRANCH   1  13
ATOM     13  C   UNL     1       6.360   6.041  19.127  0.00  0.00    +0.000 C 
BRANCH  13  15
ATOM     14  O   UNL     1       8.077   5.139  20.561  0.00  0.00    +0.000 OA
ATOM     15  C   UNL     1       7.742   5.963  19.723  0.00  0.00    +0.000 C 
BRANCH  15  16
ATOM     16  O   UNL     1       8.596   6.886  19.221  0.00  0.00    +0.000 OA
ATOM     17  H   UNL     1       9.431   6.481  18.909  0.00  0.00    +0.000 HD
ENDBRANCH  15  16
ENDBRANCH  13  15
ENDBRANCH   1  13
BRANCH   3  18
ATOM     18  C   UNL     1       3.256   3.245  16.535  0.00  0.00    +0.000 C 
BRANCH  18  19
ATOM     19  C   UNL     1       2.638   3.128  17.911  0.00  0.00    +0.000 A 
ATOM     20  C   UNL     1       1.800   4.103  18.474  0.00  0.00    +0.000 A 
ATOM     21  C   UNL     1       1.231   3.898  19.726  0.00  0.00    +0.000 A 
ATOM     22  F   UNL     1       0.422   4.835  20.239  0.00  0.00    +0.000 F 
ATOM     23  C   UNL     1       1.489   2.731  20.437  0.00  0.00    +0.000 A 
ATOM     24  F   UNL     1       0.923   2.533  21.635  0.00  0.00    +0.000 F 
ATOM     25  C   UNL     1       2.331   1.760  19.912  0.00  0.00    +0.000 A 
ATOM     26  C   UNL     1       2.897   1.968  18.658  0.00  0.00    +0.000 A 
ATOM     27  F   UNL     1       3.707   1.026  18.154  0.00  0.00    +0.000 F 
ENDBRANCH  18  19
ENDBRANCH   3  18
TORSDOF 5
ENDMDL
MODEL 7
REMARK VINA RESULT:      -6.8      1.045      1.313
REMARK  Name = 
REMARK  5 active torsions:
REMARK  status: ('A' for Active; 'I' for Inactive)
REMARK    1  A    between atoms: C_2  and  O_3
REMARK    2  A    between atoms: C_2  and  C_4
REMARK    3  A    between atoms: C_4  and  N_5
REMARK    4  A    between atoms: N_7  and  C_8
REMARK    5  A    between atoms: C_8  and  C_9
REMARK                            x       y       z     vdW  Elec       q    Type
REMARK                         _______ _______ _______ _____ _____    ______ ____
ROOT
ATOM      1  N   UNL     1       5.422   5.587  18.967  0.00  0.00    +0.000 NA
ATOM      2  C   UNL     1       4.447   6.486  18.332  0.00  0.00    +0.000 C 
ATOM      3  N   UNL     1       3.040   6.246  18.666  0.00  0.00    +0.000 N 
ATOM      4  C   UNL     1       2.553   5.055  19.186  0.00  0.00    +0.000 A 
ATOM      5  C   UNL     1       1.215   4.904  19.604  0.00  0.00    +0.000 A 
ATOM      6  C   UNL     1       0.734   3.723  20.189  0.00  0.00    +0.000 A 
ATOM      7  C   UNL     1       1.585   2.646  20.391  0.00  0.00    +0.000 A 
ATOM      8  C   UNL     1       2.903   2.745  19.981  0.00  0.00    +0.000 A 
ATOM      9  C   UNL     1       3.353   3.927  19.368  0.00  0.00    +0.000 A 
ATOM     10  S   UNL     1       4.984   3.971  18.752  0.00  0.00    +0.000 S 
ATOM     11  O   UNL     1       5.839   3.206  19.638  0.00  0.00    +0.000 OA
ATOM     12  O   UNL     1       4.947   3.701  17.332  0.00  0.00    +0.000 OA
ENDROOT
BRANCH   1  13
ATOM     13  C   UNL     1       6.801   5.804  18.417  0.00  0.00    +0.000 C 
BRANCH  13  15
ATOM     14  O   UNL     1       7.067   7.845  17.159  0.00  0.00    +0.000 OA
ATOM     15  C   UNL     1       6.801   6.652  17.171  0.00  0.00    +0.000 C 
BRANCH  15  16
ATOM     16  O   UNL     1       6.499   5.958  16.049  0.00  0.00    +0.000 OA
ATOM     17  H   UNL     1       7.257   5.914  15.430  0.00  0.00    +0.000 HD
ENDBRANCH  15  16
ENDBRANCH  13  15
ENDBRANCH   1  13
BRANCH   3  18
ATOM     18  C   UNL     1       2.112   7.251  18.121  0.00  0.00    +0.000 C 
BRANCH  18  19
ATOM     19  C   UNL     1       1.658   8.268  19.147  0.00  0.00    +0.000 A 
ATOM     20  C   UNL     1       1.684   8.040  20.531  0.00  0.00    +0.000 A 
ATOM     21  C   UNL     1       1.296   9.045  21.412  0.00  0.00    +0.000 A 
ATOM     22  F   UNL     1       1.342   8.813  22.731  0.00  0.00    +0.000 F 
ATOM     23  C   UNL     1       0.873  10.280  20.932  0.00  0.00    +0.000 A 
ATOM     24  F   UNL     1       0.517  11.248  21.787  0.00  0.00    +0.000 F 
ATOM     25  C   UNL     1       0.818  10.523  19.567  0.00  0.00    +0.000 A 
ATOM     26  C   UNL     1       1.209   9.516  18.689  0.00  0.00    +0.000 A 
ATOM     27  F   UNL     1       1.157   9.756  17.372  0.00  0.00    +0.000 F 
ENDBRANCH  18  19
ENDBRANCH   3  18
TORSDOF 5
ENDMDL
MODEL 8
REMARK VINA RESULT:      -6.7      2.680      4.727
REMARK  Name = 
REMARK  5 active torsions:
REMARK  status: ('A' for Active; 'I' for Inactive)
REMARK    1  A    between atoms: C_2  and  O_3
REMARK    2  A    between atoms: C_2  and  C_4
REMARK    3  A    between atoms: C_4  and  N_5
REMARK    4  A    between atoms: N_7  and  C_8
REMARK    5  A    between atoms: C_8  and  C_9
REMARK                            x       y       z     vdW  Elec       q    Type
REMARK                         _______ _______ _______ _____ _____    ______ ____
ROOT
ATOM      1  N   UNL     1       2.060   3.512  19.156  0.00  0.00    +0.000 NA
ATOM      2  C   UNL     1       2.308   4.727  19.947  0.00  0.00    +0.000 C 
ATOM      3  N   UNL     1       3.005   5.815  19.254  0.00  0.00    +0.000 N 
ATOM      4  C   UNL     1       3.762   5.647  18.102  0.00  0.00    +0.000 A 
ATOM      5  C   UNL     1       4.318   6.735  17.399  0.00  0.00    +0.000 A 
ATOM      6  C   UNL     1       5.030   6.577  16.200  0.00  0.00    +0.000 A 
ATOM      7  C   UNL     1       5.200   5.315  15.649  0.00  0.00    +0.000 A 
ATOM      8  C   UNL     1       4.683   4.216  16.315  0.00  0.00    +0.000 A 
ATOM      9  C   UNL     1       4.002   4.398  17.531  0.00  0.00    +0.000 A 
ATOM     10  S   UNL     1       3.475   2.982  18.403  0.00  0.00    +0.000 S 
ATOM     11  O   UNL     1       3.062   1.972  17.449  0.00  0.00    +0.000 OA
ATOM     12  O   UNL     1       4.447   2.687  19.432  0.00  0.00    +0.000 OA
ENDROOT
BRANCH   1  13
ATOM     13  C   UNL     1       1.511   2.409  20.012  0.00  0.00    +0.000 C 
BRANCH  13  15
ATOM     14  O   UNL     1       1.002   2.899  22.318  0.00  0.00    +0.000 OA
ATOM     15  C   UNL     1       1.830   2.595  21.473  0.00  0.00    +0.000 C 
BRANCH  15  16
ATOM     16  O   UNL     1       3.131   2.367  21.771  0.00  0.00    +0.000 OA
ATOM     17  H   UNL     1       3.532   3.117  22.258  0.00  0.00    +0.000 HD
ENDBRANCH  15  16
ENDBRANCH  13  15
ENDBRANCH   1  13
BRANCH   3  18
ATOM     18  C   UNL     1       3.109   7.058  20.035  0.00  0.00    +0.000 C 
BRANCH  18  19
ATOM     19  C   UNL     1       1.958   8.013  19.800  0.00  0.00    +0.000 A 
ATOM     20  C   UNL     1       1.594   8.496  18.534  0.00  0.00    +0.000 A 
ATOM     21  C   UNL     1       0.491   9.332  18.395  0.00  0.00    +0.000 A 
ATOM     22  F   UNL     1       0.151   9.770  17.175  0.00  0.00    +0.000 F 
ATOM     23  C   UNL     1      -0.257   9.704  19.506  0.00  0.00    +0.000 A 
ATOM     24  F   UNL     1      -1.328  10.496  19.363  0.00  0.00    +0.000 F 
ATOM     25  C   UNL     1       0.094   9.257  20.773  0.00  0.00    +0.000 A 
ATOM     26  C   UNL     1       1.197   8.419  20.907  0.00  0.00    +0.000 A 
ATOM     27  F   UNL     1       1.531   7.987  22.131  0.00  0.00    +0.000 F 
ENDBRANCH  18  19
ENDBRANCH   3  18
TORSDOF 5
ENDMDL
MODEL 9
REMARK VINA RESULT:      -6.7      3.272      5.226
REMARK  Name = 
REMARK  5 active torsions:
REMARK  status: ('A' for Active; 'I' for Inactive)
REMARK    1  A    between atoms: C_2  and  O_3
REMARK    2  A    between atoms: C_2  and  C_4
REMARK    3  A    between atoms: C_4  and  N_5
REMARK    4  A    between atoms: N_7  and  C_8
REMARK    5  A    between atoms: C_8  and  C_9
REMARK                            x       y       z     vdW  Elec       q    Type
REMARK                         _______ _______ _______ _____ _____    ______ ____
ROOT
ATOM      1  N   UNL     1       5.752   4.971  15.828  0.00  0.00    +0.000 NA
ATOM      2  C   UNL     1       4.922   3.825  16.230  0.00  0.00    +0.000 C 
ATOM      3  N   UNL     1       3.625   4.150  16.832  0.00  0.00    +0.000 N 
ATOM      4  C   UNL     1       3.312   5.381  17.390  0.00  0.00    +0.000 A 
ATOM      5  C   UNL     1       2.017   5.693  17.853  0.00  0.00    +0.000 A 
ATOM      6  C   UNL     1       1.677   6.956  18.359  0.00  0.00    +0.000 A 
ATOM      7  C   UNL     1       2.625   7.968  18.408  0.00  0.00    +0.000 A 
ATOM      8  C   UNL     1       3.915   7.701  17.978  0.00  0.00    +0.000 A 
ATOM      9  C   UNL     1       4.238   6.418  17.506  0.00  0.00    +0.000 A 
ATOM     10  S   UNL     1       5.898   6.083  17.090  0.00  0.00    +0.000 S 
ATOM     11  O   UNL     1       6.483   7.273  16.505  0.00  0.00    +0.000 OA
ATOM     12  O   UNL     1       6.525   5.412  18.207  0.00  0.00    +0.000 OA
ENDROOT
BRANCH   1  13
ATOM     13  C   UNL     1       7.118   4.528  15.397  0.00  0.00    +0.000 C 
BRANCH  13  15
ATOM     14  O   UNL     1       8.211   5.690  13.586  0.00  0.00    +0.000 OA
ATOM     15  C   UNL     1       7.403   4.848  13.952  0.00  0.00    +0.000 C 
BRANCH  15  16
ATOM     16  O   UNL     1       6.690   4.091  13.085  0.00  0.00    +0.000 OA
ATOM     17  H   UNL     1       5.816   4.487  12.887  0.00  0.00    +0.000 HD
ENDBRANCH  15  16
ENDBRANCH  13  15
ENDBRANCH   1  13
BRANCH   3  18
ATOM     18  C   UNL     1       2.771   2.979  17.091  0.00  0.00    +0.000 C 
BRANCH  18  19
ATOM     19  C   UNL     1       2.470   2.769  18.559  0.00  0.00    +0.000 A 
ATOM     20  C   UNL     1       3.448   2.470  19.519  0.00  0.00    +0.000 A 
ATOM     21  C   UNL     1       3.097   2.340  20.859  0.00  0.00    +0.000 A 
ATOM     22  F   UNL     1       4.049   2.069  21.762  0.00  0.00    +0.000 F 
ATOM     23  C   UNL     1       1.775   2.499  21.261  0.00  0.00    +0.000 A 
ATOM     24  F   UNL     1       1.447   2.390  22.555  0.00  0.00    +0.000 F 
ATOM     25  C   UNL     1       0.785   2.775  20.328  0.00  0.00    +0.000 A 
ATOM     26  C   UNL     1       1.141   2.905  18.989  0.00  0.00    +0.000 A 
ATOM     27  F   UNL     1       0.182   3.174  18.092  0.00  0.00    +0.000 F 
ENDBRANCH  18  19
ENDBRANCH   3  18
TORSDOF 5
ENDMDL
