MODEL 1
REMARK VINA RESULT:      -6.8      0.000      0.000
REMARK  Name = 
REMARK  9 active torsions:
REMARK  status: ('A' for Active; 'I' for Inactive)
REMARK    1  A    between atoms: C_1  and  C_2
REMARK    2  A    between atoms: C_2  and  C_3
REMARK    3  A    between atoms: C_3  and  N_4
REMARK    4  A    between atoms: C_5  and  C_7
REMARK    5  A    between atoms: C_7  and  C_8
REMARK    6  A    between atoms: C_7  and  C_9
REMARK    7  A    between atoms: C_7  and  C_10
REMARK    8  A    between atoms: C_10  and  O_11
REMARK    9  A    between atoms: C_10  and  C_12
REMARK                            x       y       z     vdW  Elec       q    Type
REMARK                         _______ _______ _______ _____ _____    ______ ____
ROOT
ATOM      1  C   UNL     1       6.906   6.204  17.794  0.00  0.00    +0.000 C 
ATOM      2  C   UNL     1       7.684   5.709  19.026  0.00  0.00    +0.000 C 
ATOM      3  C   UNL     1       7.397   7.612  17.393  0.00  0.00    +0.000 C 
ENDROOT
BRANCH   1   5
ATOM      4  N   UNL     1       6.819   5.630  15.383  0.00  0.00    +0.000 N 
ATOM      5  C   UNL     1       7.295   5.270  16.616  0.00  0.00    +0.000 C 
ATOM      6  O   UNL     1       7.905   4.218  16.790  0.00  0.00    +0.000 OA
ATOM      7  H   UNL     1       6.300   6.502  15.299  0.00  0.00    +0.000 HD
BRANCH   4   8
ATOM      8  C   UNL     1       6.982   4.823  14.193  0.00  0.00    +0.000 C 
BRANCH   8  10
ATOM      9  C   UNL     1       5.734   3.406  12.503  0.00  0.00    +0.000 C 
ATOM     10  C   UNL     1       5.746   3.975  13.915  0.00  0.00    +0.000 C 
ENDBRANCH   8  10
ENDBRANCH   4   8
ENDBRANCH   1   5
BRANCH   1  11
ATOM     11  C   UNL     1       5.358   6.201  18.032  0.00  0.00    +0.000 C 
BRANCH  11  12
ATOM     12  C   UNL     1       4.680   4.838  18.145  0.00  0.00    +0.000 A 
ATOM     13  C   UNL     1       4.860   4.079  19.316  0.00  0.00    +0.000 A 
ATOM     14  C   UNL     1       4.260   2.827  19.467  0.00  0.00    +0.000 A 
ATOM     15  C   UNL     1       3.449   2.317  18.457  0.00  0.00    +0.000 A 
ATOM     16  C   UNL     1       3.247   3.052  17.292  0.00  0.00    +0.000 A 
ATOM     17  C   UNL     1       3.863   4.299  17.136  0.00  0.00    +0.000 A 
ENDBRANCH  11  12
BRANCH  11  18
ATOM     18  O   UNL     1       4.685   6.974  17.017  0.00  0.00    +0.000 OA
ATOM     19  H   UNL     1       4.980   6.656  16.148  0.00  0.00    +0.000 HD
ENDBRANCH  11  18
ENDBRANCH   1  11
TORSDOF 6
ENDMDL
MODEL 2
REMARK VINA RESULT:      -6.7      1.961      2.664
REMARK  Name = 
REMARK  9 active torsions:
REMARK  status: ('A' for Active; 'I' for Inactive)
REMARK    1  A    between atoms: C_1  and  C_2
REMARK    2  A    between atoms: C_2  and  C_3
REMARK    3  A    between atoms: C_3  and  N_4
REMARK    4  A    between atoms: C_5  and  C_7
REMARK    5  A    between atoms: C_7  and  C_8
REMARK    6  A    between atoms: C_7  and  C_9
REMARK    7  A    between atoms: C_7  and  C_10
REMARK    8  A    between atoms: C_10  and  O_11
REMARK    9  A    between atoms: C_10  and  C_12
REMARK                            x       y       z     vdW  Elec       q    Type
REMARK                         _______ _______ _______ _____ _____    ______ ____
ROOT
ATOM      1  C   UNL     1       4.940   5.074  17.829  0.00  0.00    +0.000 C 
ATOM      2  C   UNL     1       5.577   5.265  19.217  0.00  0.00    +0.000 C 
ATOM      3  C   UNL     1       4.286   6.395  17.366  0.00  0.00    +0.000 C 
ENDROOT
BRANCH   1   5
ATOM      4  N   UNL     1       5.791   4.900  15.506  0.00  0.00    +0.000 N 
ATOM      5  C   UNL     1       6.104   4.810  16.837  0.00  0.00    +0.000 C 
ATOM      6  O   UNL     1       7.213   4.441  17.214  0.00  0.00    +0.000 OA
ATOM      7  H   UNL     1       4.848   5.189  15.248  0.00  0.00    +0.000 HD
BRANCH   4   8
ATOM      8  C   UNL     1       6.713   4.575  14.440  0.00  0.00    +0.000 C 
BRANCH   8  10
ATOM      9  C   UNL     1       6.843   3.722  12.057  0.00  0.00    +0.000 C 
ATOM     10  C   UNL     1       6.045   3.738  13.354  0.00  0.00    +0.000 C 
ENDBRANCH   8  10
ENDBRANCH   4   8
ENDBRANCH   1   5
BRANCH   1  11
ATOM     11  C   UNL     1       3.901   3.904  17.810  0.00  0.00    +0.000 C 
BRANCH  11  12
ATOM     12  C   UNL     1       3.088   3.681  19.083  0.00  0.00    +0.000 A 
ATOM     13  C   UNL     1       1.880   4.383  19.254  0.00  0.00    +0.000 A 
ATOM     14  C   UNL     1       1.100   4.215  20.400  0.00  0.00    +0.000 A 
ATOM     15  C   UNL     1       1.502   3.323  21.392  0.00  0.00    +0.000 A 
ATOM     16  C   UNL     1       2.688   2.610  21.242  0.00  0.00    +0.000 A 
ATOM     17  C   UNL     1       3.477   2.793  20.100  0.00  0.00    +0.000 A 
ENDBRANCH  11  12
BRANCH  11  18
ATOM     18  O   UNL     1       4.538   2.662  17.443  0.00  0.00    +0.000 OA
ATOM     19  H   UNL     1       4.481   2.057  18.200  0.00  0.00    +0.000 HD
ENDBRANCH  11  18
ENDBRANCH   1  11
TORSDOF 6
ENDMDL
MODEL 3
REMARK VINA RESULT:      -6.7      1.428      1.643
REMARK  Name = 
REMARK  9 active torsions:
REMARK  status: ('A' for Active; 'I' for Inactive)
REMARK    1  A    between atoms: C_1  and  C_2
REMARK    2  A    between atoms: C_2  and  C_3
REMARK    3  A    between atoms: C_3  and  N_4
REMARK    4  A    between atoms: C_5  and  C_7
REMARK    5  A    between atoms: C_7  and  C_8
REMARK    6  A    between atoms: C_7  and  C_9
REMARK    7  A    between atoms: C_7  and  C_10
REMARK    8  A    between atoms: C_10  and  O_11
REMARK    9  A    between atoms: C_10  and  C_12
REMARK                            x       y       z     vdW  Elec       q    Type
REMARK                         _______ _______ _______ _____ _____    ______ ____
ROOT
ATOM      1  C   UNL     1       6.378   6.010  17.343  0.00  0.00    +0.000 C 
ATOM      2  C   UNL     1       7.435   6.965  17.923  0.00  0.00    +0.000 C 
ATOM      3  C   UNL     1       5.235   6.823  16.694  0.00  0.00    +0.000 C 
ENDROOT
BRANCH   1   5
ATOM      4  N   UNL     1       6.558   5.479  14.927  0.00  0.00    +0.000 N 
ATOM      5  C   UNL     1       7.062   5.242  16.179  0.00  0.00    +0.000 C 
ATOM      6  O   UNL     1       7.931   4.398  16.375  0.00  0.00    +0.000 OA
ATOM      7  H   UNL     1       5.821   6.174  14.823  0.00  0.00    +0.000 HD
BRANCH   4   8
ATOM      8  C   UNL     1       6.990   4.771  13.741  0.00  0.00    +0.000 C 
BRANCH   8  10
ATOM      9  C   UNL     1       6.273   3.116  11.961  0.00  0.00    +0.000 C 
ATOM     10  C   UNL     1       6.005   3.673  13.352  0.00  0.00    +0.000 C 
ENDBRANCH   8  10
ENDBRANCH   4   8
ENDBRANCH   1   5
BRANCH   1  11
ATOM     11  C   UNL     1       5.816   5.024  18.420  0.00  0.00    +0.000 C 
BRANCH  11  12
ATOM     12  C   UNL     1       4.339   4.651  18.311  0.00  0.00    +0.000 A 
ATOM     13  C   UNL     1       3.405   5.309  19.133  0.00  0.00    +0.000 A 
ATOM     14  C   UNL     1       2.043   5.004  19.071  0.00  0.00    +0.000 A 
ATOM     15  C   UNL     1       1.585   4.048  18.169  0.00  0.00    +0.000 A 
ATOM     16  C   UNL     1       2.487   3.390  17.338  0.00  0.00    +0.000 A 
ATOM     17  C   UNL     1       3.853   3.684  17.414  0.00  0.00    +0.000 A 
ENDBRANCH  11  12
BRANCH  11  18
ATOM     18  O   UNL     1       6.073   5.520  19.750  0.00  0.00    +0.000 OA
ATOM     19  H   UNL     1       6.814   5.016  20.124  0.00  0.00    +0.000 HD
ENDBRANCH  11  18
ENDBRANCH   1  11
TORSDOF 6
ENDMDL
MODEL 4
REMARK VINA RESULT:      -6.7      1.952      2.467
REMARK  Name = 
REMARK  9 active torsions:
REMARK  status: ('A' for Active; 'I' for Inactive)
REMARK    1  A    between atoms: C_1  and  C_2
REMARK    2  A    between atoms: C_2  and  C_3
REMARK    3  A    between atoms: C_3  and  N_4
REMARK    4  A    between atoms: C_5  and  C_7
REMARK    5  A    between atoms: C_7  and  C_8
REMARK    6  A    between atoms: C_7  and  C_9
REMARK    7  A    between atoms: C_7  and  C_10
REMARK    8  A    between atoms: C_10  and  O_11
REMARK    9  A    between atoms: C_10  and  C_12
REMARK                            x       y       z     vdW  Elec       q    Type
REMARK                         _______ _______ _______ _____ _____    ______ ____
ROOT
ATOM      1  C   UNL     1       4.940   5.120  17.798  0.00  0.00    +0.000 C 
ATOM      2  C   UNL     1       5.591   5.275  19.184  0.00  0.00    +0.000 C 
ATOM      3  C   UNL     1       4.303   6.458  17.364  0.00  0.00    +0.000 C 
ENDROOT
BRANCH   1   5
ATOM      4  N   UNL     1       5.798   5.073  15.472  0.00  0.00    +0.000 N 
ATOM      5  C   UNL     1       6.093   4.855  16.792  0.00  0.00    +0.000 C 
ATOM      6  O   UNL     1       7.170   4.381  17.142  0.00  0.00    +0.000 OA
ATOM      7  H   UNL     1       4.880   5.447  15.235  0.00  0.00    +0.000 HD
BRANCH   4   8
ATOM      8  C   UNL     1       6.705   4.771  14.386  0.00  0.00    +0.000 C 
BRANCH   8  10
ATOM      9  C   UNL     1       6.819   3.718  12.084  0.00  0.00    +0.000 C 
ATOM     10  C   UNL     1       6.120   3.732  13.437  0.00  0.00    +0.000 C 
ENDBRANCH   8  10
ENDBRANCH   4   8
ENDBRANCH   1   5
BRANCH   1  11
ATOM     11  C   UNL     1       3.883   3.965  17.767  0.00  0.00    +0.000 C 
BRANCH  11  12
ATOM     12  C   UNL     1       3.047   3.761  19.029  0.00  0.00    +0.000 A 
ATOM     13  C   UNL     1       3.473   2.822  19.987  0.00  0.00    +0.000 A 
ATOM     14  C   UNL     1       2.744   2.599  21.157  0.00  0.00    +0.000 A 
ATOM     15  C   UNL     1       1.582   3.326  21.402  0.00  0.00    +0.000 A 
ATOM     16  C   UNL     1       1.145   4.267  20.475  0.00  0.00    +0.000 A 
ATOM     17  C   UNL     1       1.868   4.477  19.295  0.00  0.00    +0.000 A 
ENDBRANCH  11  12
BRANCH  11  18
ATOM     18  O   UNL     1       4.506   2.713  17.414  0.00  0.00    +0.000 OA
ATOM     19  H   UNL     1       5.221   2.540  18.049  0.00  0.00    +0.000 HD
ENDBRANCH  11  18
ENDBRANCH   1  11
TORSDOF 6
ENDMDL
MODEL 5
REMARK VINA RESULT:      -6.5      1.931      2.567
REMARK  Name = 
REMARK  9 active torsions:
REMARK  status: ('A' for Active; 'I' for Inactive)
REMARK    1  A    between atoms: C_1  and  C_2
REMARK    2  A    between atoms: C_2  and  C_3
REMARK    3  A    between atoms: C_3  and  N_4
REMARK    4  A    between atoms: C_5  and  C_7
REMARK    5  A    between atoms: C_7  and  C_8
REMARK    6  A    between atoms: C_7  and  C_9
REMARK    7  A    between atoms: C_7  and  C_10
REMARK    8  A    between atoms: C_10  and  O_11
REMARK    9  A    between atoms: C_10  and  C_12
REMARK                            x       y       z     vdW  Elec       q    Type
REMARK                         _______ _______ _______ _____ _____    ______ ____
ROOT
ATOM      1  C   UNL     1       4.886   5.305  17.811  0.00  0.00    +0.000 C 
ATOM      2  C   UNL     1       5.906   5.898  18.798  0.00  0.00    +0.000 C 
ATOM      3  C   UNL     1       3.627   6.199  17.756  0.00  0.00    +0.000 C 
ENDROOT
BRANCH   1   5
ATOM      4  N   UNL     1       5.894   4.205  15.830  0.00  0.00    +0.000 N 
ATOM      5  C   UNL     1       5.528   5.396  16.399  0.00  0.00    +0.000 C 
ATOM      6  O   UNL     1       5.788   6.471  15.867  0.00  0.00    +0.000 OA
ATOM      7  H   UNL     1       5.675   3.341  16.326  0.00  0.00    +0.000 HD
BRANCH   4   8
ATOM      8  C   UNL     1       6.608   4.100  14.577  0.00  0.00    +0.000 C 
BRANCH   8  10
ATOM      9  C   UNL     1       6.395   3.379  12.156  0.00  0.00    +0.000 C 
ATOM     10  C   UNL     1       5.662   3.833  13.411  0.00  0.00    +0.000 C 
ENDBRANCH   8  10
ENDBRANCH   4   8
ENDBRANCH   1   5
BRANCH   1  11
ATOM     11  C   UNL     1       4.505   3.829  18.167  0.00  0.00    +0.000 C 
BRANCH  11  12
ATOM     12  C   UNL     1       3.168   3.613  18.873  0.00  0.00    +0.000 A 
ATOM     13  C   UNL     1       2.997   4.107  20.180  0.00  0.00    +0.000 A 
ATOM     14  C   UNL     1       1.794   3.936  20.868  0.00  0.00    +0.000 A 
ATOM     15  C   UNL     1       0.728   3.282  20.254  0.00  0.00    +0.000 A 
ATOM     16  C   UNL     1       0.869   2.792  18.959  0.00  0.00    +0.000 A 
ATOM     17  C   UNL     1       2.082   2.950  18.278  0.00  0.00    +0.000 A 
ENDBRANCH  11  12
BRANCH  11  18
ATOM     18  O   UNL     1       5.548   3.207  18.946  0.00  0.00    +0.000 OA
ATOM     19  H   UNL     1       5.251   2.316  19.194  0.00  0.00    +0.000 HD
ENDBRANCH  11  18
ENDBRANCH   1  11
TORSDOF 6
ENDMDL
MODEL 6
REMARK VINA RESULT:      -6.5      1.117      1.120
REMARK  Name = 
REMARK  9 active torsions:
REMARK  status: ('A' for Active; 'I' for Inactive)
REMARK    1  A    between atoms: C_1  and  C_2
REMARK    2  A    between atoms: C_2  and  C_3
REMARK    3  A    between atoms: C_3  and  N_4
REMARK    4  A    between atoms: C_5  and  C_7
REMARK    5  A    between atoms: C_7  and  C_8
REMARK    6  A    between atoms: C_7  and  C_9
REMARK    7  A    between atoms: C_7  and  C_10
REMARK    8  A    between atoms: C_10  and  O_11
REMARK    9  A    between atoms: C_10  and  C_12
REMARK                            x       y       z     vdW  Elec       q    Type
REMARK                         _______ _______ _______ _____ _____    ______ ____
ROOT
ATOM      1  C   UNL     1       6.642   5.820  17.443  0.00  0.00    +0.000 C 
ATOM      2  C   UNL     1       7.572   4.650  17.812  0.00  0.00    +0.000 C 
ATOM      3  C   UNL     1       7.383   7.161  17.637  0.00  0.00    +0.000 C 
ENDROOT
BRANCH   1   5
ATOM      4  N   UNL     1       7.143   4.806  15.235  0.00  0.00    +0.000 N 
ATOM      5  C   UNL     1       6.369   5.707  15.918  0.00  0.00    +0.000 C 
ATOM      6  O   UNL     1       5.581   6.450  15.339  0.00  0.00    +0.000 OA
ATOM      7  H   UNL     1       7.798   4.230  15.763  0.00  0.00    +0.000 HD
BRANCH   4   8
ATOM      8  C   UNL     1       7.111   4.647  13.798  0.00  0.00    +0.000 C 
BRANCH   8  10
ATOM      9  C   UNL     1       6.190   3.172  11.954  0.00  0.00    +0.000 C 
ATOM     10  C   UNL     1       5.982   3.720  13.359  0.00  0.00    +0.000 C 
ENDBRANCH   8  10
ENDBRANCH   4   8
ENDBRANCH   1   5
BRANCH   1  11
ATOM     11  C   UNL     1       5.308   5.797  18.262  0.00  0.00    +0.000 C 
BRANCH  11  12
ATOM     12  C   UNL     1       4.529   4.483  18.275  0.00  0.00    +0.000 A 
ATOM     13  C   UNL     1       4.728   3.581  19.336  0.00  0.00    +0.000 A 
ATOM     14  C   UNL     1       4.039   2.367  19.394  0.00  0.00    +0.000 A 
ATOM     15  C   UNL     1       3.120   2.041  18.400  0.00  0.00    +0.000 A 
ATOM     16  C   UNL     1       2.898   2.921  17.345  0.00  0.00    +0.000 A 
ATOM     17  C   UNL     1       3.602   4.129  17.280  0.00  0.00    +0.000 A 
ENDBRANCH  11  12
BRANCH  11  18
ATOM     18  O   UNL     1       4.428   6.855  17.833  0.00  0.00    +0.000 OA
ATOM     19  H   UNL     1       4.634   7.066  16.907  0.00  0.00    +0.000 HD
ENDBRANCH  11  18
ENDBRANCH   1  11
TORSDOF 6
ENDMDL
MODEL 7
REMARK VINA RESULT:      -6.5      1.109      1.602
REMARK  Name = 
REMARK  9 active torsions:
REMARK  status: ('A' for Active; 'I' for Inactive)
REMARK    1  A    between atoms: C_1  and  C_2
REMARK    2  A    between atoms: C_2  and  C_3
REMARK    3  A    between atoms: C_3  and  N_4
REMARK    4  A    between atoms: C_5  and  C_7
REMARK    5  A    between atoms: C_7  and  C_8
REMARK    6  A    between atoms: C_7  and  C_9
REMARK    7  A    between atoms: C_7  and  C_10
REMARK    8  A    between atoms: C_10  and  O_11
REMARK    9  A    between atoms: C_10  and  C_12
REMARK                            x       y       z     vdW  Elec       q    Type
REMARK                         _______ _______ _______ _____ _____    ______ ____
ROOT
ATOM      1  C   UNL     1       6.674   5.826  17.463  0.00  0.00    +0.000 C 
ATOM      2  C   UNL     1       7.594   4.650  17.832  0.00  0.00    +0.000 C 
ATOM      3  C   UNL     1       7.426   7.162  17.655  0.00  0.00    +0.000 C 
ENDROOT
BRANCH   1   5
ATOM      4  N   UNL     1       7.145   4.789  15.260  0.00  0.00    +0.000 N 
ATOM      5  C   UNL     1       6.396   5.714  15.940  0.00  0.00    +0.000 C 
ATOM      6  O   UNL     1       5.629   6.476  15.357  0.00  0.00    +0.000 OA
ATOM      7  H   UNL     1       7.783   4.198  15.790  0.00  0.00    +0.000 HD
BRANCH   4   8
ATOM      8  C   UNL     1       7.107   4.625  13.824  0.00  0.00    +0.000 C 
BRANCH   8  10
ATOM      9  C   UNL     1       6.107   3.237  11.954  0.00  0.00    +0.000 C 
ATOM     10  C   UNL     1       5.961   3.716  13.391  0.00  0.00    +0.000 C 
ENDBRANCH   8  10
ENDBRANCH   4   8
ENDBRANCH   1   5
BRANCH   1  11
ATOM     11  C   UNL     1       5.341   5.816  18.285  0.00  0.00    +0.000 C 
BRANCH  11  12
ATOM     12  C   UNL     1       4.564   4.502  18.322  0.00  0.00    +0.000 A 
ATOM     13  C   UNL     1       3.638   4.227  17.299  0.00  0.00    +0.000 A 
ATOM     14  C   UNL     1       2.902   3.040  17.288  0.00  0.00    +0.000 A 
ATOM     15  C   UNL     1       3.094   2.093  18.291  0.00  0.00    +0.000 A 
ATOM     16  C   UNL     1       4.011   2.337  19.309  0.00  0.00    +0.000 A 
ATOM     17  C   UNL     1       4.734   3.535  19.327  0.00  0.00    +0.000 A 
ENDBRANCH  11  12
BRANCH  11  18
ATOM     18  O   UNL     1       4.459   6.866  17.840  0.00  0.00    +0.000 OA
ATOM     19  H   UNL     1       4.941   7.708  17.885  0.00  0.00    +0.000 HD
ENDBRANCH  11  18
ENDBRANCH   1  11
TORSDOF 6
ENDMDL
MODEL 8
REMARK VINA RESULT:      -6.5      2.212      4.111
REMARK  Name = 
REMARK  9 active torsions:
REMARK  status: ('A' for Active; 'I' for Inactive)
REMARK    1  A    between atoms: C_1  and  C_2
REMARK    2  A    between atoms: C_2  and  C_3
REMARK    3  A    between atoms: C_3  and  N_4
REMARK    4  A    between atoms: C_5  and  C_7
REMARK    5  A    between atoms: C_7  and  C_8
REMARK    6  A    between atoms: C_7  and  C_9
REMARK    7  A    between atoms: C_7  and  C_10
REMARK    8  A    between atoms: C_10  and  O_11
REMARK    9  A    between atoms: C_10  and  C_12
REMARK                            x       y       z     vdW  Elec       q    Type
REMARK                         _______ _______ _______ _____ _____    ______ ____
ROOT
ATOM      1  C   UNL     1       4.805   4.804  17.637  0.00  0.00    +0.000 C 
ATOM      2  C   UNL     1       3.565   5.710  17.542  0.00  0.00    +0.000 C 
ATOM      3  C   UNL     1       5.409   4.591  16.230  0.00  0.00    +0.000 C 
ENDROOT
BRANCH   1   5
ATOM      4  N   UNL     1       6.723   6.376  17.699  0.00  0.00    +0.000 N 
ATOM      5  C   UNL     1       5.875   5.594  18.439  0.00  0.00    +0.000 C 
ATOM      6  O   UNL     1       6.022   5.451  19.649  0.00  0.00    +0.000 OA
ATOM      7  H   UNL     1       6.570   6.442  16.693  0.00  0.00    +0.000 HD
BRANCH   4   8
ATOM      8  C   UNL     1       7.849   7.090  18.258  0.00  0.00    +0.000 C 
BRANCH   8  10
ATOM      9  C   UNL     1       8.741   9.438  18.599  0.00  0.00    +0.000 C 
ATOM     10  C   UNL     1       7.959   8.501  17.689  0.00  0.00    +0.000 C 
ENDBRANCH   8  10
ENDBRANCH   4   8
ENDBRANCH   1   5
BRANCH   1  11
ATOM     11  C   UNL     1       4.485   3.431  18.318  0.00  0.00    +0.000 C 
BRANCH  11  12
ATOM     12  C   UNL     1       3.141   3.313  19.033  0.00  0.00    +0.000 A 
ATOM     13  C   UNL     1       3.024   3.788  20.352  0.00  0.00    +0.000 A 
ATOM     14  C   UNL     1       1.816   3.703  21.048  0.00  0.00    +0.000 A 
ATOM     15  C   UNL     1       0.693   3.158  20.431  0.00  0.00    +0.000 A 
ATOM     16  C   UNL     1       0.781   2.690  19.123  0.00  0.00    +0.000 A 
ATOM     17  C   UNL     1       1.996   2.760  18.433  0.00  0.00    +0.000 A 
ENDBRANCH  11  12
BRANCH  11  18
ATOM     18  O   UNL     1       5.534   3.060  19.236  0.00  0.00    +0.000 OA
ATOM     19  H   UNL     1       6.091   3.840  19.392  0.00  0.00    +0.000 HD
ENDBRANCH  11  18
ENDBRANCH   1  11
TORSDOF 6
ENDMDL
MODEL 9
REMARK VINA RESULT:      -6.4      1.910      2.615
REMARK  Name = 
REMARK  9 active torsions:
REMARK  status: ('A' for Active; 'I' for Inactive)
REMARK    1  A    between atoms: C_1  and  C_2
REMARK    2  A    between atoms: C_2  and  C_3
REMARK    3  A    between atoms: C_3  and  N_4
REMARK    4  A    between atoms: C_5  and  C_7
REMARK    5  A    between atoms: C_7  and  C_8
REMARK    6  A    between atoms: C_7  and  C_9
REMARK    7  A    between atoms: C_7  and  C_10
REMARK    8  A    between atoms: C_10  and  O_11
REMARK    9  A    between atoms: C_10  and  C_12
REMARK                            x       y       z     vdW  Elec       q    Type
REMARK                         _______ _______ _______ _____ _____    ______ ____
ROOT
ATOM      1  C   UNL     1       4.847   5.041  17.363  0.00  0.00    +0.000 C 
ATOM      2  C   UNL     1       6.126   4.838  18.194  0.00  0.00    +0.000 C 
ATOM      3  C   UNL     1       4.087   6.289  17.865  0.00  0.00    +0.000 C 
ENDROOT
BRANCH   1   5
ATOM      4  N   UNL     1       5.869   4.352  15.211  0.00  0.00    +0.000 N 
ATOM      5  C   UNL     1       5.304   5.381  15.918  0.00  0.00    +0.000 C 
ATOM      6  O   UNL     1       5.259   6.523  15.469  0.00  0.00    +0.000 OA
ATOM      7  H   UNL     1       5.902   3.428  15.639  0.00  0.00    +0.000 HD
BRANCH   4   8
ATOM      8  C   UNL     1       6.456   4.508  13.898  0.00  0.00    +0.000 C 
BRANCH   8  10
ATOM      9  C   UNL     1       4.927   3.557  12.114  0.00  0.00    +0.000 C 
ATOM     10  C   UNL     1       6.144   3.318  12.997  0.00  0.00    +0.000 C 
ENDBRANCH   8  10
ENDBRANCH   4   8
ENDBRANCH   1   5
BRANCH   1  11
ATOM     11  C   UNL     1       3.920   3.780  17.383  0.00  0.00    +0.000 C 
BRANCH  11  12
ATOM     12  C   UNL     1       3.032   3.595  18.611  0.00  0.00    +0.000 A 
ATOM     13  C   UNL     1       3.576   2.999  19.765  0.00  0.00    +0.000 A 
ATOM     14  C   UNL     1       2.805   2.808  20.914  0.00  0.00    +0.000 A 
ATOM     15  C   UNL     1       1.478   3.230  20.940  0.00  0.00    +0.000 A 
ATOM     16  C   UNL     1       0.920   3.832  19.815  0.00  0.00    +0.000 A 
ATOM     17  C   UNL     1       1.689   4.006  18.659  0.00  0.00    +0.000 A 
ENDBRANCH  11  12
BRANCH  11  18
ATOM     18  O   UNL     1       4.691   2.577  17.182  0.00  0.00    +0.000 OA
ATOM     19  H   UNL     1       4.410   1.922  17.842  0.00  0.00    +0.000 HD
ENDBRANCH  11  18
ENDBRANCH   1  11
TORSDOF 6
ENDMDL
