MODEL 1
REMARK VINA RESULT:      -7.5      0.000      0.000
REMARK  Name = 
REMARK  5 active torsions:
REMARK  status: ('A' for Active; 'I' for Inactive)
REMARK    1  A    between atoms: N_1  and  C_2
REMARK    2  A    between atoms: C_4  and  C_5
REMARK    3  A    between atoms: C_8  and  C_9
REMARK    4  A    between atoms: C_9  and  O_10
REMARK    5  A    between atoms: C_16  and  C_17
REMARK                            x       y       z     vdW  Elec       q    Type
REMARK                         _______ _______ _______ _____ _____    ______ ____
ROOT
ATOM      1  C   UNL     1       1.274   9.565  19.088  0.00  0.00    +0.000 A 
ATOM      2  N   UNL     1       1.839   8.337  19.007  0.00  0.00    +0.000 NA
ATOM      3  C   UNL     1       1.760   7.496  20.062  0.00  0.00    +0.000 A 
ATOM      4  N   UNL     1       1.139   7.753  21.219  0.00  0.00    +0.000 NA
ATOM      5  C   UNL     1       0.595   8.969  21.263  0.00  0.00    +0.000 A 
ATOM      6  S   UNL     1      -0.227   9.516  22.637  0.00  0.00    +0.000 S 
ATOM      7  C   UNL     1      -0.463  11.034  21.867  0.00  0.00    +0.000 A 
ATOM      8  N   UNL     1      -0.048  11.125  20.614  0.00  0.00    +0.000 NA
ATOM      9  C   UNL     1       0.604   9.934  20.271  0.00  0.00    +0.000 A 
ENDROOT
BRANCH   3  10
ATOM     10  C   UNL     1       2.367   6.154  19.943  0.00  0.00    +0.000 A 
ATOM     11  C   UNL     1       3.501   5.914  19.150  0.00  0.00    +0.000 A 
ATOM     12  C   UNL     1       4.033   4.625  19.013  0.00  0.00    +0.000 A 
ATOM     13  C   UNL     1       3.452   3.534  19.672  0.00  0.00    +0.000 A 
ATOM     14  C   UNL     1       2.328   3.757  20.470  0.00  0.00    +0.000 A 
ATOM     15  C   UNL     1       1.806   5.046  20.610  0.00  0.00    +0.000 A 
BRANCH  13  16
ATOM     16  C   UNL     1       3.982   2.142  19.440  0.00  0.00    +0.000 C 
BRANCH  16  17
ATOM     17  O   UNL     1       5.240   1.937  20.071  0.00  0.00    +0.000 OA
ATOM     18  H   UNL     1       5.074   1.941  21.028  0.00  0.00    +0.000 HD
ENDBRANCH  16  17
ENDBRANCH  13  16
ENDBRANCH   3  10
BRANCH   7  19
ATOM     19  C   UNL     1      -1.032  12.121  22.616  0.00  0.00    +0.000 A 
ATOM     20  C   UNL     1      -2.331  12.307  23.062  0.00  0.00    +0.000 A 
ATOM     21  C   UNL     1      -2.390  13.586  23.671  0.00  0.00    +0.000 A 
ATOM     22  C   UNL     1      -1.122  14.107  23.587  0.00  0.00    +0.000 A 
ATOM     23  O   UNL     1      -0.297  13.231  22.970  0.00  0.00    +0.000 OA
ENDBRANCH   7  19
BRANCH   1  24
ATOM     24  N   UNL     1       1.389  10.392  17.975  0.00  0.00    +0.000 N 
ATOM     25  H   UNL     1       2.337  10.723  17.843  0.00  0.00    +0.000 HD
ATOM     26  H   UNL     1       0.888  10.069  17.157  0.00  0.00    +0.000 HD
ENDBRANCH   1  24
TORSDOF 5
ENDMDL
MODEL 2
REMARK VINA RESULT:      -7.3      0.426      1.088
REMARK  Name = 
REMARK  5 active torsions:
REMARK  status: ('A' for Active; 'I' for Inactive)
REMARK    1  A    between atoms: N_1  and  C_2
REMARK    2  A    between atoms: C_4  and  C_5
REMARK    3  A    between atoms: C_8  and  C_9
REMARK    4  A    between atoms: C_9  and  O_10
REMARK    5  A    between atoms: C_16  and  C_17
REMARK                            x       y       z     vdW  Elec       q    Type
REMARK                         _______ _______ _______ _____ _____    ______ ____
ROOT
ATOM      1  C   UNL     1       1.269   9.587  19.138  0.00  0.00    +0.000 A 
ATOM      2  N   UNL     1       1.840   8.362  19.058  0.00  0.00    +0.000 NA
ATOM      3  C   UNL     1       1.751   7.514  20.108  0.00  0.00    +0.000 A 
ATOM      4  N   UNL     1       1.115   7.764  21.258  0.00  0.00    +0.000 NA
ATOM      5  C   UNL     1       0.566   8.978  21.303  0.00  0.00    +0.000 A 
ATOM      6  S   UNL     1      -0.274   9.515  22.669  0.00  0.00    +0.000 S 
ATOM      7  C   UNL     1      -0.506  11.036  21.903  0.00  0.00    +0.000 A 
ATOM      8  N   UNL     1      -0.077  11.134  20.656  0.00  0.00    +0.000 NA
ATOM      9  C   UNL     1       0.584   9.948  20.316  0.00  0.00    +0.000 A 
ENDROOT
BRANCH   3  10
ATOM     10  C   UNL     1       2.365   6.175  19.989  0.00  0.00    +0.000 A 
ATOM     11  C   UNL     1       1.828   5.047  20.630  0.00  0.00    +0.000 A 
ATOM     12  C   UNL     1       2.452   3.796  20.544  0.00  0.00    +0.000 A 
ATOM     13  C   UNL     1       3.631   3.630  19.806  0.00  0.00    +0.000 A 
ATOM     14  C   UNL     1       4.175   4.741  19.156  0.00  0.00    +0.000 A 
ATOM     15  C   UNL     1       3.544   5.986  19.239  0.00  0.00    +0.000 A 
BRANCH  13  16
ATOM     16  C   UNL     1       4.338   2.299  19.800  0.00  0.00    +0.000 C 
BRANCH  16  17
ATOM     17  O   UNL     1       4.028   1.535  18.641  0.00  0.00    +0.000 OA
ATOM     18  H   UNL     1       3.688   0.680  18.955  0.00  0.00    +0.000 HD
ENDBRANCH  16  17
ENDBRANCH  13  16
ENDBRANCH   3  10
BRANCH   7  19
ATOM     19  C   UNL     1      -1.087  12.117  22.651  0.00  0.00    +0.000 A 
ATOM     20  C   UNL     1      -2.401  12.316  23.048  0.00  0.00    +0.000 A 
ATOM     21  C   UNL     1      -2.464  13.584  23.680  0.00  0.00    +0.000 A 
ATOM     22  C   UNL     1      -1.185  14.084  23.659  0.00  0.00    +0.000 A 
ATOM     23  O   UNL     1      -0.350  13.207  23.058  0.00  0.00    +0.000 OA
ENDBRANCH   7  19
BRANCH   1  24
ATOM     24  N   UNL     1       1.394  10.419  18.031  0.00  0.00    +0.000 N 
ATOM     25  H   UNL     1       1.427  11.397  18.290  0.00  0.00    +0.000 HD
ATOM     26  H   UNL     1       2.055  10.097  17.335  0.00  0.00    +0.000 HD
ENDBRANCH   1  24
TORSDOF 5
ENDMDL
MODEL 3
REMARK VINA RESULT:      -7.3      2.736      8.786
REMARK  Name = 
REMARK  5 active torsions:
REMARK  status: ('A' for Active; 'I' for Inactive)
REMARK    1  A    between atoms: N_1  and  C_2
REMARK    2  A    between atoms: C_4  and  C_5
REMARK    3  A    between atoms: C_8  and  C_9
REMARK    4  A    between atoms: C_9  and  O_10
REMARK    5  A    between atoms: C_16  and  C_17
REMARK                            x       y       z     vdW  Elec       q    Type
REMARK                         _______ _______ _______ _____ _____    ______ ____
ROOT
ATOM      1  C   UNL     1       1.964   5.712  20.541  0.00  0.00    +0.000 A 
ATOM      2  N   UNL     1       1.318   6.738  21.144  0.00  0.00    +0.000 NA
ATOM      3  C   UNL     1       1.346   7.967  20.580  0.00  0.00    +0.000 A 
ATOM      4  N   UNL     1       1.956   8.284  19.433  0.00  0.00    +0.000 NA
ATOM      5  C   UNL     1       2.582   7.252  18.868  0.00  0.00    +0.000 A 
ATOM      6  S   UNL     1       3.434   7.426  17.417  0.00  0.00    +0.000 S 
ATOM      7  C   UNL     1       3.905   5.776  17.519  0.00  0.00    +0.000 A 
ATOM      8  N   UNL     1       3.387   5.081  18.519  0.00  0.00    +0.000 NA
ATOM      9  C   UNL     1       2.646   5.949  19.330  0.00  0.00    +0.000 A 
ENDROOT
BRANCH   3  10
ATOM     10  C   UNL     1       0.617   9.067  21.246  0.00  0.00    +0.000 A 
ATOM     11  C   UNL     1       0.076   8.933  22.535  0.00  0.00    +0.000 A 
ATOM     12  C   UNL     1      -0.653   9.970  23.129  0.00  0.00    +0.000 A 
ATOM     13  C   UNL     1      -0.857  11.182  22.457  0.00  0.00    +0.000 A 
ATOM     14  C   UNL     1      -0.319  11.335  21.177  0.00  0.00    +0.000 A 
ATOM     15  C   UNL     1       0.414  10.299  20.591  0.00  0.00    +0.000 A 
BRANCH  13  16
ATOM     16  C   UNL     1      -1.721  12.253  23.074  0.00  0.00    +0.000 C 
BRANCH  16  17
ATOM     17  O   UNL     1      -2.954  11.733  23.555  0.00  0.00    +0.000 OA
ATOM     18  H   UNL     1      -2.732  10.989  24.140  0.00  0.00    +0.000 HD
ENDBRANCH  16  17
ENDBRANCH  13  16
ENDBRANCH   3  10
BRANCH   7  19
ATOM     19  C   UNL     1       4.855   5.256  16.574  0.00  0.00    +0.000 A 
ATOM     20  C   UNL     1       5.471   5.881  15.501  0.00  0.00    +0.000 A 
ATOM     21  C   UNL     1       6.250   4.903  14.833  0.00  0.00    +0.000 A 
ATOM     22  C   UNL     1       6.091   3.738  15.543  0.00  0.00    +0.000 A 
ATOM     23  O   UNL     1       5.268   3.943  16.596  0.00  0.00    +0.000 OA
ENDBRANCH   7  19
BRANCH   1  24
ATOM     24  N   UNL     1       1.906   4.471  21.165  0.00  0.00    +0.000 N 
ATOM     25  H   UNL     1       2.233   3.726  20.563  0.00  0.00    +0.000 HD
ATOM     26  H   UNL     1       2.220   4.468  22.127  0.00  0.00    +0.000 HD
ENDBRANCH   1  24
TORSDOF 5
ENDMDL
MODEL 4
REMARK VINA RESULT:      -7.1      3.030      4.273
REMARK  Name = 
REMARK  5 active torsions:
REMARK  status: ('A' for Active; 'I' for Inactive)
REMARK    1  A    between atoms: N_1  and  C_2
REMARK    2  A    between atoms: C_4  and  C_5
REMARK    3  A    between atoms: C_8  and  C_9
REMARK    4  A    between atoms: C_9  and  O_10
REMARK    5  A    between atoms: C_16  and  C_17
REMARK                            x       y       z     vdW  Elec       q    Type
REMARK                         _______ _______ _______ _____ _____    ______ ____
ROOT
ATOM      1  C   UNL     1       2.403   5.745  20.349  0.00  0.00    +0.000 A 
ATOM      2  N   UNL     1       3.130   5.315  19.291  0.00  0.00    +0.000 NA
ATOM      3  C   UNL     1       3.358   6.152  18.254  0.00  0.00    +0.000 A 
ATOM      4  N   UNL     1       2.939   7.420  18.169  0.00  0.00    +0.000 NA
ATOM      5  C   UNL     1       2.227   7.809  19.227  0.00  0.00    +0.000 A 
ATOM      6  S   UNL     1       1.582   9.370  19.327  0.00  0.00    +0.000 S 
ATOM      7  C   UNL     1       0.850   8.948  20.824  0.00  0.00    +0.000 A 
ATOM      8  N   UNL     1       1.136   7.747  21.297  0.00  0.00    +0.000 NA
ATOM      9  C   UNL     1       1.908   7.065  20.349  0.00  0.00    +0.000 A 
ENDROOT
BRANCH   3  10
ATOM     10  C   UNL     1       4.171   5.666  17.120  0.00  0.00    +0.000 A 
ATOM     11  C   UNL     1       4.387   4.299  16.886  0.00  0.00    +0.000 A 
ATOM     12  C   UNL     1       5.200   3.860  15.833  0.00  0.00    +0.000 A 
ATOM     13  C   UNL     1       5.818   4.777  14.972  0.00  0.00    +0.000 A 
ATOM     14  C   UNL     1       5.607   6.141  15.186  0.00  0.00    +0.000 A 
ATOM     15  C   UNL     1       4.789   6.573  16.234  0.00  0.00    +0.000 A 
BRANCH  13  16
ATOM     16  C   UNL     1       6.761   4.291  13.901  0.00  0.00    +0.000 C 
BRANCH  16  17
ATOM     17  O   UNL     1       6.262   3.140  13.232  0.00  0.00    +0.000 OA
ATOM     18  H   UNL     1       6.594   3.184  12.319  0.00  0.00    +0.000 HD
ENDBRANCH  16  17
ENDBRANCH  13  16
ENDBRANCH   3  10
BRANCH   7  19
ATOM     19  C   UNL     1      -0.058   9.873  21.447  0.00  0.00    +0.000 A 
ATOM     20  C   UNL     1      -0.680  10.995  20.922  0.00  0.00    +0.000 A 
ATOM     21  C   UNL     1      -1.401  11.610  21.976  0.00  0.00    +0.000 A 
ATOM     22  C   UNL     1      -1.204  10.823  23.084  0.00  0.00    +0.000 A 
ATOM     23  O   UNL     1      -0.412   9.772  22.774  0.00  0.00    +0.000 OA
ENDBRANCH   7  19
BRANCH   1  24
ATOM     24  N   UNL     1       2.195   4.842  21.386  0.00  0.00    +0.000 N 
ATOM     25  H   UNL     1       2.807   4.038  21.320  0.00  0.00    +0.000 HD
ATOM     26  H   UNL     1       2.077   5.267  22.297  0.00  0.00    +0.000 HD
ENDBRANCH   1  24
TORSDOF 5
ENDMDL
MODEL 5
REMARK VINA RESULT:      -7.1      2.748      8.759
REMARK  Name = 
REMARK  5 active torsions:
REMARK  status: ('A' for Active; 'I' for Inactive)
REMARK    1  A    between atoms: N_1  and  C_2
REMARK    2  A    between atoms: C_4  and  C_5
REMARK    3  A    between atoms: C_8  and  C_9
REMARK    4  A    between atoms: C_9  and  O_10
REMARK    5  A    between atoms: C_16  and  C_17
REMARK                            x       y       z     vdW  Elec       q    Type
REMARK                         _______ _______ _______ _____ _____    ______ ____
ROOT
ATOM      1  C   UNL     1       2.019   5.589  20.535  0.00  0.00    +0.000 A 
ATOM      2  N   UNL     1       1.311   6.606  21.080  0.00  0.00    +0.000 NA
ATOM      3  C   UNL     1       1.354   7.830  20.508  0.00  0.00    +0.000 A 
ATOM      4  N   UNL     1       2.037   8.150  19.403  0.00  0.00    +0.000 NA
ATOM      5  C   UNL     1       2.721   7.126  18.894  0.00  0.00    +0.000 A 
ATOM      6  S   UNL     1       3.670   7.305  17.505  0.00  0.00    +0.000 S 
ATOM      7  C   UNL     1       4.166   5.666  17.657  0.00  0.00    +0.000 A 
ATOM      8  N   UNL     1       3.593   4.970  18.625  0.00  0.00    +0.000 NA
ATOM      9  C   UNL     1       2.779   5.829  19.373  0.00  0.00    +0.000 A 
ENDROOT
BRANCH   3  10
ATOM     10  C   UNL     1       0.558   8.920  21.110  0.00  0.00    +0.000 A 
ATOM     11  C   UNL     1       0.089  10.008  20.357  0.00  0.00    +0.000 A 
ATOM     12  C   UNL     1      -0.623  11.054  20.956  0.00  0.00    +0.000 A 
ATOM     13  C   UNL     1      -0.898  11.044  22.329  0.00  0.00    +0.000 A 
ATOM     14  C   UNL     1      -0.444   9.965  23.093  0.00  0.00    +0.000 A 
ATOM     15  C   UNL     1       0.260   8.919  22.488  0.00  0.00    +0.000 A 
BRANCH  13  16
ATOM     16  C   UNL     1      -1.585  12.221  22.972  0.00  0.00    +0.000 C 
BRANCH  16  17
ATOM     17  O   UNL     1      -2.848  11.867  23.523  0.00  0.00    +0.000 OA
ATOM     18  H   UNL     1      -3.192  11.137  22.981  0.00  0.00    +0.000 HD
ENDBRANCH  16  17
ENDBRANCH  13  16
ENDBRANCH   3  10
BRANCH   7  19
ATOM     19  C   UNL     1       5.191   5.159  16.786  0.00  0.00    +0.000 A 
ATOM     20  C   UNL     1       5.125   4.811  15.446  0.00  0.00    +0.000 A 
ATOM     21  C   UNL     1       6.388   4.278  15.085  0.00  0.00    +0.000 A 
ATOM     22  C   UNL     1       7.168   4.348  16.213  0.00  0.00    +0.000 A 
ATOM     23  O   UNL     1       6.465   4.887  17.234  0.00  0.00    +0.000 OA
ENDBRANCH   7  19
BRANCH   1  24
ATOM     24  N   UNL     1       1.942   4.352  21.166  0.00  0.00    +0.000 N 
ATOM     25  H   UNL     1       2.275   4.389  22.121  0.00  0.00    +0.000 HD
ATOM     26  H   UNL     1       1.086   3.841  20.989  0.00  0.00    +0.000 HD
ENDBRANCH   1  24
TORSDOF 5
ENDMDL
MODEL 6
REMARK VINA RESULT:      -7.0      3.095      4.299
REMARK  Name = 
REMARK  5 active torsions:
REMARK  status: ('A' for Active; 'I' for Inactive)
REMARK    1  A    between atoms: N_1  and  C_2
REMARK    2  A    between atoms: C_4  and  C_5
REMARK    3  A    between atoms: C_8  and  C_9
REMARK    4  A    between atoms: C_9  and  O_10
REMARK    5  A    between atoms: C_16  and  C_17
REMARK                            x       y       z     vdW  Elec       q    Type
REMARK                         _______ _______ _______ _____ _____    ______ ____
ROOT
ATOM      1  C   UNL     1       2.333   5.522  20.233  0.00  0.00    +0.000 A 
ATOM      2  N   UNL     1       3.102   5.114  19.195  0.00  0.00    +0.000 NA
ATOM      3  C   UNL     1       3.434   5.995  18.225  0.00  0.00    +0.000 A 
ATOM      4  N   UNL     1       3.083   7.286  18.191  0.00  0.00    +0.000 NA
ATOM      5  C   UNL     1       2.327   7.652  19.227  0.00  0.00    +0.000 A 
ATOM      6  S   UNL     1       1.753   9.235  19.381  0.00  0.00    +0.000 S 
ATOM      7  C   UNL     1       0.911   8.770  20.805  0.00  0.00    +0.000 A 
ATOM      8  N   UNL     1       1.110   7.530  21.222  0.00  0.00    +0.000 NA
ATOM      9  C   UNL     1       1.904   6.863  20.282  0.00  0.00    +0.000 A 
ENDROOT
BRANCH   3  10
ATOM     10  C   UNL     1       4.290   5.532  17.113  0.00  0.00    +0.000 A 
ATOM     11  C   UNL     1       4.916   6.425  16.229  0.00  0.00    +0.000 A 
ATOM     12  C   UNL     1       5.684   5.965  15.152  0.00  0.00    +0.000 A 
ATOM     13  C   UNL     1       5.860   4.593  14.929  0.00  0.00    +0.000 A 
ATOM     14  C   UNL     1       5.249   3.690  15.804  0.00  0.00    +0.000 A 
ATOM     15  C   UNL     1       4.490   4.156  16.881  0.00  0.00    +0.000 A 
BRANCH  13  16
ATOM     16  C   UNL     1       6.613   4.115  13.714  0.00  0.00    +0.000 C 
BRANCH  16  17
ATOM     17  O   UNL     1       5.945   3.043  13.060  0.00  0.00    +0.000 OA
ATOM     18  H   UNL     1       6.267   2.223  13.471  0.00  0.00    +0.000 HD
ENDBRANCH  16  17
ENDBRANCH  13  16
ENDBRANCH   3  10
BRANCH   7  19
ATOM     19  C   UNL     1       0.013   9.704  21.428  0.00  0.00    +0.000 A 
ATOM     20  C   UNL     1      -0.594  10.834  20.903  0.00  0.00    +0.000 A 
ATOM     21  C   UNL     1      -1.310  11.456  21.957  0.00  0.00    +0.000 A 
ATOM     22  C   UNL     1      -1.125  10.664  23.064  0.00  0.00    +0.000 A 
ATOM     23  O   UNL     1      -0.345   9.604  22.753  0.00  0.00    +0.000 OA
ENDBRANCH   7  19
BRANCH   1  24
ATOM     24  N   UNL     1       2.019   4.574  21.201  0.00  0.00    +0.000 N 
ATOM     25  H   UNL     1       1.473   3.809  20.823  0.00  0.00    +0.000 HD
ATOM     26  H   UNL     1       2.781   4.341  21.826  0.00  0.00    +0.000 HD
ENDBRANCH   1  24
TORSDOF 5
ENDMDL
MODEL 7
REMARK VINA RESULT:      -6.9      0.966      1.134
REMARK  Name = 
REMARK  5 active torsions:
REMARK  status: ('A' for Active; 'I' for Inactive)
REMARK    1  A    between atoms: N_1  and  C_2
REMARK    2  A    between atoms: C_4  and  C_5
REMARK    3  A    between atoms: C_8  and  C_9
REMARK    4  A    between atoms: C_9  and  O_10
REMARK    5  A    between atoms: C_16  and  C_17
REMARK                            x       y       z     vdW  Elec       q    Type
REMARK                         _______ _______ _______ _____ _____    ______ ____
ROOT
ATOM      1  C   UNL     1       0.782  10.209  19.273  0.00  0.00    +0.000 A 
ATOM      2  N   UNL     1       1.414   9.016  19.166  0.00  0.00    +0.000 NA
ATOM      3  C   UNL     1       1.417   8.165  20.216  0.00  0.00    +0.000 A 
ATOM      4  N   UNL     1       0.820   8.380  21.394  0.00  0.00    +0.000 NA
ATOM      5  C   UNL     1       0.209   9.563  21.465  0.00  0.00    +0.000 A 
ATOM      6  S   UNL     1      -0.599  10.054  22.868  0.00  0.00    +0.000 S 
ATOM      7  C   UNL     1      -0.946  11.560  22.117  0.00  0.00    +0.000 A 
ATOM      8  N   UNL     1      -0.577  11.681  20.852  0.00  0.00    +0.000 NA
ATOM      9  C   UNL     1       0.131  10.532  20.481  0.00  0.00    +0.000 A 
ENDROOT
BRANCH   3  10
ATOM     10  C   UNL     1       2.096   6.861  20.068  0.00  0.00    +0.000 A 
ATOM     11  C   UNL     1       3.153   6.667  19.165  0.00  0.00    +0.000 A 
ATOM     12  C   UNL     1       3.752   5.411  19.006  0.00  0.00    +0.000 A 
ATOM     13  C   UNL     1       3.318   4.307  19.751  0.00  0.00    +0.000 A 
ATOM     14  C   UNL     1       2.271   4.485  20.660  0.00  0.00    +0.000 A 
ATOM     15  C   UNL     1       1.682   5.743  20.821  0.00  0.00    +0.000 A 
BRANCH  13  16
ATOM     16  C   UNL     1       3.911   2.945  19.501  0.00  0.00    +0.000 C 
BRANCH  16  17
ATOM     17  O   UNL     1       5.310   3.009  19.248  0.00  0.00    +0.000 OA
ATOM     18  H   UNL     1       5.465   3.831  18.754  0.00  0.00    +0.000 HD
ENDBRANCH  16  17
ENDBRANCH  13  16
ENDBRANCH   3  10
BRANCH   7  19
ATOM     19  C   UNL     1      -1.551  12.609  22.892  0.00  0.00    +0.000 A 
ATOM     20  C   UNL     1      -1.031  13.830  23.292  0.00  0.00    +0.000 A 
ATOM     21  C   UNL     1      -2.002  14.453  24.116  0.00  0.00    +0.000 A 
ATOM     22  C   UNL     1      -3.073  13.595  24.159  0.00  0.00    +0.000 A 
ATOM     23  O   UNL     1      -2.819  12.493  23.417  0.00  0.00    +0.000 OA
ENDBRANCH   7  19
BRANCH   1  24
ATOM     24  N   UNL     1       0.815  11.046  18.164  0.00  0.00    +0.000 N 
ATOM     25  H   UNL     1       1.760  11.290  17.897  0.00  0.00    +0.000 HD
ATOM     26  H   UNL     1       0.171  10.792  17.425  0.00  0.00    +0.000 HD
ENDBRANCH   1  24
TORSDOF 5
ENDMDL
MODEL 8
REMARK VINA RESULT:      -6.9      1.379      1.937
REMARK  Name = 
REMARK  5 active torsions:
REMARK  status: ('A' for Active; 'I' for Inactive)
REMARK    1  A    between atoms: N_1  and  C_2
REMARK    2  A    between atoms: C_4  and  C_5
REMARK    3  A    between atoms: C_8  and  C_9
REMARK    4  A    between atoms: C_9  and  O_10
REMARK    5  A    between atoms: C_16  and  C_17
REMARK                            x       y       z     vdW  Elec       q    Type
REMARK                         _______ _______ _______ _____ _____    ______ ____
ROOT
ATOM      1  C   UNL     1      -0.117  10.258  18.659  0.00  0.00    +0.000 A 
ATOM      2  N   UNL     1       0.788   9.299  18.351  0.00  0.00    +0.000 NA
ATOM      3  C   UNL     1       1.415   8.630  19.345  0.00  0.00    +0.000 A 
ATOM      4  N   UNL     1       1.214   8.812  20.655  0.00  0.00    +0.000 NA
ATOM      5  C   UNL     1       0.318   9.763  20.921  0.00  0.00    +0.000 A 
ATOM      6  S   UNL     1      -0.082  10.175  22.512  0.00  0.00    +0.000 S 
ATOM      7  C   UNL     1      -1.124  11.402  21.911  0.00  0.00    +0.000 A 
ATOM      8  N   UNL     1      -1.262  11.460  20.597  0.00  0.00    +0.000 NA
ATOM      9  C   UNL     1      -0.392  10.531  20.015  0.00  0.00    +0.000 A 
ENDROOT
BRANCH   3  10
ATOM     10  C   UNL     1       2.384   7.575  18.984  0.00  0.00    +0.000 A 
ATOM     11  C   UNL     1       2.579   6.434  19.779  0.00  0.00    +0.000 A 
ATOM     12  C   UNL     1       3.536   5.468  19.445  0.00  0.00    +0.000 A 
ATOM     13  C   UNL     1       4.326   5.607  18.296  0.00  0.00    +0.000 A 
ATOM     14  C   UNL     1       4.141   6.733  17.490  0.00  0.00    +0.000 A 
ATOM     15  C   UNL     1       3.179   7.690  17.824  0.00  0.00    +0.000 A 
BRANCH  13  16
ATOM     16  C   UNL     1       5.414   4.606  18.001  0.00  0.00    +0.000 C 
BRANCH  16  17
ATOM     17  O   UNL     1       5.547   3.641  19.037  0.00  0.00    +0.000 OA
ATOM     18  H   UNL     1       6.184   4.005  19.675  0.00  0.00    +0.000 HD
ENDBRANCH  16  17
ENDBRANCH  13  16
ENDBRANCH   3  10
BRANCH   7  19
ATOM     19  C   UNL     1      -1.735  12.319  22.835  0.00  0.00    +0.000 A 
ATOM     20  C   UNL     1      -3.025  12.339  23.342  0.00  0.00    +0.000 A 
ATOM     21  C   UNL     1      -3.147  13.504  24.141  0.00  0.00    +0.000 A 
ATOM     22  C   UNL     1      -1.922  14.123  24.101  0.00  0.00    +0.000 A 
ATOM     23  O   UNL     1      -1.065  13.414  23.333  0.00  0.00    +0.000 OA
ENDBRANCH   7  19
BRANCH   1  24
ATOM     24  N   UNL     1      -0.730  10.916  17.599  0.00  0.00    +0.000 N 
ATOM     25  H   UNL     1      -0.267  11.787  17.371  0.00  0.00    +0.000 HD
ATOM     26  H   UNL     1      -1.001  10.316  16.830  0.00  0.00    +0.000 HD
ENDBRANCH   1  24
TORSDOF 5
ENDMDL
MODEL 9
REMARK VINA RESULT:      -6.8      1.664      2.156
REMARK  Name = 
REMARK  5 active torsions:
REMARK  status: ('A' for Active; 'I' for Inactive)
REMARK    1  A    between atoms: N_1  and  C_2
REMARK    2  A    between atoms: C_4  and  C_5
REMARK    3  A    between atoms: C_8  and  C_9
REMARK    4  A    between atoms: C_9  and  O_10
REMARK    5  A    between atoms: C_16  and  C_17
REMARK                            x       y       z     vdW  Elec       q    Type
REMARK                         _______ _______ _______ _____ _____    ______ ____
ROOT
ATOM      1  C   UNL     1       1.954  10.891  18.265  0.00  0.00    +0.000 A 
ATOM      2  N   UNL     1       2.501   9.724  17.849  0.00  0.00    +0.000 NA
ATOM      3  C   UNL     1       2.227   8.582  18.518  0.00  0.00    +0.000 A 
ATOM      4  N   UNL     1       1.422   8.477  19.582  0.00  0.00    +0.000 NA
ATOM      5  C   UNL     1       0.902   9.644  19.964  0.00  0.00    +0.000 A 
ATOM      6  S   UNL     1      -0.132   9.751  21.299  0.00  0.00    +0.000 S 
ATOM      7  C   UNL     1      -0.203  11.454  21.080  0.00  0.00    +0.000 A 
ATOM      8  N   UNL     1       0.421  11.934  20.017  0.00  0.00    +0.000 NA
ATOM      9  C   UNL     1       1.099  10.885  19.385  0.00  0.00    +0.000 A 
ENDROOT
BRANCH   3  10
ATOM     10  C   UNL     1       2.820   7.319  18.033  0.00  0.00    +0.000 A 
ATOM     11  C   UNL     1       2.209   6.074  18.251  0.00  0.00    +0.000 A 
ATOM     12  C   UNL     1       2.812   4.883  17.825  0.00  0.00    +0.000 A 
ATOM     13  C   UNL     1       4.043   4.899  17.158  0.00  0.00    +0.000 A 
ATOM     14  C   UNL     1       4.661   6.131  16.927  0.00  0.00    +0.000 A 
ATOM     15  C   UNL     1       4.052   7.317  17.348  0.00  0.00    +0.000 A 
BRANCH  13  16
ATOM     16  C   UNL     1       4.720   3.604  16.788  0.00  0.00    +0.000 C 
BRANCH  16  17
ATOM     17  O   UNL     1       4.331   2.536  17.642  0.00  0.00    +0.000 OA
ATOM     18  H   UNL     1       5.032   2.442  18.308  0.00  0.00    +0.000 HD
ENDBRANCH  16  17
ENDBRANCH  13  16
ENDBRANCH   3  10
BRANCH   7  19
ATOM     19  C   UNL     1      -0.871  12.262  22.065  0.00  0.00    +0.000 A 
ATOM     20  C   UNL     1      -2.189  12.229  22.494  0.00  0.00    +0.000 A 
ATOM     21  C   UNL     1      -2.361  13.295  23.412  0.00  0.00    +0.000 A 
ATOM     22  C   UNL     1      -1.137  13.909  23.517  0.00  0.00    +0.000 A 
ATOM     23  O   UNL     1      -0.234  13.289  22.725  0.00  0.00    +0.000 OA
ENDBRANCH   7  19
BRANCH   1  24
ATOM     24  N   UNL     1       2.273  12.035  17.542  0.00  0.00    +0.000 N 
ATOM     25  H   UNL     1       2.104  11.920  16.551  0.00  0.00    +0.000 HD
ATOM     26  H   UNL     1       1.973  12.902  17.971  0.00  0.00    +0.000 HD
ENDBRANCH   1  24
TORSDOF 5
ENDMDL
