MODEL 1
REMARK VINA RESULT:      -7.5      0.000      0.000
REMARK  Name = 
REMARK  8 active torsions:
REMARK  status: ('A' for Active; 'I' for Inactive)
REMARK    1  A    between atoms: C_1  and  O_2
REMARK    2  A    between atoms: O_2  and  C_3
REMARK    3  A    between atoms: C_6  and  O_7
REMARK    4  A    between atoms: O_7  and  C_8
REMARK    5  A    between atoms: C_9  and  N_10
REMARK    6  A    between atoms: C_11  and  C_13
REMARK    7  A    between atoms: N_17  and  S_18
REMARK    8  A    between atoms: S_18  and  C_21
REMARK                            x       y       z     vdW  Elec       q    Type
REMARK                         _______ _______ _______ _____ _____    ______ ____
ROOT
ATOM      1  C   UNL     1       3.321   3.969  19.619  0.00  0.00    +0.000 C 
ATOM      2  C   UNL     1       2.116   3.219  19.051  0.00  0.00    +0.000 C 
ATOM      3  C   UNL     1       0.996   3.545  20.025  0.00  0.00    +0.000 C 
ATOM      4  C   UNL     1       1.405   4.851  20.705  0.00  0.00    +0.000 C 
ATOM      5  N   UNL     1       2.710   5.267  20.079  0.00  0.00    +0.000 NA
ENDROOT
BRANCH   1   7
ATOM      6  N   UNL     1       4.430   4.172  17.436  0.00  0.00    +0.000 N 
ATOM      7  C   UNL     1       4.569   3.776  18.753  0.00  0.00    +0.000 C 
ATOM      8  O   UNL     1       5.616   3.391  19.271  0.00  0.00    +0.000 OA
ATOM      9  H   UNL     1       3.491   4.027  17.066  0.00  0.00    +0.000 HD
BRANCH   6  14
ATOM     10  C   UNL     1       6.156   3.899  14.163  0.00  0.00    +0.000 A 
ATOM     11  C   UNL     1       7.240   4.756  14.308  0.00  0.00    +0.000 A 
ATOM     12  C   UNL     1       7.438   5.440  15.502  0.00  0.00    +0.000 A 
ATOM     13  C   UNL     1       6.561   5.272  16.590  0.00  0.00    +0.000 A 
ATOM     14  C   UNL     1       5.450   4.406  16.462  0.00  0.00    +0.000 A 
ATOM     15  C   UNL     1       5.269   3.729  15.233  0.00  0.00    +0.000 A 
BRANCH  10  17
ATOM     16  C   UNL     1       4.883   3.501  12.191  0.00  0.00    +0.000 C 
ATOM     17  O   UNL     1       6.081   3.317  12.929  0.00  0.00    +0.000 OA
ENDBRANCH  10  17
BRANCH  13  18
ATOM     18  O   UNL     1       6.712   6.040  17.717  0.00  0.00    +0.000 OA
ATOM     19  C   UNL     1       7.425   7.266  17.539  0.00  0.00    +0.000 C 
ENDBRANCH  13  18
ENDBRANCH   6  14
ENDBRANCH   1   7
BRANCH   5  20
ATOM     20  S   UNL     1       2.549   6.522  18.933  0.00  0.00    +0.000 S 
ATOM     21  O   UNL     1       3.870   6.961  18.558  0.00  0.00    +0.000 OA
ATOM     22  O   UNL     1       1.591   6.087  17.934  0.00  0.00    +0.000 OA
BRANCH  20  23
ATOM     23  C   UNL     1       1.792   7.831  19.850  0.00  0.00    +0.000 A 
ATOM     24  C   UNL     1       1.250   7.623  21.143  0.00  0.00    +0.000 A 
ATOM     25  C   UNL     1       0.599   8.643  21.884  0.00  0.00    +0.000 A 
ATOM     26  C   UNL     1       0.414   9.947  21.395  0.00  0.00    +0.000 A 
ATOM     27  C   UNL     1       0.919  10.201  20.096  0.00  0.00    +0.000 A 
ATOM     28  N   UNL     1       0.826  11.367  19.441  0.00  0.00    +0.000 NA
ATOM     29  S   UNL     1       1.547  11.141  17.965  0.00  0.00    +0.000 S 
ATOM     30  N   UNL     1       2.040   9.564  18.100  0.00  0.00    +0.000 NA
ATOM     31  C   UNL     1       1.630   9.123  19.301  0.00  0.00    +0.000 A 
ENDBRANCH  20  23
ENDBRANCH   5  20
TORSDOF 6
ENDMDL
MODEL 2
REMARK VINA RESULT:      -7.4      2.882      7.035
REMARK  Name = 
REMARK  8 active torsions:
REMARK  status: ('A' for Active; 'I' for Inactive)
REMARK    1  A    between atoms: C_1  and  O_2
REMARK    2  A    between atoms: O_2  and  C_3
REMARK    3  A    between atoms: C_6  and  O_7
REMARK    4  A    between atoms: O_7  and  C_8
REMARK    5  A    between atoms: C_9  and  N_10
REMARK    6  A    between atoms: C_11  and  C_13
REMARK    7  A    between atoms: N_17  and  S_18
REMARK    8  A    between atoms: S_18  and  C_21
REMARK                            x       y       z     vdW  Elec       q    Type
REMARK                         _______ _______ _______ _____ _____    ______ ____
ROOT
ATOM      1  C   UNL     1       2.035   4.816  18.542  0.00  0.00    +0.000 C 
ATOM      2  C   UNL     1       1.099   4.013  19.446  0.00  0.00    +0.000 C 
ATOM      3  C   UNL     1       0.905   2.707  18.696  0.00  0.00    +0.000 C 
ATOM      4  C   UNL     1       2.119   2.572  17.777  0.00  0.00    +0.000 C 
ATOM      5  N   UNL     1       2.996   3.764  18.052  0.00  0.00    +0.000 NA
ENDROOT
BRANCH   1   7
ATOM      6  N   UNL     1       1.797   7.261  18.491  0.00  0.00    +0.000 N 
ATOM      7  C   UNL     1       2.369   6.184  19.142  0.00  0.00    +0.000 C 
ATOM      8  O   UNL     1       3.017   6.249  20.186  0.00  0.00    +0.000 OA
ATOM      9  H   UNL     1       1.705   7.123  17.485  0.00  0.00    +0.000 HD
BRANCH   6  14
ATOM     10  C   UNL     1       2.052  10.959  18.348  0.00  0.00    +0.000 A 
ATOM     11  C   UNL     1       1.428  11.362  19.521  0.00  0.00    +0.000 A 
ATOM     12  C   UNL     1       0.916  10.416  20.404  0.00  0.00    +0.000 A 
ATOM     13  C   UNL     1       1.028   9.039  20.137  0.00  0.00    +0.000 A 
ATOM     14  C   UNL     1       1.659   8.608  18.946  0.00  0.00    +0.000 A 
ATOM     15  C   UNL     1       2.163   9.593  18.064  0.00  0.00    +0.000 A 
BRANCH  10  17
ATOM     16  C   UNL     1       2.285  13.313  18.073  0.00  0.00    +0.000 C 
ATOM     17  O   UNL     1       2.483  11.999  17.573  0.00  0.00    +0.000 OA
ENDBRANCH  10  17
BRANCH  13  18
ATOM     18  O   UNL     1       0.419   8.129  20.964  0.00  0.00    +0.000 OA
ATOM     19  C   UNL     1      -0.416   8.682  21.984  0.00  0.00    +0.000 C 
ENDBRANCH  13  18
ENDBRANCH   6  14
ENDBRANCH   1   7
BRANCH   5  20
ATOM     20  S   UNL     1       4.350   3.405  19.029  0.00  0.00    +0.000 S 
ATOM     21  O   UNL     1       4.060   3.834  20.375  0.00  0.00    +0.000 OA
ATOM     22  O   UNL     1       4.747   2.039  18.746  0.00  0.00    +0.000 OA
BRANCH  20  23
ATOM     23  C   UNL     1       5.616   4.462  18.393  0.00  0.00    +0.000 A 
ATOM     24  C   UNL     1       6.314   5.376  19.220  0.00  0.00    +0.000 A 
ATOM     25  C   UNL     1       7.303   6.267  18.730  0.00  0.00    +0.000 A 
ATOM     26  C   UNL     1       7.668   6.337  17.374  0.00  0.00    +0.000 A 
ATOM     27  C   UNL     1       6.982   5.458  16.501  0.00  0.00    +0.000 A 
ATOM     28  N   UNL     1       7.164   5.384  15.174  0.00  0.00    +0.000 NA
ATOM     29  S   UNL     1       6.117   4.226  14.616  0.00  0.00    +0.000 S 
ATOM     30  N   UNL     1       5.409   3.740  16.034  0.00  0.00    +0.000 NA
ATOM     31  C   UNL     1       5.934   4.492  17.016  0.00  0.00    +0.000 A 
ENDBRANCH  20  23
ENDBRANCH   5  20
TORSDOF 6
ENDMDL
MODEL 3
REMARK VINA RESULT:      -7.3      2.651      7.082
REMARK  Name = 
REMARK  8 active torsions:
REMARK  status: ('A' for Active; 'I' for Inactive)
REMARK    1  A    between atoms: C_1  and  O_2
REMARK    2  A    between atoms: O_2  and  C_3
REMARK    3  A    between atoms: C_6  and  O_7
REMARK    4  A    between atoms: O_7  and  C_8
REMARK    5  A    between atoms: C_9  and  N_10
REMARK    6  A    between atoms: C_11  and  C_13
REMARK    7  A    between atoms: N_17  and  S_18
REMARK    8  A    between atoms: S_18  and  C_21
REMARK                            x       y       z     vdW  Elec       q    Type
REMARK                         _______ _______ _______ _____ _____    ______ ____
ROOT
ATOM      1  C   UNL     1       1.670   4.417  19.648  0.00  0.00    +0.000 C 
ATOM      2  C   UNL     1       1.467   3.368  20.742  0.00  0.00    +0.000 C 
ATOM      3  C   UNL     1       1.525   2.048  19.993  0.00  0.00    +0.000 C 
ATOM      4  C   UNL     1       2.311   2.333  18.712  0.00  0.00    +0.000 C 
ATOM      5  N   UNL     1       2.722   3.780  18.778  0.00  0.00    +0.000 NA
ENDROOT
BRANCH   1   7
ATOM      6  N   UNL     1       1.825   6.840  19.278  0.00  0.00    +0.000 N 
ATOM      7  C   UNL     1       1.659   5.838  20.216  0.00  0.00    +0.000 C 
ATOM      8  O   UNL     1       1.411   6.017  21.408  0.00  0.00    +0.000 OA
ATOM      9  H   UNL     1       2.435   6.574  18.505  0.00  0.00    +0.000 HD
BRANCH   6  14
ATOM     10  C   UNL     1       0.864   9.989  20.987  0.00  0.00    +0.000 A 
ATOM     11  C   UNL     1       1.091  10.955  20.016  0.00  0.00    +0.000 A 
ATOM     12  C   UNL     1       1.558  10.589  18.758  0.00  0.00    +0.000 A 
ATOM     13  C   UNL     1       1.797   9.240  18.437  0.00  0.00    +0.000 A 
ATOM     14  C   UNL     1       1.572   8.241  19.413  0.00  0.00    +0.000 A 
ATOM     15  C   UNL     1       1.105   8.644  20.686  0.00  0.00    +0.000 A 
BRANCH  10  17
ATOM     16  C   UNL     1      -0.082   9.589  23.136  0.00  0.00    +0.000 C 
ATOM     17  O   UNL     1       0.428  10.502  22.177  0.00  0.00    +0.000 OA
ENDBRANCH  10  17
BRANCH  13  18
ATOM     18  O   UNL     1       2.362   8.912  17.230  0.00  0.00    +0.000 OA
ATOM     19  C   UNL     1       3.491   8.039  17.293  0.00  0.00    +0.000 C 
ENDBRANCH  13  18
ENDBRANCH   6  14
ENDBRANCH   1   7
BRANCH   5  20
ATOM     20  S   UNL     1       4.359   4.005  19.212  0.00  0.00    +0.000 S 
ATOM     21  O   UNL     1       4.440   5.154  20.079  0.00  0.00    +0.000 OA
ATOM     22  O   UNL     1       4.888   2.718  19.620  0.00  0.00    +0.000 OA
BRANCH  20  23
ATOM     23  C   UNL     1       5.140   4.434  17.685  0.00  0.00    +0.000 A 
ATOM     24  C   UNL     1       4.844   3.757  16.476  0.00  0.00    +0.000 A 
ATOM     25  C   UNL     1       5.487   4.050  15.245  0.00  0.00    +0.000 A 
ATOM     26  C   UNL     1       6.490   5.025  15.117  0.00  0.00    +0.000 A 
ATOM     27  C   UNL     1       6.840   5.716  16.304  0.00  0.00    +0.000 A 
ATOM     28  N   UNL     1       7.785   6.663  16.401  0.00  0.00    +0.000 NA
ATOM     29  S   UNL     1       7.819   7.136  17.990  0.00  0.00    +0.000 S 
ATOM     30  N   UNL     1       6.616   6.187  18.622  0.00  0.00    +0.000 NA
ATOM     31  C   UNL     1       6.149   5.422  17.621  0.00  0.00    +0.000 A 
ENDBRANCH  20  23
ENDBRANCH   5  20
TORSDOF 6
ENDMDL
MODEL 4
REMARK VINA RESULT:      -7.2      3.118      5.448
REMARK  Name = 
REMARK  8 active torsions:
REMARK  status: ('A' for Active; 'I' for Inactive)
REMARK    1  A    between atoms: C_1  and  O_2
REMARK    2  A    between atoms: O_2  and  C_3
REMARK    3  A    between atoms: C_6  and  O_7
REMARK    4  A    between atoms: O_7  and  C_8
REMARK    5  A    between atoms: C_9  and  N_10
REMARK    6  A    between atoms: C_11  and  C_13
REMARK    7  A    between atoms: N_17  and  S_18
REMARK    8  A    between atoms: S_18  and  C_21
REMARK                            x       y       z     vdW  Elec       q    Type
REMARK                         _______ _______ _______ _____ _____    ______ ____
ROOT
ATOM      1  C   UNL     1       1.193   8.799  21.074  0.00  0.00    +0.000 C 
ATOM      2  C   UNL     1      -0.154   8.215  21.501  0.00  0.00    +0.000 C 
ATOM      3  C   UNL     1      -0.568   9.084  22.676  0.00  0.00    +0.000 C 
ATOM      4  C   UNL     1       0.185  10.403  22.502  0.00  0.00    +0.000 C 
ATOM      5  N   UNL     1       0.967  10.281  21.221  0.00  0.00    +0.000 NA
ENDROOT
BRANCH   1   7
ATOM      6  N   UNL     1       2.215   6.771  20.136  0.00  0.00    +0.000 N 
ATOM      7  C   UNL     1       1.777   8.055  19.870  0.00  0.00    +0.000 C 
ATOM      8  O   UNL     1       1.738   8.574  18.755  0.00  0.00    +0.000 OA
ATOM      9  H   UNL     1       2.597   6.660  21.075  0.00  0.00    +0.000 HD
BRANCH   6  14
ATOM     10  C   UNL     1       4.077   5.038  17.436  0.00  0.00    +0.000 A 
ATOM     11  C   UNL     1       3.444   3.804  17.361  0.00  0.00    +0.000 A 
ATOM     12  C   UNL     1       2.370   3.515  18.195  0.00  0.00    +0.000 A 
ATOM     13  C   UNL     1       1.893   4.462  19.120  0.00  0.00    +0.000 A 
ATOM     14  C   UNL     1       2.525   5.725  19.213  0.00  0.00    +0.000 A 
ATOM     15  C   UNL     1       3.620   5.988  18.357  0.00  0.00    +0.000 A 
BRANCH  10  17
ATOM     16  C   UNL     1       5.611   3.988  15.948  0.00  0.00    +0.000 C 
ATOM     17  O   UNL     1       5.127   5.168  16.571  0.00  0.00    +0.000 OA
ENDBRANCH  10  17
BRANCH  13  18
ATOM     18  O   UNL     1       0.907   4.116  20.009  0.00  0.00    +0.000 OA
ATOM     19  C   UNL     1       1.296   3.208  21.042  0.00  0.00    +0.000 C 
ENDBRANCH  13  18
ENDBRANCH   6  14
ENDBRANCH   1   7
BRANCH   5  20
ATOM     20  S   UNL     1       0.260  11.113  19.908  0.00  0.00    +0.000 S 
ATOM     21  O   UNL     1       1.312  11.497  19.000  0.00  0.00    +0.000 OA
ATOM     22  O   UNL     1      -0.877  10.336  19.454  0.00  0.00    +0.000 OA
BRANCH  20  23
ATOM     23  C   UNL     1      -0.375  12.591  20.643  0.00  0.00    +0.000 A 
ATOM     24  C   UNL     1      -1.764  12.864  20.696  0.00  0.00    +0.000 A 
ATOM     25  C   UNL     1      -2.299  14.060  21.240  0.00  0.00    +0.000 A 
ATOM     26  C   UNL     1      -1.498  15.093  21.758  0.00  0.00    +0.000 A 
ATOM     27  C   UNL     1      -0.099  14.878  21.706  0.00  0.00    +0.000 A 
ATOM     28  N   UNL     1       0.835  15.745  22.125  0.00  0.00    +0.000 NA
ATOM     29  S   UNL     1       2.304  15.036  21.831  0.00  0.00    +0.000 S 
ATOM     30  N   UNL     1       1.826  13.584  21.191  0.00  0.00    +0.000 NA
ATOM     31  C   UNL     1       0.483  13.597  21.141  0.00  0.00    +0.000 A 
ENDBRANCH  20  23
ENDBRANCH   5  20
TORSDOF 6
ENDMDL
MODEL 5
REMARK VINA RESULT:      -7.2      2.605      7.134
REMARK  Name = 
REMARK  8 active torsions:
REMARK  status: ('A' for Active; 'I' for Inactive)
REMARK    1  A    between atoms: C_1  and  O_2
REMARK    2  A    between atoms: O_2  and  C_3
REMARK    3  A    between atoms: C_6  and  O_7
REMARK    4  A    between atoms: O_7  and  C_8
REMARK    5  A    between atoms: C_9  and  N_10
REMARK    6  A    between atoms: C_11  and  C_13
REMARK    7  A    between atoms: N_17  and  S_18
REMARK    8  A    between atoms: S_18  and  C_21
REMARK                            x       y       z     vdW  Elec       q    Type
REMARK                         _______ _______ _______ _____ _____    ______ ____
ROOT
ATOM      1  C   UNL     1       1.668   4.960  19.494  0.00  0.00    +0.000 C 
ATOM      2  C   UNL     1       1.274   4.006  20.622  0.00  0.00    +0.000 C 
ATOM      3  C   UNL     1       1.115   2.667  19.923  0.00  0.00    +0.000 C 
ATOM      4  C   UNL     1       1.955   2.762  18.648  0.00  0.00    +0.000 C 
ATOM      5  N   UNL     1       2.607   4.119  18.669  0.00  0.00    +0.000 NA
ENDROOT
BRANCH   1   7
ATOM      6  N   UNL     1       1.616   7.383  19.093  0.00  0.00    +0.000 N 
ATOM      7  C   UNL     1       1.892   6.385  20.008  0.00  0.00    +0.000 C 
ATOM      8  O   UNL     1       2.196   6.566  21.187  0.00  0.00    +0.000 OA
ATOM      9  H   UNL     1       1.823   7.120  18.131  0.00  0.00    +0.000 HD
BRANCH   6  14
ATOM     10  C   UNL     1       1.995  11.025  18.498  0.00  0.00    +0.000 A 
ATOM     11  C   UNL     1       1.177  11.589  19.468  0.00  0.00    +0.000 A 
ATOM     12  C   UNL     1       0.485  10.776  20.360  0.00  0.00    +0.000 A 
ATOM     13  C   UNL     1       0.606   9.375  20.309  0.00  0.00    +0.000 A 
ATOM     14  C   UNL     1       1.433   8.782  19.327  0.00  0.00    +0.000 A 
ATOM     15  C   UNL     1       2.119   9.633  18.429  0.00  0.00    +0.000 A 
BRANCH  10  17
ATOM     16  C   UNL     1       2.814  13.244  18.215  0.00  0.00    +0.000 C 
ATOM     17  O   UNL     1       2.591  11.947  17.683  0.00  0.00    +0.000 OA
ENDBRANCH  10  17
BRANCH  13  18
ATOM     18  O   UNL     1      -0.171   8.591  21.124  0.00  0.00    +0.000 OA
ATOM     19  C   UNL     1      -0.331   9.060  22.465  0.00  0.00    +0.000 C 
ENDBRANCH  13  18
ENDBRANCH   6  14
ENDBRANCH   1   7
BRANCH   5  20
ATOM     20  S   UNL     1       4.252   4.079  19.126  0.00  0.00    +0.000 S 
ATOM     21  O   UNL     1       4.496   5.181  20.024  0.00  0.00    +0.000 OA
ATOM     22  O   UNL     1       4.570   2.716  19.508  0.00  0.00    +0.000 OA
BRANCH  20  23
ATOM     23  C   UNL     1       5.112   4.418  17.620  0.00  0.00    +0.000 A 
ATOM     24  C   UNL     1       4.904   3.648  16.449  0.00  0.00    +0.000 A 
ATOM     25  C   UNL     1       5.612   3.869  15.239  0.00  0.00    +0.000 A 
ATOM     26  C   UNL     1       6.600   4.858  15.098  0.00  0.00    +0.000 A 
ATOM     27  C   UNL     1       6.863   5.641  16.248  0.00  0.00    +0.000 A 
ATOM     28  N   UNL     1       7.779   6.617  16.330  0.00  0.00    +0.000 NA
ATOM     29  S   UNL     1       7.708   7.204  17.880  0.00  0.00    +0.000 S 
ATOM     30  N   UNL     1       6.491   6.272  18.509  0.00  0.00    +0.000 NA
ATOM     31  C   UNL     1       6.101   5.424  17.542  0.00  0.00    +0.000 A 
ENDBRANCH  20  23
ENDBRANCH   5  20
TORSDOF 6
ENDMDL
MODEL 6
REMARK VINA RESULT:      -7.0      4.726      8.012
REMARK  Name = 
REMARK  8 active torsions:
REMARK  status: ('A' for Active; 'I' for Inactive)
REMARK    1  A    between atoms: C_1  and  O_2
REMARK    2  A    between atoms: O_2  and  C_3
REMARK    3  A    between atoms: C_6  and  O_7
REMARK    4  A    between atoms: O_7  and  C_8
REMARK    5  A    between atoms: C_9  and  N_10
REMARK    6  A    between atoms: C_11  and  C_13
REMARK    7  A    between atoms: N_17  and  S_18
REMARK    8  A    between atoms: S_18  and  C_21
REMARK                            x       y       z     vdW  Elec       q    Type
REMARK                         _______ _______ _______ _____ _____    ______ ____
ROOT
ATOM      1  C   UNL     1       0.009  12.576  18.565  0.00  0.00    +0.000 C 
ATOM      2  C   UNL     1       1.401  13.140  18.856  0.00  0.00    +0.000 C 
ATOM      3  C   UNL     1       1.199  14.644  18.804  0.00  0.00    +0.000 C 
ATOM      4  C   UNL     1      -0.287  14.874  19.078  0.00  0.00    +0.000 C 
ATOM      5  N   UNL     1      -0.888  13.516  19.328  0.00  0.00    +0.000 NA
ENDROOT
BRANCH   1   7
ATOM      6  N   UNL     1       1.228  10.461  18.841  0.00  0.00    +0.000 N 
ATOM      7  C   UNL     1       0.000  11.046  18.590  0.00  0.00    +0.000 C 
ATOM      8  O   UNL     1      -1.067  10.441  18.491  0.00  0.00    +0.000 OA
ATOM      9  H   UNL     1       2.013  10.988  18.461  0.00  0.00    +0.000 HD
BRANCH   6  14
ATOM     10  C   UNL     1       2.645   7.048  18.518  0.00  0.00    +0.000 A 
ATOM     11  C   UNL     1       2.320   6.457  19.732  0.00  0.00    +0.000 A 
ATOM     12  C   UNL     1       1.607   7.169  20.690  0.00  0.00    +0.000 A 
ATOM     13  C   UNL     1       1.190   8.492  20.449  0.00  0.00    +0.000 A 
ATOM     14  C   UNL     1       1.513   9.112  19.220  0.00  0.00    +0.000 A 
ATOM     15  C   UNL     1       2.245   8.365  18.268  0.00  0.00    +0.000 A 
BRANCH  10  17
ATOM     16  C   UNL     1       3.066   4.846  17.714  0.00  0.00    +0.000 C 
ATOM     17  O   UNL     1       3.365   6.233  17.689  0.00  0.00    +0.000 OA
ENDBRANCH  10  17
BRANCH  13  18
ATOM     18  O   UNL     1       0.586   9.212  21.449  0.00  0.00    +0.000 OA
ATOM     19  C   UNL     1       1.255   9.198  22.712  0.00  0.00    +0.000 C 
ENDBRANCH  13  18
ENDBRANCH   6  14
ENDBRANCH   1   7
BRANCH   5  20
ATOM     20  S   UNL     1      -1.168  13.186  20.980  0.00  0.00    +0.000 S 
ATOM     21  O   UNL     1      -0.472  11.969  21.320  0.00  0.00    +0.000 OA
ATOM     22  O   UNL     1      -0.940  14.412  21.719  0.00  0.00    +0.000 OA
BRANCH  20  23
ATOM     23  C   UNL     1      -2.902  12.845  21.050  0.00  0.00    +0.000 A 
ATOM     24  C   UNL     1      -3.691  12.735  19.879  0.00  0.00    +0.000 A 
ATOM     25  C   UNL     1      -5.092  12.506  19.906  0.00  0.00    +0.000 A 
ATOM     26  C   UNL     1      -5.827  12.388  21.098  0.00  0.00    +0.000 A 
ATOM     27  C   UNL     1      -5.086  12.515  22.299  0.00  0.00    +0.000 A 
ATOM     28  N   UNL     1      -5.599  12.457  23.536  0.00  0.00    +0.000 NA
ATOM     29  S   UNL     1      -4.334  12.680  24.585  0.00  0.00    +0.000 S 
ATOM     30  N   UNL     1      -3.072  12.826  23.520  0.00  0.00    +0.000 NA
ATOM     31  C   UNL     1      -3.587  12.744  22.282  0.00  0.00    +0.000 A 
ENDBRANCH  20  23
ENDBRANCH   5  20
TORSDOF 6
ENDMDL
MODEL 7
REMARK VINA RESULT:      -7.0      8.285     10.689
REMARK  Name = 
REMARK  8 active torsions:
REMARK  status: ('A' for Active; 'I' for Inactive)
REMARK    1  A    between atoms: C_1  and  O_2
REMARK    2  A    between atoms: O_2  and  C_3
REMARK    3  A    between atoms: C_6  and  O_7
REMARK    4  A    between atoms: O_7  and  C_8
REMARK    5  A    between atoms: C_9  and  N_10
REMARK    6  A    between atoms: C_11  and  C_13
REMARK    7  A    between atoms: N_17  and  S_18
REMARK    8  A    between atoms: S_18  and  C_21
REMARK                            x       y       z     vdW  Elec       q    Type
REMARK                         _______ _______ _______ _____ _____    ______ ____
ROOT
ATOM      1  C   UNL     1       0.019  13.362  18.901  0.00  0.00    +0.000 C 
ATOM      2  C   UNL     1       1.290  12.768  18.292  0.00  0.00    +0.000 C 
ATOM      3  C   UNL     1       2.254  13.941  18.252  0.00  0.00    +0.000 C 
ATOM      4  C   UNL     1       1.759  14.921  19.317  0.00  0.00    +0.000 C 
ATOM      5  N   UNL     1       0.566  14.274  19.968  0.00  0.00    +0.000 NA
ENDROOT
BRANCH   1   7
ATOM      6  N   UNL     1      -2.370  12.826  19.103  0.00  0.00    +0.000 N 
ATOM      7  C   UNL     1      -1.087  12.314  19.041  0.00  0.00    +0.000 C 
ATOM      8  O   UNL     1      -0.803  11.117  18.991  0.00  0.00    +0.000 OA
ATOM      9  H   UNL     1      -2.422  13.730  19.572  0.00  0.00    +0.000 HD
BRANCH   6  14
ATOM     10  C   UNL     1      -5.775  11.660  20.001  0.00  0.00    +0.000 A 
ATOM     11  C   UNL     1      -6.187  10.986  18.859  0.00  0.00    +0.000 A 
ATOM     12  C   UNL     1      -5.341  10.886  17.760  0.00  0.00    +0.000 A 
ATOM     13  C   UNL     1      -4.051  11.450  17.783  0.00  0.00    +0.000 A 
ATOM     14  C   UNL     1      -3.614  12.142  18.936  0.00  0.00    +0.000 A 
ATOM     15  C   UNL     1      -4.499  12.233  20.036  0.00  0.00    +0.000 A 
BRANCH  10  17
ATOM     16  C   UNL     1      -7.780  10.752  20.909  0.00  0.00    +0.000 C 
ATOM     17  O   UNL     1      -6.721  11.693  20.987  0.00  0.00    +0.000 OA
ENDBRANCH  10  17
BRANCH  13  18
ATOM     18  O   UNL     1      -3.277  11.436  16.650  0.00  0.00    +0.000 OA
ATOM     19  C   UNL     1      -3.754  10.611  15.585  0.00  0.00    +0.000 C 
ENDBRANCH  13  18
ENDBRANCH   6  14
ENDBRANCH   1   7
BRANCH   5  20
ATOM     20  S   UNL     1       0.907  13.596  21.498  0.00  0.00    +0.000 S 
ATOM     21  O   UNL     1       1.461  12.280  21.293  0.00  0.00    +0.000 OA
ATOM     22  O   UNL     1       1.615  14.595  22.275  0.00  0.00    +0.000 OA
BRANCH  20  23
ATOM     23  C   UNL     1      -0.689  13.394  22.231  0.00  0.00    +0.000 A 
ATOM     24  C   UNL     1      -1.143  12.138  22.703  0.00  0.00    +0.000 A 
ATOM     25  C   UNL     1      -2.435  11.938  23.255  0.00  0.00    +0.000 A 
ATOM     26  C   UNL     1      -3.389  12.963  23.367  0.00  0.00    +0.000 A 
ATOM     27  C   UNL     1      -2.992  14.235  22.887  0.00  0.00    +0.000 A 
ATOM     28  N   UNL     1      -3.757  15.336  22.881  0.00  0.00    +0.000 NA
ATOM     29  S   UNL     1      -2.844  16.545  22.206  0.00  0.00    +0.000 S 
ATOM     30  N   UNL     1      -1.425  15.738  21.921  0.00  0.00    +0.000 NA
ATOM     31  C   UNL     1      -1.609  14.464  22.309  0.00  0.00    +0.000 A 
ENDBRANCH  20  23
ENDBRANCH   5  20
TORSDOF 6
ENDMDL
MODEL 8
REMARK VINA RESULT:      -7.0      3.991      7.316
REMARK  Name = 
REMARK  8 active torsions:
REMARK  status: ('A' for Active; 'I' for Inactive)
REMARK    1  A    between atoms: C_1  and  O_2
REMARK    2  A    between atoms: O_2  and  C_3
REMARK    3  A    between atoms: C_6  and  O_7
REMARK    4  A    between atoms: O_7  and  C_8
REMARK    5  A    between atoms: C_9  and  N_10
REMARK    6  A    between atoms: C_11  and  C_13
REMARK    7  A    between atoms: N_17  and  S_18
REMARK    8  A    between atoms: S_18  and  C_21
REMARK                            x       y       z     vdW  Elec       q    Type
REMARK                         _______ _______ _______ _____ _____    ______ ____
ROOT
ATOM      1  C   UNL     1       0.839  12.081  18.606  0.00  0.00    +0.000 C 
ATOM      2  C   UNL     1       2.308  12.354  18.280  0.00  0.00    +0.000 C 
ATOM      3  C   UNL     1       2.379  13.867  18.176  0.00  0.00    +0.000 C 
ATOM      4  C   UNL     1       1.196  14.395  18.986  0.00  0.00    +0.000 C 
ATOM      5  N   UNL     1       0.508  13.189  19.570  0.00  0.00    +0.000 NA
ENDROOT
BRANCH   1   7
ATOM      6  N   UNL     1       1.689   9.782  18.783  0.00  0.00    +0.000 N 
ATOM      7  C   UNL     1       0.562  10.584  18.768  0.00  0.00    +0.000 C 
ATOM      8  O   UNL     1      -0.587  10.195  18.971  0.00  0.00    +0.000 OA
ATOM      9  H   UNL     1       2.440  10.129  18.188  0.00  0.00    +0.000 HD
BRANCH   6  14
ATOM     10  C   UNL     1       2.591   6.193  18.529  0.00  0.00    +0.000 A 
ATOM     11  C   UNL     1       2.277   5.700  19.789  0.00  0.00    +0.000 A 
ATOM     12  C   UNL     1       1.741   6.543  20.757  0.00  0.00    +0.000 A 
ATOM     13  C   UNL     1       1.495   7.901  20.483  0.00  0.00    +0.000 A 
ATOM     14  C   UNL     1       1.811   8.422  19.206  0.00  0.00    +0.000 A 
ATOM     15  C   UNL     1       2.360   7.544  18.244  0.00  0.00    +0.000 A 
BRANCH  10  17
ATOM     16  C   UNL     1       2.394   4.055  17.500  0.00  0.00    +0.000 C 
ATOM     17  O   UNL     1       3.128   5.254  17.694  0.00  0.00    +0.000 OA
ENDBRANCH  10  17
BRANCH  13  18
ATOM     18  O   UNL     1       1.072   8.737  21.485  0.00  0.00    +0.000 OA
ATOM     19  C   UNL     1      -0.261   8.518  21.952  0.00  0.00    +0.000 C 
ENDBRANCH  13  18
ENDBRANCH   6  14
ENDBRANCH   1   7
BRANCH   5  20
ATOM     20  S   UNL     1       0.856  12.939  21.223  0.00  0.00    +0.000 S 
ATOM     21  O   UNL     1       1.349  11.593  21.380  0.00  0.00    +0.000 OA
ATOM     22  O   UNL     1       1.624  14.078  21.690  0.00  0.00    +0.000 OA
BRANCH  20  23
ATOM     23  C   UNL     1      -0.729  13.020  22.001  0.00  0.00    +0.000 A 
ATOM     24  C   UNL     1      -1.295  11.903  22.665  0.00  0.00    +0.000 A 
ATOM     25  C   UNL     1      -2.584  11.926  23.260  0.00  0.00    +0.000 A 
ATOM     26  C   UNL     1      -3.423  13.052  23.228  0.00  0.00    +0.000 A 
ATOM     27  C   UNL     1      -2.912  14.189  22.555  0.00  0.00    +0.000 A 
ATOM     28  N   UNL     1      -3.560  15.352  22.392  0.00  0.00    +0.000 NA
ATOM     29  S   UNL     1      -2.549  16.342  21.528  0.00  0.00    +0.000 S 
ATOM     30  N   UNL     1      -1.229  15.355  21.349  0.00  0.00    +0.000 NA
ATOM     31  C   UNL     1      -1.531  14.181  21.929  0.00  0.00    +0.000 A 
ENDBRANCH  20  23
ENDBRANCH   5  20
TORSDOF 6
ENDMDL
MODEL 9
REMARK VINA RESULT:      -7.0      4.707      7.949
REMARK  Name = 
REMARK  8 active torsions:
REMARK  status: ('A' for Active; 'I' for Inactive)
REMARK    1  A    between atoms: C_1  and  O_2
REMARK    2  A    between atoms: O_2  and  C_3
REMARK    3  A    between atoms: C_6  and  O_7
REMARK    4  A    between atoms: O_7  and  C_8
REMARK    5  A    between atoms: C_9  and  N_10
REMARK    6  A    between atoms: C_11  and  C_13
REMARK    7  A    between atoms: N_17  and  S_18
REMARK    8  A    between atoms: S_18  and  C_21
REMARK                            x       y       z     vdW  Elec       q    Type
REMARK                         _______ _______ _______ _____ _____    ______ ____
ROOT
ATOM      1  C   UNL     1      -0.729  12.381  19.031  0.00  0.00    +0.000 C 
ATOM      2  C   UNL     1       0.525  13.238  18.858  0.00  0.00    +0.000 C 
ATOM      3  C   UNL     1       0.040  14.649  19.142  0.00  0.00    +0.000 C 
ATOM      4  C   UNL     1      -1.216  14.492  19.999  0.00  0.00    +0.000 C 
ATOM      5  N   UNL     1      -1.394  13.014  20.226  0.00  0.00    +0.000 NA
ENDROOT
BRANCH   1   7
ATOM      6  N   UNL     1       0.897  10.547  18.869  0.00  0.00    +0.000 N 
ATOM      7  C   UNL     1      -0.439  10.896  18.798  0.00  0.00    +0.000 C 
ATOM      8  O   UNL     1      -1.373  10.106  18.666  0.00  0.00    +0.000 OA
ATOM      9  H   UNL     1       1.525  11.277  18.535  0.00  0.00    +0.000 HD
BRANCH   6  14
ATOM     10  C   UNL     1       2.991   7.631  17.936  0.00  0.00    +0.000 A 
ATOM     11  C   UNL     1       2.840   6.776  19.020  0.00  0.00    +0.000 A 
ATOM     12  C   UNL     1       2.024   7.135  20.088  0.00  0.00    +0.000 A 
ATOM     13  C   UNL     1       1.330   8.359  20.091  0.00  0.00    +0.000 A 
ATOM     14  C   UNL     1       1.473   9.245  18.997  0.00  0.00    +0.000 A 
ATOM     15  C   UNL     1       2.314   8.855  17.928  0.00  0.00    +0.000 A 
BRANCH  10  17
ATOM     16  C   UNL     1       4.530   5.945  17.258  0.00  0.00    +0.000 C 
ATOM     17  O   UNL     1       3.838   7.151  16.977  0.00  0.00    +0.000 OA
ENDBRANCH  10  17
BRANCH  13  18
ATOM     18  O   UNL     1       0.622   8.743  21.202  0.00  0.00    +0.000 OA
ATOM     19  C   UNL     1       1.405   9.187  22.312  0.00  0.00    +0.000 C 
ENDBRANCH  13  18
ENDBRANCH   6  14
ENDBRANCH   1   7
BRANCH   5  20
ATOM     20  S   UNL     1      -0.903  12.497  21.778  0.00  0.00    +0.000 S 
ATOM     21  O   UNL     1      -1.360  11.143  21.966  0.00  0.00    +0.000 OA
ATOM     22  O   UNL     1       0.496  12.846  21.936  0.00  0.00    +0.000 OA
BRANCH  20  23
ATOM     23  C   UNL     1      -1.829  13.530  22.874  0.00  0.00    +0.000 A 
ATOM     24  C   UNL     1      -1.197  14.369  23.825  0.00  0.00    +0.000 A 
ATOM     25  C   UNL     1      -1.914  15.175  24.746  0.00  0.00    +0.000 A 
ATOM     26  C   UNL     1      -3.318  15.200  24.813  0.00  0.00    +0.000 A 
ATOM     27  C   UNL     1      -3.998  14.359  23.898  0.00  0.00    +0.000 A 
ATOM     28  N   UNL     1      -5.329  14.219  23.814  0.00  0.00    +0.000 NA
ATOM     29  S   UNL     1      -5.614  13.116  22.610  0.00  0.00    +0.000 S 
ATOM     30  N   UNL     1      -4.066  12.790  22.115  0.00  0.00    +0.000 NA
ATOM     31  C   UNL     1      -3.242  13.506  22.899  0.00  0.00    +0.000 A 
ENDBRANCH  20  23
ENDBRANCH   5  20
TORSDOF 6
ENDMDL
