MODEL 1
REMARK VINA RESULT:      -8.5      0.000      0.000
REMARK  Name = 
REMARK  12 active torsions:
REMARK  status: ('A' for Active; 'I' for Inactive)
REMARK    1  A    between atoms: C_1  and  C_2
REMARK    2  A    between atoms: C_2  and  C_3
REMARK    3  A    between atoms: C_2  and  C_4
REMARK    4  A    between atoms: C_2  and  C_5
REMARK    5  A    between atoms: C_7  and  C_8
REMARK    6  A    between atoms: C_11  and  C_12
REMARK    7  A    between atoms: C_12  and  C_13
REMARK    8  A    between atoms: C_13  and  O_15
REMARK    9  A    between atoms: C_19  and  C_20
REMARK   10  A    between atoms: C_20  and  C_21
REMARK   11  A    between atoms: C_20  and  C_22
REMARK   12  A    between atoms: C_20  and  C_23
REMARK                            x       y       z     vdW  Elec       q    Type
REMARK                         _______ _______ _______ _____ _____    ______ ____
ROOT
ATOM      1  C   UNL     1       2.905   4.098  18.866  0.00  0.00    +0.000 A 
ATOM      2  C   UNL     1       2.327   5.342  19.184  0.00  0.00    +0.000 A 
ATOM      3  C   UNL     1       2.828   6.555  18.680  0.00  0.00    +0.000 A 
ATOM      4  C   UNL     1       3.973   6.490  17.864  0.00  0.00    +0.000 A 
ATOM      5  C   UNL     1       4.532   5.280  17.435  0.00  0.00    +0.000 A 
ATOM      6  C   UNL     1       3.998   4.101  17.980  0.00  0.00    +0.000 A 
ENDROOT
BRANCH   3   7
ATOM      7  C   UNL     1       2.129   7.846  18.887  0.00  0.00    +0.000 A 
ATOM      8  C   UNL     1       1.568   8.225  20.117  0.00  0.00    +0.000 A 
ATOM      9  C   UNL     1       0.860   9.427  20.256  0.00  0.00    +0.000 A 
ATOM     10  C   UNL     1       0.711  10.304  19.173  0.00  0.00    +0.000 A 
ATOM     11  C   UNL     1       1.245   9.933  17.943  0.00  0.00    +0.000 A 
ATOM     12  C   UNL     1       1.938   8.729  17.806  0.00  0.00    +0.000 A 
BRANCH  10  13
ATOM     13  C   UNL     1      -0.097  11.570  19.336  0.00  0.00    +0.000 C 
BRANCH  13  14
ATOM     14  C   UNL     1      -1.258  11.718  18.380  0.00  0.00    +0.000 C 
ATOM     15  O   UNL     1      -2.265  11.021  18.412  0.00  0.00    +0.000 OA
BRANCH  14  16
ATOM     16  O   UNL     1      -1.111  12.723  17.484  0.00  0.00    +0.000 OA
ATOM     17  H   UNL     1      -1.323  13.604  17.854  0.00  0.00    +0.000 HD
ENDBRANCH  14  16
ENDBRANCH  13  14
ENDBRANCH  10  13
ENDBRANCH   3   7
BRANCH   1  19
ATOM     18  C   UNL     1       3.153   1.625  18.807  0.00  0.00    +0.000 C 
ATOM     19  C   UNL     1       2.278   2.775  19.346  0.00  0.00    +0.000 C 
ATOM     20  C   UNL     1       0.832   2.582  18.841  0.00  0.00    +0.000 C 
ATOM     21  C   UNL     1       2.218   2.661  20.889  0.00  0.00    +0.000 C 
ENDBRANCH   1  19
BRANCH   5  22
ATOM     22  C   UNL     1       5.660   5.253  16.387  0.00  0.00    +0.000 C 
ATOM     23  C   UNL     1       5.348   6.289  15.295  0.00  0.00    +0.000 C 
ATOM     24  C   UNL     1       7.036   5.572  17.014  0.00  0.00    +0.000 C 
ATOM     25  C   UNL     1       5.812   3.864  15.715  0.00  0.00    +0.000 C 
ENDBRANCH   5  22
TORSDOF 6
ENDMDL
MODEL 2
REMARK VINA RESULT:      -8.4      0.661      3.697
REMARK  Name = 
REMARK  12 active torsions:
REMARK  status: ('A' for Active; 'I' for Inactive)
REMARK    1  A    between atoms: C_1  and  C_2
REMARK    2  A    between atoms: C_2  and  C_3
REMARK    3  A    between atoms: C_2  and  C_4
REMARK    4  A    between atoms: C_2  and  C_5
REMARK    5  A    between atoms: C_7  and  C_8
REMARK    6  A    between atoms: C_11  and  C_12
REMARK    7  A    between atoms: C_12  and  C_13
REMARK    8  A    between atoms: C_13  and  O_15
REMARK    9  A    between atoms: C_19  and  C_20
REMARK   10  A    between atoms: C_20  and  C_21
REMARK   11  A    between atoms: C_20  and  C_22
REMARK   12  A    between atoms: C_20  and  C_23
REMARK                            x       y       z     vdW  Elec       q    Type
REMARK                         _______ _______ _______ _____ _____    ______ ____
ROOT
ATOM      1  C   UNL     1       5.087   5.514  17.532  0.00  0.00    +0.000 A 
ATOM      2  C   UNL     1       4.311   6.673  17.721  0.00  0.00    +0.000 A 
ATOM      3  C   UNL     1       3.014   6.630  18.261  0.00  0.00    +0.000 A 
ATOM      4  C   UNL     1       2.489   5.362  18.575  0.00  0.00    +0.000 A 
ATOM      5  C   UNL     1       3.245   4.186  18.501  0.00  0.00    +0.000 A 
ATOM      6  C   UNL     1       4.530   4.288  17.943  0.00  0.00    +0.000 A 
ENDROOT
BRANCH   3   7
ATOM      7  C   UNL     1       2.260   7.858  18.606  0.00  0.00    +0.000 A 
ATOM      8  C   UNL     1       1.719   8.093  19.881  0.00  0.00    +0.000 A 
ATOM      9  C   UNL     1       0.958   9.239  20.150  0.00  0.00    +0.000 A 
ATOM     10  C   UNL     1       0.733  10.204  19.158  0.00  0.00    +0.000 A 
ATOM     11  C   UNL     1       1.246   9.975  17.885  0.00  0.00    +0.000 A 
ATOM     12  C   UNL     1       1.993   8.826  17.618  0.00  0.00    +0.000 A 
BRANCH  10  13
ATOM     13  C   UNL     1      -0.131  11.406  19.460  0.00  0.00    +0.000 C 
BRANCH  13  14
ATOM     14  C   UNL     1      -1.258  11.648  18.483  0.00  0.00    +0.000 C 
ATOM     15  O   UNL     1      -2.275  10.968  18.429  0.00  0.00    +0.000 OA
BRANCH  14  16
ATOM     16  O   UNL     1      -1.066  12.718  17.674  0.00  0.00    +0.000 OA
ATOM     17  H   UNL     1      -1.900  13.091  17.325  0.00  0.00    +0.000 HD
ENDBRANCH  14  16
ENDBRANCH  13  14
ENDBRANCH  10  13
ENDBRANCH   3   7
BRANCH   1  19
ATOM     18  C   UNL     1       7.039   7.033  17.278  0.00  0.00    +0.000 C 
ATOM     19  C   UNL     1       6.543   5.593  17.034  0.00  0.00    +0.000 C 
ATOM     20  C   UNL     1       6.677   5.265  15.531  0.00  0.00    +0.000 C 
ATOM     21  C   UNL     1       7.489   4.619  17.778  0.00  0.00    +0.000 C 
ENDBRANCH   1  19
BRANCH   5  22
ATOM     22  C   UNL     1       2.696   2.853  19.041  0.00  0.00    +0.000 C 
ATOM     23  C   UNL     1       2.827   2.845  20.573  0.00  0.00    +0.000 C 
ATOM     24  C   UNL     1       1.214   2.642  18.654  0.00  0.00    +0.000 C 
ATOM     25  C   UNL     1       3.460   1.626  18.477  0.00  0.00    +0.000 C 
ENDBRANCH   5  22
TORSDOF 6
ENDMDL
MODEL 3
REMARK VINA RESULT:      -8.4      0.694      3.702
REMARK  Name = 
REMARK  12 active torsions:
REMARK  status: ('A' for Active; 'I' for Inactive)
REMARK    1  A    between atoms: C_1  and  C_2
REMARK    2  A    between atoms: C_2  and  C_3
REMARK    3  A    between atoms: C_2  and  C_4
REMARK    4  A    between atoms: C_2  and  C_5
REMARK    5  A    between atoms: C_7  and  C_8
REMARK    6  A    between atoms: C_11  and  C_12
REMARK    7  A    between atoms: C_12  and  C_13
REMARK    8  A    between atoms: C_13  and  O_15
REMARK    9  A    between atoms: C_19  and  C_20
REMARK   10  A    between atoms: C_20  and  C_21
REMARK   11  A    between atoms: C_20  and  C_22
REMARK   12  A    between atoms: C_20  and  C_23
REMARK                            x       y       z     vdW  Elec       q    Type
REMARK                         _______ _______ _______ _____ _____    ______ ____
ROOT
ATOM      1  C   UNL     1       5.123   5.570  17.572  0.00  0.00    +0.000 A 
ATOM      2  C   UNL     1       4.336   6.723  17.755  0.00  0.00    +0.000 A 
ATOM      3  C   UNL     1       3.030   6.667  18.271  0.00  0.00    +0.000 A 
ATOM      4  C   UNL     1       2.507   5.394  18.567  0.00  0.00    +0.000 A 
ATOM      5  C   UNL     1       3.273   4.224  18.499  0.00  0.00    +0.000 A 
ATOM      6  C   UNL     1       4.567   4.339  17.965  0.00  0.00    +0.000 A 
ENDROOT
BRANCH   3   7
ATOM      7  C   UNL     1       2.261   7.889  18.610  0.00  0.00    +0.000 A 
ATOM      8  C   UNL     1       1.707   8.118  19.881  0.00  0.00    +0.000 A 
ATOM      9  C   UNL     1       0.933   9.256  20.144  0.00  0.00    +0.000 A 
ATOM     10  C   UNL     1       0.708  10.220  19.152  0.00  0.00    +0.000 A 
ATOM     11  C   UNL     1       1.234   9.997  17.882  0.00  0.00    +0.000 A 
ATOM     12  C   UNL     1       1.993   8.855  17.620  0.00  0.00    +0.000 A 
BRANCH  10  13
ATOM     13  C   UNL     1      -0.170  11.413  19.446  0.00  0.00    +0.000 C 
BRANCH  13  14
ATOM     14  C   UNL     1      -1.274  11.661  18.446  0.00  0.00    +0.000 C 
ATOM     15  O   UNL     1      -2.288  10.979  18.362  0.00  0.00    +0.000 OA
BRANCH  14  16
ATOM     16  O   UNL     1      -1.068  12.739  17.652  0.00  0.00    +0.000 OA
ATOM     17  H   UNL     1      -0.945  12.506  16.710  0.00  0.00    +0.000 HD
ENDBRANCH  14  16
ENDBRANCH  13  14
ENDBRANCH  10  13
ENDBRANCH   3   7
BRANCH   1  19
ATOM     18  C   UNL     1       7.404   4.644  17.921  0.00  0.00    +0.000 C 
ATOM     19  C   UNL     1       6.587   5.663  17.101  0.00  0.00    +0.000 C 
ATOM     20  C   UNL     1       7.191   7.070  17.307  0.00  0.00    +0.000 C 
ATOM     21  C   UNL     1       6.760   5.332  15.599  0.00  0.00    +0.000 C 
ENDBRANCH   1  19
BRANCH   5  22
ATOM     22  C   UNL     1       2.723   2.883  19.019  0.00  0.00    +0.000 C 
ATOM     23  C   UNL     1       1.225   2.797  18.685  0.00  0.00    +0.000 C 
ATOM     24  C   UNL     1       3.456   1.677  18.389  0.00  0.00    +0.000 C 
ATOM     25  C   UNL     1       2.893   2.728  20.552  0.00  0.00    +0.000 C 
ENDBRANCH   5  22
TORSDOF 6
ENDMDL
MODEL 4
REMARK VINA RESULT:      -8.4      1.511      3.945
REMARK  Name = 
REMARK  12 active torsions:
REMARK  status: ('A' for Active; 'I' for Inactive)
REMARK    1  A    between atoms: C_1  and  C_2
REMARK    2  A    between atoms: C_2  and  C_3
REMARK    3  A    between atoms: C_2  and  C_4
REMARK    4  A    between atoms: C_2  and  C_5
REMARK    5  A    between atoms: C_7  and  C_8
REMARK    6  A    between atoms: C_11  and  C_12
REMARK    7  A    between atoms: C_12  and  C_13
REMARK    8  A    between atoms: C_13  and  O_15
REMARK    9  A    between atoms: C_19  and  C_20
REMARK   10  A    between atoms: C_20  and  C_21
REMARK   11  A    between atoms: C_20  and  C_22
REMARK   12  A    between atoms: C_20  and  C_23
REMARK                            x       y       z     vdW  Elec       q    Type
REMARK                         _______ _______ _______ _____ _____    ______ ____
ROOT
ATOM      1  C   UNL     1       4.982   5.443  17.425  0.00  0.00    +0.000 A 
ATOM      2  C   UNL     1       4.224   6.590  17.724  0.00  0.00    +0.000 A 
ATOM      3  C   UNL     1       2.960   6.518  18.336  0.00  0.00    +0.000 A 
ATOM      4  C   UNL     1       2.448   5.235  18.608  0.00  0.00    +0.000 A 
ATOM      5  C   UNL     1       3.195   4.065  18.424  0.00  0.00    +0.000 A 
ATOM      6  C   UNL     1       4.445   4.197  17.798  0.00  0.00    +0.000 A 
ENDROOT
BRANCH   3   7
ATOM      7  C   UNL     1       2.232   7.726  18.793  0.00  0.00    +0.000 A 
ATOM      8  C   UNL     1       1.806   7.908  20.119  0.00  0.00    +0.000 A 
ATOM      9  C   UNL     1       1.065   9.036  20.498  0.00  0.00    +0.000 A 
ATOM     10  C   UNL     1       0.747  10.035  19.568  0.00  0.00    +0.000 A 
ATOM     11  C   UNL     1       1.147   9.859  18.246  0.00  0.00    +0.000 A 
ATOM     12  C   UNL     1       1.873   8.728  17.870  0.00  0.00    +0.000 A 
BRANCH  10  13
ATOM     13  C   UNL     1      -0.093  11.217  19.990  0.00  0.00    +0.000 C 
BRANCH  13  14
ATOM     14  C   UNL     1       0.381  11.930  21.235  0.00  0.00    +0.000 C 
ATOM     15  O   UNL     1      -0.227  11.930  22.298  0.00  0.00    +0.000 OA
BRANCH  14  16
ATOM     16  O   UNL     1       1.572  12.559  21.090  0.00  0.00    +0.000 OA
ATOM     17  H   UNL     1       1.497  13.436  20.663  0.00  0.00    +0.000 HD
ENDBRANCH  14  16
ENDBRANCH  13  14
ENDBRANCH  10  13
ENDBRANCH   3   7
BRANCH   1  19
ATOM     18  C   UNL     1       6.908   6.984  17.108  0.00  0.00    +0.000 C 
ATOM     19  C   UNL     1       6.407   5.549  16.848  0.00  0.00    +0.000 C 
ATOM     20  C   UNL     1       6.457   5.269  15.330  0.00  0.00    +0.000 C 
ATOM     21  C   UNL     1       7.399   4.560  17.505  0.00  0.00    +0.000 C 
ENDBRANCH   1  19
BRANCH   5  22
ATOM     22  C   UNL     1       2.672   2.703  18.918  0.00  0.00    +0.000 C 
ATOM     23  C   UNL     1       3.469   1.585  18.227  0.00  0.00    +0.000 C 
ATOM     24  C   UNL     1       2.811   2.556  20.451  0.00  0.00    +0.000 C 
ATOM     25  C   UNL     1       1.167   2.498  18.608  0.00  0.00    +0.000 C 
ENDBRANCH   5  22
TORSDOF 6
ENDMDL
MODEL 5
REMARK VINA RESULT:      -8.4      0.117      1.257
REMARK  Name = 
REMARK  12 active torsions:
REMARK  status: ('A' for Active; 'I' for Inactive)
REMARK    1  A    between atoms: C_1  and  C_2
REMARK    2  A    between atoms: C_2  and  C_3
REMARK    3  A    between atoms: C_2  and  C_4
REMARK    4  A    between atoms: C_2  and  C_5
REMARK    5  A    between atoms: C_7  and  C_8
REMARK    6  A    between atoms: C_11  and  C_12
REMARK    7  A    between atoms: C_12  and  C_13
REMARK    8  A    between atoms: C_13  and  O_15
REMARK    9  A    between atoms: C_19  and  C_20
REMARK   10  A    between atoms: C_20  and  C_21
REMARK   11  A    between atoms: C_20  and  C_22
REMARK   12  A    between atoms: C_20  and  C_23
REMARK                            x       y       z     vdW  Elec       q    Type
REMARK                         _______ _______ _______ _____ _____    ______ ____
ROOT
ATOM      1  C   UNL     1       2.994   4.103  18.806  0.00  0.00    +0.000 A 
ATOM      2  C   UNL     1       2.401   5.335  19.137  0.00  0.00    +0.000 A 
ATOM      3  C   UNL     1       2.881   6.559  18.639  0.00  0.00    +0.000 A 
ATOM      4  C   UNL     1       4.021   6.516  17.814  0.00  0.00    +0.000 A 
ATOM      5  C   UNL     1       4.594   5.317  17.371  0.00  0.00    +0.000 A 
ATOM      6  C   UNL     1       4.080   4.127  17.912  0.00  0.00    +0.000 A 
ENDROOT
BRANCH   3   7
ATOM      7  C   UNL     1       2.166   7.838  18.859  0.00  0.00    +0.000 A 
ATOM      8  C   UNL     1       1.584   8.188  20.089  0.00  0.00    +0.000 A 
ATOM      9  C   UNL     1       0.861   9.380  20.240  0.00  0.00    +0.000 A 
ATOM     10  C   UNL     1       0.717  10.276  19.172  0.00  0.00    +0.000 A 
ATOM     11  C   UNL     1       1.272   9.933  17.943  0.00  0.00    +0.000 A 
ATOM     12  C   UNL     1       1.980   8.739  17.792  0.00  0.00    +0.000 A 
BRANCH  10  13
ATOM     13  C   UNL     1      -0.106  11.529  19.347  0.00  0.00    +0.000 C 
BRANCH  13  14
ATOM     14  C   UNL     1      -1.292  11.653  18.419  0.00  0.00    +0.000 C 
ATOM     15  O   UNL     1      -2.291  10.948  18.487  0.00  0.00    +0.000 OA
BRANCH  14  16
ATOM     16  O   UNL     1      -1.177  12.647  17.506  0.00  0.00    +0.000 OA
ATOM     17  H   UNL     1      -1.670  12.472  16.680  0.00  0.00    +0.000 HD
ENDBRANCH  14  16
ENDBRANCH  13  14
ENDBRANCH  10  13
ENDBRANCH   3   7
BRANCH   1  19
ATOM     18  C   UNL     1       2.472   2.742  20.821  0.00  0.00    +0.000 C 
ATOM     19  C   UNL     1       2.390   2.767  19.281  0.00  0.00    +0.000 C 
ATOM     20  C   UNL     1       3.142   1.540  18.720  0.00  0.00    +0.000 C 
ATOM     21  C   UNL     1       0.908   2.594  18.869  0.00  0.00    +0.000 C 
ENDBRANCH   1  19
BRANCH   5  22
ATOM     22  C   UNL     1       5.714   5.314  16.315  0.00  0.00    +0.000 C 
ATOM     23  C   UNL     1       5.897   3.881  15.789  0.00  0.00    +0.000 C 
ATOM     24  C   UNL     1       5.391   6.254  15.131  0.00  0.00    +0.000 C 
ATOM     25  C   UNL     1       7.069   5.803  16.887  0.00  0.00    +0.000 C 
ENDBRANCH   5  22
TORSDOF 6
ENDMDL
MODEL 6
REMARK VINA RESULT:      -8.3      1.546      4.128
REMARK  Name = 
REMARK  12 active torsions:
REMARK  status: ('A' for Active; 'I' for Inactive)
REMARK    1  A    between atoms: C_1  and  C_2
REMARK    2  A    between atoms: C_2  and  C_3
REMARK    3  A    between atoms: C_2  and  C_4
REMARK    4  A    between atoms: C_2  and  C_5
REMARK    5  A    between atoms: C_7  and  C_8
REMARK    6  A    between atoms: C_11  and  C_12
REMARK    7  A    between atoms: C_12  and  C_13
REMARK    8  A    between atoms: C_13  and  O_15
REMARK    9  A    between atoms: C_19  and  C_20
REMARK   10  A    between atoms: C_20  and  C_21
REMARK   11  A    between atoms: C_20  and  C_22
REMARK   12  A    between atoms: C_20  and  C_23
REMARK                            x       y       z     vdW  Elec       q    Type
REMARK                         _______ _______ _______ _____ _____    ______ ____
ROOT
ATOM      1  C   UNL     1       5.110   5.483  17.509  0.00  0.00    +0.000 A 
ATOM      2  C   UNL     1       4.318   6.628  17.717  0.00  0.00    +0.000 A 
ATOM      3  C   UNL     1       3.025   6.559  18.264  0.00  0.00    +0.000 A 
ATOM      4  C   UNL     1       2.520   5.280  18.566  0.00  0.00    +0.000 A 
ATOM      5  C   UNL     1       3.294   4.116  18.473  0.00  0.00    +0.000 A 
ATOM      6  C   UNL     1       4.574   4.245  17.908  0.00  0.00    +0.000 A 
ENDROOT
BRANCH   3   7
ATOM      7  C   UNL     1       2.255   7.772  18.628  0.00  0.00    +0.000 A 
ATOM      8  C   UNL     1       2.056   8.847  17.745  0.00  0.00    +0.000 A 
ATOM      9  C   UNL     1       1.375  10.004  18.148  0.00  0.00    +0.000 A 
ATOM     10  C   UNL     1       0.846  10.115  19.441  0.00  0.00    +0.000 A 
ATOM     11  C   UNL     1       1.051   9.066  20.332  0.00  0.00    +0.000 A 
ATOM     12  C   UNL     1       1.741   7.921  19.931  0.00  0.00    +0.000 A 
BRANCH  10  13
ATOM     13  C   UNL     1       0.158  11.391  19.866  0.00  0.00    +0.000 C 
BRANCH  13  14
ATOM     14  C   UNL     1       0.784  12.095  21.047  0.00  0.00    +0.000 C 
ATOM     15  O   UNL     1       1.912  12.572  21.041  0.00  0.00    +0.000 OA
BRANCH  14  16
ATOM     16  O   UNL     1      -0.029  12.188  22.127  0.00  0.00    +0.000 OA
ATOM     17  H   UNL     1      -0.893  12.599  21.926  0.00  0.00    +0.000 HD
ENDBRANCH  14  16
ENDBRANCH  13  14
ENDBRANCH  10  13
ENDBRANCH   3   7
BRANCH   1  19
ATOM     18  C   UNL     1       6.541   5.360  15.479  0.00  0.00    +0.000 C 
ATOM     19  C   UNL     1       6.562   5.590  17.003  0.00  0.00    +0.000 C 
ATOM     20  C   UNL     1       7.498   4.548  17.654  0.00  0.00    +0.000 C 
ATOM     21  C   UNL     1       7.195   6.975  17.279  0.00  0.00    +0.000 C 
ENDBRANCH   1  19
BRANCH   5  22
ATOM     22  C   UNL     1       2.768   2.768  18.999  0.00  0.00    +0.000 C 
ATOM     23  C   UNL     1       3.563   1.632  18.336  0.00  0.00    +0.000 C 
ATOM     24  C   UNL     1       2.904   2.657  20.535  0.00  0.00    +0.000 C 
ATOM     25  C   UNL     1       1.263   2.558  18.691  0.00  0.00    +0.000 C 
ENDBRANCH   5  22
TORSDOF 6
ENDMDL
MODEL 7
REMARK VINA RESULT:      -8.3      0.558      1.438
REMARK  Name = 
REMARK  12 active torsions:
REMARK  status: ('A' for Active; 'I' for Inactive)
REMARK    1  A    between atoms: C_1  and  C_2
REMARK    2  A    between atoms: C_2  and  C_3
REMARK    3  A    between atoms: C_2  and  C_4
REMARK    4  A    between atoms: C_2  and  C_5
REMARK    5  A    between atoms: C_7  and  C_8
REMARK    6  A    between atoms: C_11  and  C_12
REMARK    7  A    between atoms: C_12  and  C_13
REMARK    8  A    between atoms: C_13  and  O_15
REMARK    9  A    between atoms: C_19  and  C_20
REMARK   10  A    between atoms: C_20  and  C_21
REMARK   11  A    between atoms: C_20  and  C_22
REMARK   12  A    between atoms: C_20  and  C_23
REMARK                            x       y       z     vdW  Elec       q    Type
REMARK                         _______ _______ _______ _____ _____    ______ ____
ROOT
ATOM      1  C   UNL     1       3.345   4.236  19.382  0.00  0.00    +0.000 A 
ATOM      2  C   UNL     1       2.642   5.440  19.577  0.00  0.00    +0.000 A 
ATOM      3  C   UNL     1       2.931   6.606  18.848  0.00  0.00    +0.000 A 
ATOM      4  C   UNL     1       3.994   6.543  17.927  0.00  0.00    +0.000 A 
ATOM      5  C   UNL     1       4.663   5.352  17.620  0.00  0.00    +0.000 A 
ATOM      6  C   UNL     1       4.341   4.222  18.389  0.00  0.00    +0.000 A 
ENDROOT
BRANCH   3   7
ATOM      7  C   UNL     1       2.092   7.824  18.939  0.00  0.00    +0.000 A 
ATOM      8  C   UNL     1       1.847   8.670  17.844  0.00  0.00    +0.000 A 
ATOM      9  C   UNL     1       1.099   9.847  17.986  0.00  0.00    +0.000 A 
ATOM     10  C   UNL     1       0.548  10.206  19.223  0.00  0.00    +0.000 A 
ATOM     11  C   UNL     1       0.798   9.388  20.321  0.00  0.00    +0.000 A 
ATOM     12  C   UNL     1       1.554   8.223  20.179  0.00  0.00    +0.000 A 
BRANCH  10  13
ATOM     13  C   UNL     1      -0.213  11.504  19.360  0.00  0.00    +0.000 C 
BRANCH  13  14
ATOM     14  C   UNL     1      -1.339  11.696  18.372  0.00  0.00    +0.000 C 
ATOM     15  O   UNL     1      -2.374  11.042  18.378  0.00  0.00    +0.000 OA
BRANCH  14  16
ATOM     16  O   UNL     1      -1.124  12.691  17.478  0.00  0.00    +0.000 OA
ATOM     17  H   UNL     1      -1.330  13.579  17.831  0.00  0.00    +0.000 HD
ENDBRANCH  14  16
ENDBRANCH  13  14
ENDBRANCH  10  13
ENDBRANCH   3   7
BRANCH   1  19
ATOM     18  C   UNL     1       4.230   2.124  20.352  0.00  0.00    +0.000 C 
ATOM     19  C   UNL     1       2.944   2.943  20.119  0.00  0.00    +0.000 C 
ATOM     20  C   UNL     1       1.943   2.085  19.315  0.00  0.00    +0.000 C 
ATOM     21  C   UNL     1       2.282   3.212  21.492  0.00  0.00    +0.000 C 
ENDBRANCH   1  19
BRANCH   5  22
ATOM     22  C   UNL     1       5.682   5.288  16.467  0.00  0.00    +0.000 C 
ATOM     23  C   UNL     1       7.066   5.690  17.004  0.00  0.00    +0.000 C 
ATOM     24  C   UNL     1       5.766   3.873  15.850  0.00  0.00    +0.000 C 
ATOM     25  C   UNL     1       5.315   6.238  15.298  0.00  0.00    +0.000 C 
ENDBRANCH   5  22
TORSDOF 6
ENDMDL
MODEL 8
REMARK VINA RESULT:      -8.3      0.953      3.813
REMARK  Name = 
REMARK  12 active torsions:
REMARK  status: ('A' for Active; 'I' for Inactive)
REMARK    1  A    between atoms: C_1  and  C_2
REMARK    2  A    between atoms: C_2  and  C_3
REMARK    3  A    between atoms: C_2  and  C_4
REMARK    4  A    between atoms: C_2  and  C_5
REMARK    5  A    between atoms: C_7  and  C_8
REMARK    6  A    between atoms: C_11  and  C_12
REMARK    7  A    between atoms: C_12  and  C_13
REMARK    8  A    between atoms: C_13  and  O_15
REMARK    9  A    between atoms: C_19  and  C_20
REMARK   10  A    between atoms: C_20  and  C_21
REMARK   11  A    between atoms: C_20  and  C_22
REMARK   12  A    between atoms: C_20  and  C_23
REMARK                            x       y       z     vdW  Elec       q    Type
REMARK                         _______ _______ _______ _____ _____    ______ ____
ROOT
ATOM      1  C   UNL     1       5.277   5.566  18.179  0.00  0.00    +0.000 A 
ATOM      2  C   UNL     1       4.451   6.705  18.214  0.00  0.00    +0.000 A 
ATOM      3  C   UNL     1       3.070   6.626  18.465  0.00  0.00    +0.000 A 
ATOM      4  C   UNL     1       2.521   5.342  18.644  0.00  0.00    +0.000 A 
ATOM      5  C   UNL     1       3.304   4.184  18.718  0.00  0.00    +0.000 A 
ATOM      6  C   UNL     1       4.675   4.322  18.447  0.00  0.00    +0.000 A 
ENDROOT
BRANCH   3   7
ATOM      7  C   UNL     1       2.231   7.832  18.657  0.00  0.00    +0.000 A 
ATOM      8  C   UNL     1       1.992   8.770  17.638  0.00  0.00    +0.000 A 
ATOM      9  C   UNL     1       1.245   9.931  17.876  0.00  0.00    +0.000 A 
ATOM     10  C   UNL     1       0.686  10.182  19.137  0.00  0.00    +0.000 A 
ATOM     11  C   UNL     1       0.930   9.272  20.162  0.00  0.00    +0.000 A 
ATOM     12  C   UNL     1       1.687   8.123  19.923  0.00  0.00    +0.000 A 
BRANCH  10  13
ATOM     13  C   UNL     1      -0.075  11.464  19.382  0.00  0.00    +0.000 C 
BRANCH  13  14
ATOM     14  C   UNL     1      -1.229  11.715  18.440  0.00  0.00    +0.000 C 
ATOM     15  O   UNL     1      -2.248  11.038  18.410  0.00  0.00    +0.000 OA
BRANCH  14  16
ATOM     16  O   UNL     1      -1.059  12.791  17.635  0.00  0.00    +0.000 OA
ATOM     17  H   UNL     1      -1.832  13.391  17.623  0.00  0.00    +0.000 HD
ENDBRANCH  14  16
ENDBRANCH  13  14
ENDBRANCH  10  13
ENDBRANCH   3   7
BRANCH   1  19
ATOM     18  C   UNL     1       7.438   5.630  19.407  0.00  0.00    +0.000 C 
ATOM     19  C   UNL     1       6.803   5.684  18.003  0.00  0.00    +0.000 C 
ATOM     20  C   UNL     1       7.223   7.002  17.315  0.00  0.00    +0.000 C 
ATOM     21  C   UNL     1       7.402   4.539  17.152  0.00  0.00    +0.000 C 
ENDBRANCH   1  19
BRANCH   5  22
ATOM     22  C   UNL     1       2.685   2.830  19.111  0.00  0.00    +0.000 C 
ATOM     23  C   UNL     1       1.239   2.775  18.592  0.00  0.00    +0.000 C 
ATOM     24  C   UNL     1       3.482   1.641  18.527  0.00  0.00    +0.000 C 
ATOM     25  C   UNL     1       2.663   2.612  20.646  0.00  0.00    +0.000 C 
ENDBRANCH   5  22
TORSDOF 6
ENDMDL
MODEL 9
REMARK VINA RESULT:      -8.3      0.674      3.802
REMARK  Name = 
REMARK  12 active torsions:
REMARK  status: ('A' for Active; 'I' for Inactive)
REMARK    1  A    between atoms: C_1  and  C_2
REMARK    2  A    between atoms: C_2  and  C_3
REMARK    3  A    between atoms: C_2  and  C_4
REMARK    4  A    between atoms: C_2  and  C_5
REMARK    5  A    between atoms: C_7  and  C_8
REMARK    6  A    between atoms: C_11  and  C_12
REMARK    7  A    between atoms: C_12  and  C_13
REMARK    8  A    between atoms: C_13  and  O_15
REMARK    9  A    between atoms: C_19  and  C_20
REMARK   10  A    between atoms: C_20  and  C_21
REMARK   11  A    between atoms: C_20  and  C_22
REMARK   12  A    between atoms: C_20  and  C_23
REMARK                            x       y       z     vdW  Elec       q    Type
REMARK                         _______ _______ _______ _____ _____    ______ ____
ROOT
ATOM      1  C   UNL     1       5.082   5.513  17.580  0.00  0.00    +0.000 A 
ATOM      2  C   UNL     1       4.281   6.663  17.718  0.00  0.00    +0.000 A 
ATOM      3  C   UNL     1       2.964   6.607  18.204  0.00  0.00    +0.000 A 
ATOM      4  C   UNL     1       2.445   5.336  18.516  0.00  0.00    +0.000 A 
ATOM      5  C   UNL     1       3.222   4.171  18.492  0.00  0.00    +0.000 A 
ATOM      6  C   UNL     1       4.527   4.286  17.986  0.00  0.00    +0.000 A 
ENDROOT
BRANCH   3   7
ATOM      7  C   UNL     1       2.177   7.828  18.498  0.00  0.00    +0.000 A 
ATOM      8  C   UNL     1       1.896   8.810  17.533  0.00  0.00    +0.000 A 
ATOM      9  C   UNL     1       1.203   9.982  17.865  0.00  0.00    +0.000 A 
ATOM     10  C   UNL     1       0.742  10.201  19.170  0.00  0.00    +0.000 A 
ATOM     11  C   UNL     1       1.029   9.246  20.142  0.00  0.00    +0.000 A 
ATOM     12  C   UNL     1       1.732   8.086  19.810  0.00  0.00    +0.000 A 
BRANCH  10  13
ATOM     13  C   UNL     1       0.040  11.493  19.514  0.00  0.00    +0.000 C 
BRANCH  13  14
ATOM     14  C   UNL     1      -1.146  11.831  18.641  0.00  0.00    +0.000 C 
ATOM     15  O   UNL     1      -2.224  11.253  18.696  0.00  0.00    +0.000 OA
BRANCH  14  16
ATOM     16  O   UNL     1      -0.931  12.868  17.796  0.00  0.00    +0.000 OA
ATOM     17  H   UNL     1      -1.366  12.754  16.927  0.00  0.00    +0.000 HD
ENDBRANCH  14  16
ENDBRANCH  13  14
ENDBRANCH  10  13
ENDBRANCH   3   7
BRANCH   1  19
ATOM     18  C   UNL     1       6.619   5.262  15.641  0.00  0.00    +0.000 C 
ATOM     19  C   UNL     1       6.556   5.609  17.142  0.00  0.00    +0.000 C 
ATOM     20  C   UNL     1       7.472   4.637  17.918  0.00  0.00    +0.000 C 
ATOM     21  C   UNL     1       7.154   7.022  17.342  0.00  0.00    +0.000 C 
ENDBRANCH   1  19
BRANCH   5  22
ATOM     22  C   UNL     1       2.671   2.837  19.028  0.00  0.00    +0.000 C 
ATOM     23  C   UNL     1       3.479   1.683  18.414  0.00  0.00    +0.000 C 
ATOM     24  C   UNL     1       2.757   2.757  20.569  0.00  0.00    +0.000 C 
ATOM     25  C   UNL     1       1.175   2.630  18.677  0.00  0.00    +0.000 C 
ENDBRANCH   5  22
TORSDOF 6
ENDMDL
