MODEL 1
REMARK VINA RESULT:      -8.6      0.000      0.000
REMARK  Name = 
REMARK  4 active torsions:
REMARK  status: ('A' for Active; 'I' for Inactive)
REMARK    1  A    between atoms: C_4  and  N_5
REMARK    2  A    between atoms: N_5  and  C_6
REMARK    3  A    between atoms: N_18  and  C_19
REMARK    4  A    between atoms: C_19  and  C_20
REMARK                            x       y       z     vdW  Elec       q    Type
REMARK                         _______ _______ _______ _____ _____    ______ ____
ROOT
ATOM      1  O   UNL     1       3.581   2.508  20.748  0.00  0.00    +0.000 OA
ATOM      2  C   UNL     1       2.950   3.453  20.294  0.00  0.00    +0.000 C 
ATOM      3  C   UNL     1       2.151   4.404  21.132  0.00  0.00    +0.000 C 
ATOM      4  C   UNL     1       1.761   5.523  20.177  0.00  0.00    +0.000 C 
ATOM      5  C   UNL     1       2.232   5.008  18.826  0.00  0.00    +0.000 C 
ATOM      6  O   UNL     1       2.149   5.647  17.782  0.00  0.00    +0.000 OA
ATOM      7  N   UNL     1       2.847   3.805  18.981  0.00  0.00    +0.000 N 
ENDROOT
BRANCH   4   8
ATOM      8  N   UNL     1       2.449   6.796  20.481  0.00  0.00    +0.000 N 
ATOM      9  H   UNL     1       3.269   6.920  19.881  0.00  0.00    +0.000 HD
BRANCH   8  10
ATOM     10  C   UNL     1       1.700   7.984  20.528  0.00  0.00    +0.000 A 
ATOM     11  C   UNL     1       1.430   8.763  19.401  0.00  0.00    +0.000 A 
ATOM     12  C   UNL     1       0.610   9.893  19.476  0.00  0.00    +0.000 A 
ATOM     13  C   UNL     1       0.004  10.262  20.679  0.00  0.00    +0.000 A 
ATOM     14  C   UNL     1      -0.830  11.388  20.753  0.00  0.00    +0.000 A 
ATOM     15  C   UNL     1      -1.450  11.736  21.953  0.00  0.00    +0.000 A 
ATOM     16  C   UNL     1      -1.236  10.967  23.092  0.00  0.00    +0.000 A 
ATOM     17  C   UNL     1      -0.402   9.846  23.033  0.00  0.00    +0.000 A 
ATOM     18  C   UNL     1       0.226   9.474  21.829  0.00  0.00    +0.000 A 
ATOM     19  C   UNL     1       1.059   8.339  21.730  0.00  0.00    +0.000 A 
ENDBRANCH   8  10
ENDBRANCH   4   8
BRANCH   7  20
ATOM     20  C   UNL     1       3.565   3.129  17.922  0.00  0.00    +0.000 C 
BRANCH  20  21
ATOM     21  C   UNL     1       4.798   3.866  17.450  0.00  0.00    +0.000 A 
ATOM     22  C   UNL     1       5.759   4.312  18.370  0.00  0.00    +0.000 A 
ATOM     23  C   UNL     1       6.950   4.893  17.927  0.00  0.00    +0.000 A 
ATOM     24  C   UNL     1       7.190   5.043  16.563  0.00  0.00    +0.000 A 
ATOM     25  C   UNL     1       6.227   4.637  15.640  0.00  0.00    +0.000 A 
ATOM     26  C   UNL     1       5.033   4.060  16.080  0.00  0.00    +0.000 A 
ENDBRANCH  20  21
ENDBRANCH   7  20
TORSDOF 4
ENDMDL
MODEL 2
REMARK VINA RESULT:      -8.3      1.358      1.654
REMARK  Name = 
REMARK  4 active torsions:
REMARK  status: ('A' for Active; 'I' for Inactive)
REMARK    1  A    between atoms: C_4  and  N_5
REMARK    2  A    between atoms: N_5  and  C_6
REMARK    3  A    between atoms: N_18  and  C_19
REMARK    4  A    between atoms: C_19  and  C_20
REMARK                            x       y       z     vdW  Elec       q    Type
REMARK                         _______ _______ _______ _____ _____    ______ ____
ROOT
ATOM      1  O   UNL     1       3.602   3.581  20.192  0.00  0.00    +0.000 OA
ATOM      2  C   UNL     1       3.028   4.592  19.810  0.00  0.00    +0.000 C 
ATOM      3  C   UNL     1       1.900   5.242  20.553  0.00  0.00    +0.000 C 
ATOM      4  C   UNL     1       1.685   6.569  19.838  0.00  0.00    +0.000 C 
ATOM      5  C   UNL     1       2.606   6.468  18.632  0.00  0.00    +0.000 C 
ATOM      6  O   UNL     1       2.767   7.370  17.816  0.00  0.00    +0.000 OA
ATOM      7  N   UNL     1       3.288   5.293  18.670  0.00  0.00    +0.000 N 
ENDROOT
BRANCH   4   8
ATOM      8  N   UNL     1       2.085   7.730  20.662  0.00  0.00    +0.000 N 
ATOM      9  H   UNL     1       3.046   8.013  20.451  0.00  0.00    +0.000 HD
BRANCH   8  10
ATOM     10  C   UNL     1       1.247   8.857  20.706  0.00  0.00    +0.000 A 
ATOM     11  C   UNL     1       0.945   9.630  19.583  0.00  0.00    +0.000 A 
ATOM     12  C   UNL     1       0.040  10.694  19.653  0.00  0.00    +0.000 A 
ATOM     13  C   UNL     1      -0.619  10.998  20.847  0.00  0.00    +0.000 A 
ATOM     14  C   UNL     1      -1.538  12.057  20.916  0.00  0.00    +0.000 A 
ATOM     15  C   UNL     1      -2.209  12.340  22.105  0.00  0.00    +0.000 A 
ATOM     16  C   UNL     1      -1.963  11.573  23.239  0.00  0.00    +0.000 A 
ATOM     17  C   UNL     1      -1.045  10.518  23.185  0.00  0.00    +0.000 A 
ATOM     18  C   UNL     1      -0.365  10.213  21.991  0.00  0.00    +0.000 A 
ATOM     19  C   UNL     1       0.554   9.145  21.897  0.00  0.00    +0.000 A 
ENDBRANCH   8  10
ENDBRANCH   4   8
BRANCH   7  20
ATOM     20  C   UNL     1       4.373   4.964  17.771  0.00  0.00    +0.000 C 
BRANCH  20  21
ATOM     21  C   UNL     1       5.660   5.700  18.068  0.00  0.00    +0.000 A 
ATOM     22  C   UNL     1       6.511   5.263  19.094  0.00  0.00    +0.000 A 
ATOM     23  C   UNL     1       7.751   5.872  19.295  0.00  0.00    +0.000 A 
ATOM     24  C   UNL     1       8.151   6.931  18.483  0.00  0.00    +0.000 A 
ATOM     25  C   UNL     1       7.299   7.399  17.484  0.00  0.00    +0.000 A 
ATOM     26  C   UNL     1       6.056   6.793  17.282  0.00  0.00    +0.000 A 
ENDBRANCH  20  21
ENDBRANCH   7  20
TORSDOF 4
ENDMDL
MODEL 3
REMARK VINA RESULT:      -8.2      0.364      1.015
REMARK  Name = 
REMARK  4 active torsions:
REMARK  status: ('A' for Active; 'I' for Inactive)
REMARK    1  A    between atoms: C_4  and  N_5
REMARK    2  A    between atoms: N_5  and  C_6
REMARK    3  A    between atoms: N_18  and  C_19
REMARK    4  A    between atoms: C_19  and  C_20
REMARK                            x       y       z     vdW  Elec       q    Type
REMARK                         _______ _______ _______ _____ _____    ______ ____
ROOT
ATOM      1  O   UNL     1       3.299   2.377  20.154  0.00  0.00    +0.000 OA
ATOM      2  C   UNL     1       2.725   3.406  19.822  0.00  0.00    +0.000 C 
ATOM      3  C   UNL     1       1.919   4.252  20.760  0.00  0.00    +0.000 C 
ATOM      4  C   UNL     1       1.620   5.520  19.972  0.00  0.00    +0.000 C 
ATOM      5  C   UNL     1       2.139   5.196  18.580  0.00  0.00    +0.000 C 
ATOM      6  O   UNL     1       2.133   5.988  17.644  0.00  0.00    +0.000 OA
ATOM      7  N   UNL     1       2.702   3.958  18.576  0.00  0.00    +0.000 N 
ENDROOT
BRANCH   4   8
ATOM      8  N   UNL     1       2.337   6.701  20.498  0.00  0.00    +0.000 N 
ATOM      9  H   UNL     1       3.241   6.815  20.033  0.00  0.00    +0.000 HD
BRANCH   8  10
ATOM     10  C   UNL     1       1.666   7.934  20.564  0.00  0.00    +0.000 A 
ATOM     11  C   UNL     1       1.524   8.786  19.467  0.00  0.00    +0.000 A 
ATOM     12  C   UNL     1       0.777   9.965  19.553  0.00  0.00    +0.000 A 
ATOM     13  C   UNL     1       0.120  10.314  20.735  0.00  0.00    +0.000 A 
ATOM     14  C   UNL     1      -0.641  11.491  20.819  0.00  0.00    +0.000 A 
ATOM     15  C   UNL     1      -1.314  11.820  21.995  0.00  0.00    +0.000 A 
ATOM     16  C   UNL     1      -1.227  10.981  23.101  0.00  0.00    +0.000 A 
ATOM     17  C   UNL     1      -0.467   9.808  23.032  0.00  0.00    +0.000 A 
ATOM     18  C   UNL     1       0.212   9.455  21.851  0.00  0.00    +0.000 A 
ATOM     19  C   UNL     1       0.973   8.271  21.741  0.00  0.00    +0.000 A 
ENDBRANCH   8  10
ENDBRANCH   4   8
BRANCH   7  20
ATOM     20  C   UNL     1       3.449   3.419  17.459  0.00  0.00    +0.000 C 
BRANCH  20  21
ATOM     21  C   UNL     1       4.784   4.092  17.232  0.00  0.00    +0.000 A 
ATOM     22  C   UNL     1       5.107   4.629  15.977  0.00  0.00    +0.000 A 
ATOM     23  C   UNL     1       6.291   5.348  15.796  0.00  0.00    +0.000 A 
ATOM     24  C   UNL     1       7.169   5.529  16.862  0.00  0.00    +0.000 A 
ATOM     25  C   UNL     1       6.877   4.969  18.105  0.00  0.00    +0.000 A 
ATOM     26  C   UNL     1       5.695   4.246  18.287  0.00  0.00    +0.000 A 
ENDBRANCH  20  21
ENDBRANCH   7  20
TORSDOF 4
ENDMDL
MODEL 4
REMARK VINA RESULT:      -8.2      1.425      2.216
REMARK  Name = 
REMARK  4 active torsions:
REMARK  status: ('A' for Active; 'I' for Inactive)
REMARK    1  A    between atoms: C_4  and  N_5
REMARK    2  A    between atoms: N_5  and  C_6
REMARK    3  A    between atoms: N_18  and  C_19
REMARK    4  A    between atoms: C_19  and  C_20
REMARK                            x       y       z     vdW  Elec       q    Type
REMARK                         _______ _______ _______ _____ _____    ______ ____
ROOT
ATOM      1  O   UNL     1       3.516   3.456  19.896  0.00  0.00    +0.000 OA
ATOM      2  C   UNL     1       2.948   4.508  19.636  0.00  0.00    +0.000 C 
ATOM      3  C   UNL     1       1.839   5.086  20.462  0.00  0.00    +0.000 C 
ATOM      4  C   UNL     1       1.631   6.485  19.900  0.00  0.00    +0.000 C 
ATOM      5  C   UNL     1       2.532   6.507  18.676  0.00  0.00    +0.000 C 
ATOM      6  O   UNL     1       2.692   7.490  17.960  0.00  0.00    +0.000 OA
ATOM      7  N   UNL     1       3.200   5.327  18.575  0.00  0.00    +0.000 N 
ENDROOT
BRANCH   4   8
ATOM      8  N   UNL     1       2.056   7.545  20.839  0.00  0.00    +0.000 N 
ATOM      9  H   UNL     1       2.954   7.946  20.554  0.00  0.00    +0.000 HD
BRANCH   8  10
ATOM     10  C   UNL     1       1.152   8.568  21.170  0.00  0.00    +0.000 A 
ATOM     11  C   UNL     1       0.916   8.984  22.482  0.00  0.00    +0.000 A 
ATOM     12  C   UNL     1       0.070  10.062  22.763  0.00  0.00    +0.000 A 
ATOM     13  C   UNL     1      -0.542  10.781  21.733  0.00  0.00    +0.000 A 
ATOM     14  C   UNL     1      -1.381  11.872  22.013  0.00  0.00    +0.000 A 
ATOM     15  C   UNL     1      -1.969  12.600  20.979  0.00  0.00    +0.000 A 
ATOM     16  C   UNL     1      -1.732  12.240  19.656  0.00  0.00    +0.000 A 
ATOM     17  C   UNL     1      -0.904  11.151  19.364  0.00  0.00    +0.000 A 
ATOM     18  C   UNL     1      -0.294  10.410  20.395  0.00  0.00    +0.000 A 
ATOM     19  C   UNL     1       0.561   9.318  20.136  0.00  0.00    +0.000 A 
ENDBRANCH   8  10
ENDBRANCH   4   8
BRANCH   7  20
ATOM     20  C   UNL     1       4.268   5.087  17.628  0.00  0.00    +0.000 C 
BRANCH  20  21
ATOM     21  C   UNL     1       5.572   5.761  17.990  0.00  0.00    +0.000 A 
ATOM     22  C   UNL     1       6.356   5.275  19.047  0.00  0.00    +0.000 A 
ATOM     23  C   UNL     1       7.613   5.827  19.310  0.00  0.00    +0.000 A 
ATOM     24  C   UNL     1       8.094   6.875  18.529  0.00  0.00    +0.000 A 
ATOM     25  C   UNL     1       7.308   7.391  17.500  0.00  0.00    +0.000 A 
ATOM     26  C   UNL     1       6.050   6.844  17.237  0.00  0.00    +0.000 A 
ENDBRANCH  20  21
ENDBRANCH   7  20
TORSDOF 4
ENDMDL
MODEL 5
REMARK VINA RESULT:      -8.1      0.959      1.384
REMARK  Name = 
REMARK  4 active torsions:
REMARK  status: ('A' for Active; 'I' for Inactive)
REMARK    1  A    between atoms: C_4  and  N_5
REMARK    2  A    between atoms: N_5  and  C_6
REMARK    3  A    between atoms: N_18  and  C_19
REMARK    4  A    between atoms: C_19  and  C_20
REMARK                            x       y       z     vdW  Elec       q    Type
REMARK                         _______ _______ _______ _____ _____    ______ ____
ROOT
ATOM      1  O   UNL     1       3.044   2.707  20.298  0.00  0.00    +0.000 OA
ATOM      2  C   UNL     1       2.926   3.856  19.894  0.00  0.00    +0.000 C 
ATOM      3  C   UNL     1       1.686   4.680  20.072  0.00  0.00    +0.000 C 
ATOM      4  C   UNL     1       2.092   6.082  19.639  0.00  0.00    +0.000 C 
ATOM      5  C   UNL     1       3.493   5.883  19.081  0.00  0.00    +0.000 C 
ATOM      6  O   UNL     1       4.202   6.794  18.668  0.00  0.00    +0.000 OA
ATOM      7  N   UNL     1       3.862   4.581  19.219  0.00  0.00    +0.000 N 
ENDROOT
BRANCH   4   8
ATOM      8  N   UNL     1       2.148   7.032  20.770  0.00  0.00    +0.000 N 
ATOM      9  H   UNL     1       3.117   7.224  21.039  0.00  0.00    +0.000 HD
BRANCH   8  10
ATOM     10  C   UNL     1       1.421   8.233  20.690  0.00  0.00    +0.000 A 
ATOM     11  C   UNL     1       1.197   8.911  19.490  0.00  0.00    +0.000 A 
ATOM     12  C   UNL     1       0.398  10.058  19.441  0.00  0.00    +0.000 A 
ATOM     13  C   UNL     1      -0.230  10.545  20.590  0.00  0.00    +0.000 A 
ATOM     14  C   UNL     1      -1.043  11.688  20.539  0.00  0.00    +0.000 A 
ATOM     15  C   UNL     1      -1.687  12.154  21.685  0.00  0.00    +0.000 A 
ATOM     16  C   UNL     1      -1.518  11.487  22.894  0.00  0.00    +0.000 A 
ATOM     17  C   UNL     1      -0.705  10.351  22.959  0.00  0.00    +0.000 A 
ATOM     18  C   UNL     1      -0.055   9.860  21.811  0.00  0.00    +0.000 A 
ATOM     19  C   UNL     1       0.758   8.706  21.837  0.00  0.00    +0.000 A 
ENDBRANCH   8  10
ENDBRANCH   4   8
BRANCH   7  20
ATOM     20  C   UNL     1       5.199   4.094  18.954  0.00  0.00    +0.000 C 
BRANCH  20  21
ATOM     21  C   UNL     1       5.629   4.237  17.512  0.00  0.00    +0.000 A 
ATOM     22  C   UNL     1       4.714   4.024  16.470  0.00  0.00    +0.000 A 
ATOM     23  C   UNL     1       5.080   4.265  15.144  0.00  0.00    +0.000 A 
ATOM     24  C   UNL     1       6.365   4.710  14.842  0.00  0.00    +0.000 A 
ATOM     25  C   UNL     1       7.295   4.891  15.865  0.00  0.00    +0.000 A 
ATOM     26  C   UNL     1       6.933   4.647  17.193  0.00  0.00    +0.000 A 
ENDBRANCH  20  21
ENDBRANCH   7  20
TORSDOF 4
ENDMDL
MODEL 6
REMARK VINA RESULT:      -8.1      3.234      9.241
REMARK  Name = 
REMARK  4 active torsions:
REMARK  status: ('A' for Active; 'I' for Inactive)
REMARK    1  A    between atoms: C_4  and  N_5
REMARK    2  A    between atoms: N_5  and  C_6
REMARK    3  A    between atoms: N_18  and  C_19
REMARK    4  A    between atoms: C_19  and  C_20
REMARK                            x       y       z     vdW  Elec       q    Type
REMARK                         _______ _______ _______ _____ _____    ______ ____
ROOT
ATOM      1  O   UNL     1      -0.637  11.830  19.428  0.00  0.00    +0.000 OA
ATOM      2  C   UNL     1      -0.432  10.976  20.280  0.00  0.00    +0.000 C 
ATOM      3  C   UNL     1      -0.373   9.506  19.992  0.00  0.00    +0.000 C 
ATOM      4  C   UNL     1       0.139   8.882  21.283  0.00  0.00    +0.000 C 
ATOM      5  C   UNL     1       0.155  10.053  22.254  0.00  0.00    +0.000 C 
ATOM      6  O   UNL     1       0.559   9.980  23.409  0.00  0.00    +0.000 OA
ATOM      7  N   UNL     1      -0.234  11.188  21.612  0.00  0.00    +0.000 N 
ENDROOT
BRANCH   4   8
ATOM      8  N   UNL     1       1.508   8.341  21.149  0.00  0.00    +0.000 N 
ATOM      9  H   UNL     1       1.920   8.158  22.069  0.00  0.00    +0.000 HD
BRANCH   8  10
ATOM     10  C   UNL     1       1.730   7.249  20.293  0.00  0.00    +0.000 A 
ATOM     11  C   UNL     1       2.447   7.347  19.099  0.00  0.00    +0.000 A 
ATOM     12  C   UNL     1       2.717   6.220  18.316  0.00  0.00    +0.000 A 
ATOM     13  C   UNL     1       2.305   4.949  18.723  0.00  0.00    +0.000 A 
ATOM     14  C   UNL     1       2.587   3.814  17.946  0.00  0.00    +0.000 A 
ATOM     15  C   UNL     1       2.194   2.545  18.371  0.00  0.00    +0.000 A 
ATOM     16  C   UNL     1       1.508   2.399  19.572  0.00  0.00    +0.000 A 
ATOM     17  C   UNL     1       1.215   3.522  20.353  0.00  0.00    +0.000 A 
ATOM     18  C   UNL     1       1.612   4.810  19.944  0.00  0.00    +0.000 A 
ATOM     19  C   UNL     1       1.349   5.962  20.716  0.00  0.00    +0.000 A 
ENDBRANCH   8  10
ENDBRANCH   4   8
BRANCH   7  20
ATOM     20  C   UNL     1      -0.157  12.508  22.200  0.00  0.00    +0.000 C 
BRANCH  20  21
ATOM     21  C   UNL     1      -1.353  12.872  23.050  0.00  0.00    +0.000 A 
ATOM     22  C   UNL     1      -1.390  14.090  23.744  0.00  0.00    +0.000 A 
ATOM     23  C   UNL     1      -2.539  14.477  24.438  0.00  0.00    +0.000 A 
ATOM     24  C   UNL     1      -3.658  13.648  24.456  0.00  0.00    +0.000 A 
ATOM     25  C   UNL     1      -3.621  12.418  23.800  0.00  0.00    +0.000 A 
ATOM     26  C   UNL     1      -2.471  12.027  23.108  0.00  0.00    +0.000 A 
ENDBRANCH  20  21
ENDBRANCH   7  20
TORSDOF 4
ENDMDL
MODEL 7
REMARK VINA RESULT:      -8.1      1.196      1.718
REMARK  Name = 
REMARK  4 active torsions:
REMARK  status: ('A' for Active; 'I' for Inactive)
REMARK    1  A    between atoms: C_4  and  N_5
REMARK    2  A    between atoms: N_5  and  C_6
REMARK    3  A    between atoms: N_18  and  C_19
REMARK    4  A    between atoms: C_19  and  C_20
REMARK                            x       y       z     vdW  Elec       q    Type
REMARK                         _______ _______ _______ _____ _____    ______ ____
ROOT
ATOM      1  O   UNL     1       3.519   2.661  18.779  0.00  0.00    +0.000 OA
ATOM      2  C   UNL     1       3.372   3.864  18.610  0.00  0.00    +0.000 C 
ATOM      3  C   UNL     1       2.105   4.602  18.923  0.00  0.00    +0.000 C 
ATOM      4  C   UNL     1       2.475   6.073  18.788  0.00  0.00    +0.000 C 
ATOM      5  C   UNL     1       3.890   6.027  18.232  0.00  0.00    +0.000 C 
ATOM      6  O   UNL     1       4.577   7.021  18.024  0.00  0.00    +0.000 OA
ATOM      7  N   UNL     1       4.296   4.734  18.115  0.00  0.00    +0.000 N 
ENDROOT
BRANCH   4   8
ATOM      8  N   UNL     1       2.484   6.778  20.087  0.00  0.00    +0.000 N 
ATOM      9  H   UNL     1       3.442   6.914  20.422  0.00  0.00    +0.000 HD
BRANCH   8  10
ATOM     10  C   UNL     1       1.750   7.969  20.223  0.00  0.00    +0.000 A 
ATOM     11  C   UNL     1       1.466   8.818  19.151  0.00  0.00    +0.000 A 
ATOM     12  C   UNL     1       0.662   9.951  19.312  0.00  0.00    +0.000 A 
ATOM     13  C   UNL     1       0.087  10.252  20.549  0.00  0.00    +0.000 A 
ATOM     14  C   UNL     1      -0.732  11.381  20.709  0.00  0.00    +0.000 A 
ATOM     15  C   UNL     1      -1.322  11.663  21.941  0.00  0.00    +0.000 A 
ATOM     16  C   UNL     1      -1.092  10.824  23.027  0.00  0.00    +0.000 A 
ATOM     17  C   UNL     1      -0.273   9.699  22.882  0.00  0.00    +0.000 A 
ATOM     18  C   UNL     1       0.323   9.394  21.643  0.00  0.00    +0.000 A 
ATOM     19  C   UNL     1       1.140   8.258  21.457  0.00  0.00    +0.000 A 
ENDBRANCH   8  10
ENDBRANCH   4   8
BRANCH   7  20
ATOM     20  C   UNL     1       5.651   4.346  17.787  0.00  0.00    +0.000 C 
BRANCH  20  21
ATOM     21  C   UNL     1       5.991   4.484  16.320  0.00  0.00    +0.000 A 
ATOM     22  C   UNL     1       7.191   5.089  15.919  0.00  0.00    +0.000 A 
ATOM     23  C   UNL     1       7.557   5.117  14.571  0.00  0.00    +0.000 A 
ATOM     24  C   UNL     1       6.725   4.551  13.609  0.00  0.00    +0.000 A 
ATOM     25  C   UNL     1       5.512   3.979  13.990  0.00  0.00    +0.000 A 
ATOM     26  C   UNL     1       5.142   3.953  15.337  0.00  0.00    +0.000 A 
ENDBRANCH  20  21
ENDBRANCH   7  20
TORSDOF 4
ENDMDL
MODEL 8
REMARK VINA RESULT:      -8.1      1.279      2.238
REMARK  Name = 
REMARK  4 active torsions:
REMARK  status: ('A' for Active; 'I' for Inactive)
REMARK    1  A    between atoms: C_4  and  N_5
REMARK    2  A    between atoms: N_5  and  C_6
REMARK    3  A    between atoms: N_18  and  C_19
REMARK    4  A    between atoms: C_19  and  C_20
REMARK                            x       y       z     vdW  Elec       q    Type
REMARK                         _______ _______ _______ _____ _____    ______ ____
ROOT
ATOM      1  O   UNL     1       3.698   3.310  20.321  0.00  0.00    +0.000 OA
ATOM      2  C   UNL     1       3.064   4.296  19.969  0.00  0.00    +0.000 C 
ATOM      3  C   UNL     1       1.999   4.944  20.801  0.00  0.00    +0.000 C 
ATOM      4  C   UNL     1       1.682   6.243  20.074  0.00  0.00    +0.000 C 
ATOM      5  C   UNL     1       2.481   6.126  18.785  0.00  0.00    +0.000 C 
ATOM      6  O   UNL     1       2.539   7.005  17.932  0.00  0.00    +0.000 OA
ATOM      7  N   UNL     1       3.193   4.967  18.790  0.00  0.00    +0.000 N 
ENDROOT
BRANCH   4   8
ATOM      8  N   UNL     1       2.132   7.438  20.820  0.00  0.00    +0.000 N 
ATOM      9  H   UNL     1       2.990   7.819  20.415  0.00  0.00    +0.000 HD
BRANCH   8  10
ATOM     10  C   UNL     1       1.214   8.472  21.072  0.00  0.00    +0.000 A 
ATOM     11  C   UNL     1       0.935   8.950  22.354  0.00  0.00    +0.000 A 
ATOM     12  C   UNL     1       0.077  10.037  22.554  0.00  0.00    +0.000 A 
ATOM     13  C   UNL     1      -0.504  10.702  21.472  0.00  0.00    +0.000 A 
ATOM     14  C   UNL     1      -1.355  11.801  21.671  0.00  0.00    +0.000 A 
ATOM     15  C   UNL     1      -1.912  12.475  20.585  0.00  0.00    +0.000 A 
ATOM     16  C   UNL     1      -1.632  12.051  19.290  0.00  0.00    +0.000 A 
ATOM     17  C   UNL     1      -0.791  10.954  19.078  0.00  0.00    +0.000 A 
ATOM     18  C   UNL     1      -0.213  10.267  20.162  0.00  0.00    +0.000 A 
ATOM     19  C   UNL     1       0.654   9.167  19.984  0.00  0.00    +0.000 A 
ENDBRANCH   8  10
ENDBRANCH   4   8
BRANCH   7  20
ATOM     20  C   UNL     1       4.192   4.635  17.797  0.00  0.00    +0.000 C 
BRANCH  20  21
ATOM     21  C   UNL     1       5.510   5.349  17.990  0.00  0.00    +0.000 A 
ATOM     22  C   UNL     1       5.913   6.356  17.100  0.00  0.00    +0.000 A 
ATOM     23  C   UNL     1       7.075   7.093  17.341  0.00  0.00    +0.000 A 
ATOM     24  C   UNL     1       7.853   6.825  18.465  0.00  0.00    +0.000 A 
ATOM     25  C   UNL     1       7.483   5.803  19.337  0.00  0.00    +0.000 A 
ATOM     26  C   UNL     1       6.323   5.062  19.097  0.00  0.00    +0.000 A 
ENDBRANCH  20  21
ENDBRANCH   7  20
TORSDOF 4
ENDMDL
MODEL 9
REMARK VINA RESULT:      -8.1      1.593      2.203
REMARK  Name = 
REMARK  4 active torsions:
REMARK  status: ('A' for Active; 'I' for Inactive)
REMARK    1  A    between atoms: C_4  and  N_5
REMARK    2  A    between atoms: N_5  and  C_6
REMARK    3  A    between atoms: N_18  and  C_19
REMARK    4  A    between atoms: C_19  and  C_20
REMARK                            x       y       z     vdW  Elec       q    Type
REMARK                         _______ _______ _______ _____ _____    ______ ____
ROOT
ATOM      1  O   UNL     1       2.621   2.844  17.429  0.00  0.00    +0.000 OA
ATOM      2  C   UNL     1       2.836   4.042  17.555  0.00  0.00    +0.000 C 
ATOM      3  C   UNL     1       1.769   5.057  17.833  0.00  0.00    +0.000 C 
ATOM      4  C   UNL     1       2.530   6.338  18.145  0.00  0.00    +0.000 C 
ATOM      5  C   UNL     1       3.973   5.970  17.838  0.00  0.00    +0.000 C 
ATOM      6  O   UNL     1       4.925   6.724  18.011  0.00  0.00    +0.000 OA
ATOM      7  N   UNL     1       4.045   4.665  17.461  0.00  0.00    +0.000 N 
ENDROOT
BRANCH   4   8
ATOM      8  N   UNL     1       2.419   6.734  19.565  0.00  0.00    +0.000 N 
ATOM      9  H   UNL     1       3.334   6.707  20.024  0.00  0.00    +0.000 HD
BRANCH   8  10
ATOM     10  C   UNL     1       1.749   7.926  19.891  0.00  0.00    +0.000 A 
ATOM     11  C   UNL     1       1.477   8.929  18.959  0.00  0.00    +0.000 A 
ATOM     12  C   UNL     1       0.735  10.063  19.305  0.00  0.00    +0.000 A 
ATOM     13  C   UNL     1       0.211  10.212  20.592  0.00  0.00    +0.000 A 
ATOM     14  C   UNL     1      -0.546  11.343  20.937  0.00  0.00    +0.000 A 
ATOM     15  C   UNL     1      -1.087  11.474  22.216  0.00  0.00    +0.000 A 
ATOM     16  C   UNL     1      -0.869  10.480  23.165  0.00  0.00    +0.000 A 
ATOM     17  C   UNL     1      -0.111   9.351  22.835  0.00  0.00    +0.000 A 
ATOM     18  C   UNL     1       0.435   9.198  21.546  0.00  0.00    +0.000 A 
ATOM     19  C   UNL     1       1.189   8.064  21.175  0.00  0.00    +0.000 A 
ENDBRANCH   8  10
ENDBRANCH   4   8
BRANCH   7  20
ATOM     20  C   UNL     1       5.290   3.951  17.272  0.00  0.00    +0.000 C 
BRANCH  20  21
ATOM     21  C   UNL     1       5.891   4.120  15.896  0.00  0.00    +0.000 A 
ATOM     22  C   UNL     1       5.316   3.488  14.783  0.00  0.00    +0.000 A 
ATOM     23  C   UNL     1       5.803   3.732  13.497  0.00  0.00    +0.000 A 
ATOM     24  C   UNL     1       6.875   4.601  13.309  0.00  0.00    +0.000 A 
ATOM     25  C   UNL     1       7.479   5.206  14.409  0.00  0.00    +0.000 A 
ATOM     26  C   UNL     1       6.997   4.960  15.697  0.00  0.00    +0.000 A 
ENDBRANCH  20  21
ENDBRANCH   7  20
TORSDOF 4
ENDMDL
