MODEL 1
REMARK VINA RESULT:      -7.6      0.000      0.000
REMARK  Name = 
REMARK  7 active torsions:
REMARK  status: ('A' for Active; 'I' for Inactive)
REMARK    1  A    between atoms: C_1  and  C_2
REMARK    2  A    between atoms: C_7  and  C_8
REMARK    3  A    between atoms: C_11  and  C_12
REMARK    4  A    between atoms: N_14  and  C_15
REMARK    5  A    between atoms: C_15  and  C_16
REMARK    6  A    between atoms: C_16  and  C_17
REMARK    7  A    between atoms: C_23  and  C_24
REMARK                            x       y       z     vdW  Elec       q    Type
REMARK                         _______ _______ _______ _____ _____    ______ ____
ROOT
ATOM      1  C   UNL     1      -0.326   9.366  21.800  0.00  0.00    +0.000 C 
ATOM      2  C   UNL     1       0.621   8.727  20.822  0.00  0.00    +0.000 A 
ATOM      3  C   UNL     1       1.046   7.408  21.045  0.00  0.00    +0.000 A 
ATOM      4  C   UNL     1       1.932   6.752  20.163  0.00  0.00    +0.000 A 
ATOM      5  C   UNL     1       2.402   7.431  19.031  0.00  0.00    +0.000 A 
ATOM      6  C   UNL     1       1.969   8.762  18.813  0.00  0.00    +0.000 A 
ATOM      7  C   UNL     1       1.088   9.412  19.691  0.00  0.00    +0.000 A 
ATOM      8  C   UNL     1       0.667  10.826  19.401  0.00  0.00    +0.000 C 
ATOM      9  N   UNL     1       3.289   6.792  18.138  0.00  0.00    +0.000 N 
ATOM     10  O   UNL     1       3.698   7.455  17.111  0.00  0.00    +0.000 OA
ATOM     11  C   UNL     1       3.691   5.474  18.389  0.00  0.00    +0.000 A 
ATOM     12  C   UNL     1       3.218   4.784  19.534  0.00  0.00    +0.000 A 
ATOM     13  C   UNL     1       3.549   3.378  19.948  0.00  0.00    +0.000 C 
ATOM     14  N   UNL     1       2.344   5.430  20.409  0.00  0.00    +0.000 N 
ATOM     15  O   UNL     1       1.913   4.817  21.447  0.00  0.00    +0.000 OA
ENDROOT
BRANCH  11  16
ATOM     16  C   UNL     1       4.620   4.838  17.414  0.00  0.00    +0.000 C 
ATOM     17  O   UNL     1       4.190   4.093  16.541  0.00  0.00    +0.000 OA
ATOM     18  N   UNL     1       5.974   5.089  17.484  0.00  0.00    +0.000 N 
ATOM     19  H   UNL     1       6.314   5.710  18.231  0.00  0.00    +0.000 HD
BRANCH  18  20
ATOM     20  C   UNL     1       6.859   4.463  16.523  0.00  0.00    +0.000 C 
BRANCH  20  21
ATOM     21  C   UNL     1       7.320   5.369  15.388  0.00  0.00    +0.000 C 
BRANCH  21  22
ATOM     22  C   UNL     1       7.058   4.738  14.037  0.00  0.00    +0.000 A 
ATOM     23  C   UNL     1       7.791   5.101  12.896  0.00  0.00    +0.000 A 
ATOM     24  C   UNL     1       7.480   4.550  11.648  0.00  0.00    +0.000 A 
ATOM     25  C   UNL     1       6.444   3.627  11.527  0.00  0.00    +0.000 A 
ATOM     26  C   UNL     1       5.725   3.242  12.656  0.00  0.00    +0.000 A 
ATOM     27  C   UNL     1       6.027   3.797  13.902  0.00  0.00    +0.000 A 
ENDBRANCH  21  22
ENDBRANCH  20  21
ENDBRANCH  18  20
ENDBRANCH  11  16
TORSDOF 4
ENDMDL
MODEL 2
REMARK VINA RESULT:      -7.5      4.495      6.865
REMARK  Name = 
REMARK  7 active torsions:
REMARK  status: ('A' for Active; 'I' for Inactive)
REMARK    1  A    between atoms: C_1  and  C_2
REMARK    2  A    between atoms: C_7  and  C_8
REMARK    3  A    between atoms: C_11  and  C_12
REMARK    4  A    between atoms: N_14  and  C_15
REMARK    5  A    between atoms: C_15  and  C_16
REMARK    6  A    between atoms: C_16  and  C_17
REMARK    7  A    between atoms: C_23  and  C_24
REMARK                            x       y       z     vdW  Elec       q    Type
REMARK                         _______ _______ _______ _____ _____    ______ ____
ROOT
ATOM      1  C   UNL     1       0.744   1.922  18.241  0.00  0.00    +0.000 C 
ATOM      2  C   UNL     1       1.922   2.835  18.441  0.00  0.00    +0.000 A 
ATOM      3  C   UNL     1       2.782   3.087  17.361  0.00  0.00    +0.000 A 
ATOM      4  C   UNL     1       3.904   3.936  17.485  0.00  0.00    +0.000 A 
ATOM      5  C   UNL     1       4.169   4.548  18.717  0.00  0.00    +0.000 A 
ATOM      6  C   UNL     1       3.297   4.288  19.802  0.00  0.00    +0.000 A 
ATOM      7  C   UNL     1       2.183   3.444  19.677  0.00  0.00    +0.000 A 
ATOM      8  C   UNL     1       1.295   3.212  20.869  0.00  0.00    +0.000 C 
ATOM      9  N   UNL     1       5.287   5.399  18.861  0.00  0.00    +0.000 N 
ATOM     10  O   UNL     1       5.494   5.939  20.012  0.00  0.00    +0.000 OA
ATOM     11  C   UNL     1       6.123   5.630  17.761  0.00  0.00    +0.000 A 
ATOM     12  C   UNL     1       5.858   5.012  16.513  0.00  0.00    +0.000 A 
ATOM     13  C   UNL     1       6.650   5.153  15.244  0.00  0.00    +0.000 C 
ATOM     14  N   UNL     1       4.752   4.172  16.388  0.00  0.00    +0.000 N 
ATOM     15  O   UNL     1       4.505   3.606  15.266  0.00  0.00    +0.000 OA
ENDROOT
BRANCH  11  16
ATOM     16  C   UNL     1       7.283   6.543  17.958  0.00  0.00    +0.000 C 
ATOM     17  O   UNL     1       8.235   6.200  18.649  0.00  0.00    +0.000 OA
ATOM     18  N   UNL     1       7.295   7.784  17.356  0.00  0.00    +0.000 N 
ATOM     19  H   UNL     1       6.481   8.055  16.788  0.00  0.00    +0.000 HD
BRANCH  18  20
ATOM     20  C   UNL     1       8.435   8.656  17.557  0.00  0.00    +0.000 C 
BRANCH  20  21
ATOM     21  C   UNL     1       8.092  10.066  18.021  0.00  0.00    +0.000 C 
BRANCH  21  22
ATOM     22  C   UNL     1       9.284  10.741  18.664  0.00  0.00    +0.000 A 
ATOM     23  C   UNL     1       9.395  10.879  20.057  0.00  0.00    +0.000 A 
ATOM     24  C   UNL     1      10.476  11.568  20.618  0.00  0.00    +0.000 A 
ATOM     25  C   UNL     1      11.459  12.118  19.799  0.00  0.00    +0.000 A 
ATOM     26  C   UNL     1      11.371  11.968  18.417  0.00  0.00    +0.000 A 
ATOM     27  C   UNL     1      10.290  11.288  17.853  0.00  0.00    +0.000 A 
ENDBRANCH  21  22
ENDBRANCH  20  21
ENDBRANCH  18  20
ENDBRANCH  11  16
TORSDOF 4
ENDMDL
MODEL 3
REMARK VINA RESULT:      -7.4      1.299      1.761
REMARK  Name = 
REMARK  7 active torsions:
REMARK  status: ('A' for Active; 'I' for Inactive)
REMARK    1  A    between atoms: C_1  and  C_2
REMARK    2  A    between atoms: C_7  and  C_8
REMARK    3  A    between atoms: C_11  and  C_12
REMARK    4  A    between atoms: N_14  and  C_15
REMARK    5  A    between atoms: C_15  and  C_16
REMARK    6  A    between atoms: C_16  and  C_17
REMARK    7  A    between atoms: C_23  and  C_24
REMARK                            x       y       z     vdW  Elec       q    Type
REMARK                         _______ _______ _______ _____ _____    ______ ____
ROOT
ATOM      1  C   UNL     1       0.061   9.590  20.601  0.00  0.00    +0.000 C 
ATOM      2  C   UNL     1       1.102   8.857  19.800  0.00  0.00    +0.000 A 
ATOM      3  C   UNL     1       1.497   7.573  20.206  0.00  0.00    +0.000 A 
ATOM      4  C   UNL     1       2.467   6.834  19.495  0.00  0.00    +0.000 A 
ATOM      5  C   UNL     1       3.053   7.390  18.350  0.00  0.00    +0.000 A 
ATOM      6  C   UNL     1       2.649   8.687  17.947  0.00  0.00    +0.000 A 
ATOM      7  C   UNL     1       1.685   9.421  18.655  0.00  0.00    +0.000 A 
ATOM      8  C   UNL     1       1.300  10.792  18.172  0.00  0.00    +0.000 C 
ATOM      9  N   UNL     1       4.026   6.667  17.627  0.00  0.00    +0.000 N 
ATOM     10  O   UNL     1       4.540   7.219  16.582  0.00  0.00    +0.000 OA
ATOM     11  C   UNL     1       4.396   5.387  18.059  0.00  0.00    +0.000 A 
ATOM     12  C   UNL     1       3.805   4.820  19.217  0.00  0.00    +0.000 A 
ATOM     13  C   UNL     1       4.087   3.469  19.811  0.00  0.00    +0.000 C 
ATOM     14  N   UNL     1       2.848   5.549  19.922  0.00  0.00    +0.000 N 
ATOM     15  O   UNL     1       2.311   5.047  20.971  0.00  0.00    +0.000 OA
ENDROOT
BRANCH  11  16
ATOM     16  C   UNL     1       5.417   4.657  17.258  0.00  0.00    +0.000 C 
ATOM     17  O   UNL     1       6.502   4.366  17.750  0.00  0.00    +0.000 OA
ATOM     18  N   UNL     1       5.147   4.300  15.954  0.00  0.00    +0.000 N 
ATOM     19  H   UNL     1       4.234   4.563  15.558  0.00  0.00    +0.000 HD
BRANCH  18  20
ATOM     20  C   UNL     1       6.154   3.587  15.193  0.00  0.00    +0.000 C 
BRANCH  20  21
ATOM     21  C   UNL     1       6.533   4.233  13.866  0.00  0.00    +0.000 C 
BRANCH  21  22
ATOM     22  C   UNL     1       5.899   3.508  12.698  0.00  0.00    +0.000 A 
ATOM     23  C   UNL     1       4.605   3.819  12.249  0.00  0.00    +0.000 A 
ATOM     24  C   UNL     1       4.019   3.085  11.212  0.00  0.00    +0.000 A 
ATOM     25  C   UNL     1       4.718   2.043  10.607  0.00  0.00    +0.000 A 
ATOM     26  C   UNL     1       6.010   1.741  11.030  0.00  0.00    +0.000 A 
ATOM     27  C   UNL     1       6.595   2.465  12.070  0.00  0.00    +0.000 A 
ENDBRANCH  21  22
ENDBRANCH  20  21
ENDBRANCH  18  20
ENDBRANCH  11  16
TORSDOF 4
ENDMDL
MODEL 4
REMARK VINA RESULT:      -7.2      4.042     10.520
REMARK  Name = 
REMARK  7 active torsions:
REMARK  status: ('A' for Active; 'I' for Inactive)
REMARK    1  A    between atoms: C_1  and  C_2
REMARK    2  A    between atoms: C_7  and  C_8
REMARK    3  A    between atoms: C_11  and  C_12
REMARK    4  A    between atoms: N_14  and  C_15
REMARK    5  A    between atoms: C_15  and  C_16
REMARK    6  A    between atoms: C_16  and  C_17
REMARK    7  A    between atoms: C_23  and  C_24
REMARK                            x       y       z     vdW  Elec       q    Type
REMARK                         _______ _______ _______ _____ _____    ______ ____
ROOT
ATOM      1  C   UNL     1       3.198   3.781  18.351  0.00  0.00    +0.000 C 
ATOM      2  C   UNL     1       2.647   4.999  19.039  0.00  0.00    +0.000 A 
ATOM      3  C   UNL     1       2.669   6.231  18.368  0.00  0.00    +0.000 A 
ATOM      4  C   UNL     1       2.165   7.410  18.960  0.00  0.00    +0.000 A 
ATOM      5  C   UNL     1       1.625   7.354  20.252  0.00  0.00    +0.000 A 
ATOM      6  C   UNL     1       1.608   6.107  20.923  0.00  0.00    +0.000 A 
ATOM      7  C   UNL     1       2.109   4.936  20.333  0.00  0.00    +0.000 A 
ATOM      8  C   UNL     1       2.059   3.643  21.100  0.00  0.00    +0.000 C 
ATOM      9  N   UNL     1       1.117   8.522  20.860  0.00  0.00    +0.000 N 
ATOM     10  O   UNL     1       0.633   8.424  22.051  0.00  0.00    +0.000 OA
ATOM     11  C   UNL     1       1.152   9.735  20.161  0.00  0.00    +0.000 A 
ATOM     12  C   UNL     1       1.698   9.796  18.853  0.00  0.00    +0.000 A 
ATOM     13  C   UNL     1       1.810  11.007  17.972  0.00  0.00    +0.000 C 
ATOM     14  N   UNL     1       2.198   8.633  18.267  0.00  0.00    +0.000 N 
ATOM     15  O   UNL     1       2.696   8.678  17.088  0.00  0.00    +0.000 OA
ENDROOT
BRANCH  11  16
ATOM     16  C   UNL     1       0.596  10.938  20.839  0.00  0.00    +0.000 C 
ATOM     17  O   UNL     1       1.343  11.775  21.334  0.00  0.00    +0.000 OA
ATOM     18  N   UNL     1      -0.769  11.122  20.910  0.00  0.00    +0.000 N 
ATOM     19  H   UNL     1      -1.377  10.402  20.497  0.00  0.00    +0.000 HD
BRANCH  18  20
ATOM     20  C   UNL     1      -1.290  12.301  21.572  0.00  0.00    +0.000 C 
BRANCH  20  21
ATOM     21  C   UNL     1      -1.814  12.068  22.984  0.00  0.00    +0.000 C 
BRANCH  21  22
ATOM     22  C   UNL     1      -3.294  12.368  23.080  0.00  0.00    +0.000 A 
ATOM     23  C   UNL     1      -4.047  12.746  21.955  0.00  0.00    +0.000 A 
ATOM     24  C   UNL     1      -5.398  13.083  22.087  0.00  0.00    +0.000 A 
ATOM     25  C   UNL     1      -6.014  13.039  23.336  0.00  0.00    +0.000 A 
ATOM     26  C   UNL     1      -5.283  12.643  24.454  0.00  0.00    +0.000 A 
ATOM     27  C   UNL     1      -3.932  12.314  24.327  0.00  0.00    +0.000 A 
ENDBRANCH  21  22
ENDBRANCH  20  21
ENDBRANCH  18  20
ENDBRANCH  11  16
TORSDOF 4
ENDMDL
MODEL 5
REMARK VINA RESULT:      -7.2      2.200      4.055
REMARK  Name = 
REMARK  7 active torsions:
REMARK  status: ('A' for Active; 'I' for Inactive)
REMARK    1  A    between atoms: C_1  and  C_2
REMARK    2  A    between atoms: C_7  and  C_8
REMARK    3  A    between atoms: C_11  and  C_12
REMARK    4  A    between atoms: N_14  and  C_15
REMARK    5  A    between atoms: C_15  and  C_16
REMARK    6  A    between atoms: C_16  and  C_17
REMARK    7  A    between atoms: C_23  and  C_24
REMARK                            x       y       z     vdW  Elec       q    Type
REMARK                         _______ _______ _______ _____ _____    ______ ____
ROOT
ATOM      1  C   UNL     1      -0.731  12.777  20.857  0.00  0.00    +0.000 C 
ATOM      2  C   UNL     1      -0.155  11.389  20.797  0.00  0.00    +0.000 A 
ATOM      3  C   UNL     1       0.613  11.016  19.683  0.00  0.00    +0.000 A 
ATOM      4  C   UNL     1       1.181   9.729  19.569  0.00  0.00    +0.000 A 
ATOM      5  C   UNL     1       0.980   8.795  20.594  0.00  0.00    +0.000 A 
ATOM      6  C   UNL     1       0.203   9.179  21.715  0.00  0.00    +0.000 A 
ATOM      7  C   UNL     1      -0.361  10.459  21.827  0.00  0.00    +0.000 A 
ATOM      8  C   UNL     1      -1.174  10.804  23.044  0.00  0.00    +0.000 C 
ATOM      9  N   UNL     1       1.540   7.502  20.498  0.00  0.00    +0.000 N 
ATOM     10  O   UNL     1       1.326   6.676  21.463  0.00  0.00    +0.000 OA
ATOM     11  C   UNL     1       2.303   7.164  19.373  0.00  0.00    +0.000 A 
ATOM     12  C   UNL     1       2.509   8.106  18.333  0.00  0.00    +0.000 A 
ATOM     13  C   UNL     1       3.295   7.905  17.069  0.00  0.00    +0.000 C 
ATOM     14  N   UNL     1       1.946   9.378  18.442  0.00  0.00    +0.000 N 
ATOM     15  O   UNL     1       2.124  10.235  17.508  0.00  0.00    +0.000 OA
ENDROOT
BRANCH  11  16
ATOM     16  C   UNL     1       2.882   5.793  19.320  0.00  0.00    +0.000 C 
ATOM     17  O   UNL     1       3.886   5.517  19.967  0.00  0.00    +0.000 OA
ATOM     18  N   UNL     1       2.287   4.821  18.544  0.00  0.00    +0.000 N 
ATOM     19  H   UNL     1       1.451   5.078  18.002  0.00  0.00    +0.000 HD
BRANCH  18  20
ATOM     20  C   UNL     1       2.865   3.492  18.509  0.00  0.00    +0.000 C 
BRANCH  20  21
ATOM     21  C   UNL     1       3.464   3.087  17.167  0.00  0.00    +0.000 C 
BRANCH  21  22
ATOM     22  C   UNL     1       4.678   3.924  16.829  0.00  0.00    +0.000 A 
ATOM     23  C   UNL     1       4.795   4.594  15.600  0.00  0.00    +0.000 A 
ATOM     24  C   UNL     1       5.959   5.305  15.289  0.00  0.00    +0.000 A 
ATOM     25  C   UNL     1       7.012   5.363  16.199  0.00  0.00    +0.000 A 
ATOM     26  C   UNL     1       6.897   4.721  17.430  0.00  0.00    +0.000 A 
ATOM     27  C   UNL     1       5.740   4.003  17.741  0.00  0.00    +0.000 A 
ENDBRANCH  21  22
ENDBRANCH  20  21
ENDBRANCH  18  20
ENDBRANCH  11  16
TORSDOF 4
ENDMDL
MODEL 6
REMARK VINA RESULT:      -7.2      4.513      7.308
REMARK  Name = 
REMARK  7 active torsions:
REMARK  status: ('A' for Active; 'I' for Inactive)
REMARK    1  A    between atoms: C_1  and  C_2
REMARK    2  A    between atoms: C_7  and  C_8
REMARK    3  A    between atoms: C_11  and  C_12
REMARK    4  A    between atoms: N_14  and  C_15
REMARK    5  A    between atoms: C_15  and  C_16
REMARK    6  A    between atoms: C_16  and  C_17
REMARK    7  A    between atoms: C_23  and  C_24
REMARK                            x       y       z     vdW  Elec       q    Type
REMARK                         _______ _______ _______ _____ _____    ______ ____
ROOT
ATOM      1  C   UNL     1      -3.297  15.805  21.852  0.00  0.00    +0.000 C 
ATOM      2  C   UNL     1      -2.344  14.672  21.589  0.00  0.00    +0.000 A 
ATOM      3  C   UNL     1      -2.603  13.793  20.526  0.00  0.00    +0.000 A 
ATOM      4  C   UNL     1      -1.745  12.712  20.228  0.00  0.00    +0.000 A 
ATOM      5  C   UNL     1      -0.600  12.508  21.010  0.00  0.00    +0.000 A 
ATOM      6  C   UNL     1      -0.346  13.399  22.081  0.00  0.00    +0.000 A 
ATOM      7  C   UNL     1      -1.200  14.473  22.376  0.00  0.00    +0.000 A 
ATOM      8  C   UNL     1      -0.870  15.384  23.527  0.00  0.00    +0.000 C 
ATOM      9  N   UNL     1       0.269  11.432  20.728  0.00  0.00    +0.000 N 
ATOM     10  O   UNL     1       1.309  11.281  21.474  0.00  0.00    +0.000 OA
ATOM     11  C   UNL     1      -0.019  10.575  19.658  0.00  0.00    +0.000 A 
ATOM     12  C   UNL     1      -1.177  10.778  18.865  0.00  0.00    +0.000 A 
ATOM     13  C   UNL     1      -1.629   9.958  17.691  0.00  0.00    +0.000 C 
ATOM     14  N   UNL     1      -2.028  11.844  19.158  0.00  0.00    +0.000 N 
ATOM     15  O   UNL     1      -3.078  12.035  18.450  0.00  0.00    +0.000 OA
ENDROOT
BRANCH  11  16
ATOM     16  C   UNL     1       0.932   9.460  19.392  0.00  0.00    +0.000 C 
ATOM     17  O   UNL     1       1.577   9.429  18.350  0.00  0.00    +0.000 OA
ATOM     18  N   UNL     1       1.097   8.456  20.322  0.00  0.00    +0.000 N 
ATOM     19  H   UNL     1       0.537   8.497  21.185  0.00  0.00    +0.000 HD
BRANCH  18  20
ATOM     20  C   UNL     1       2.030   7.382  20.045  0.00  0.00    +0.000 C 
BRANCH  20  21
ATOM     21  C   UNL     1       1.779   6.095  20.822  0.00  0.00    +0.000 C 
BRANCH  21  22
ATOM     22  C   UNL     1       1.691   4.901  19.897  0.00  0.00    +0.000 A 
ATOM     23  C   UNL     1       1.306   3.632  20.361  0.00  0.00    +0.000 A 
ATOM     24  C   UNL     1       1.300   2.532  19.496  0.00  0.00    +0.000 A 
ATOM     25  C   UNL     1       1.668   2.686  18.162  0.00  0.00    +0.000 A 
ATOM     26  C   UNL     1       2.029   3.944  17.685  0.00  0.00    +0.000 A 
ATOM     27  C   UNL     1       2.045   5.043  18.547  0.00  0.00    +0.000 A 
ENDBRANCH  21  22
ENDBRANCH  20  21
ENDBRANCH  18  20
ENDBRANCH  11  16
TORSDOF 4
ENDMDL
MODEL 7
REMARK VINA RESULT:      -7.1      3.951      6.359
REMARK  Name = 
REMARK  7 active torsions:
REMARK  status: ('A' for Active; 'I' for Inactive)
REMARK    1  A    between atoms: C_1  and  C_2
REMARK    2  A    between atoms: C_7  and  C_8
REMARK    3  A    between atoms: C_11  and  C_12
REMARK    4  A    between atoms: N_14  and  C_15
REMARK    5  A    between atoms: C_15  and  C_16
REMARK    6  A    between atoms: C_16  and  C_17
REMARK    7  A    between atoms: C_23  and  C_24
REMARK                            x       y       z     vdW  Elec       q    Type
REMARK                         _______ _______ _______ _____ _____    ______ ____
ROOT
ATOM      1  C   UNL     1      -4.138  14.465  22.407  0.00  0.00    +0.000 C 
ATOM      2  C   UNL     1      -2.993  13.629  21.903  0.00  0.00    +0.000 A 
ATOM      3  C   UNL     1      -3.145  12.914  20.706  0.00  0.00    +0.000 A 
ATOM      4  C   UNL     1      -2.107  12.114  20.180  0.00  0.00    +0.000 A 
ATOM      5  C   UNL     1      -0.889  12.031  20.867  0.00  0.00    +0.000 A 
ATOM      6  C   UNL     1      -0.744  12.755  22.076  0.00  0.00    +0.000 A 
ATOM      7  C   UNL     1      -1.777  13.549  22.597  0.00  0.00    +0.000 A 
ATOM      8  C   UNL     1      -1.557  14.295  23.885  0.00  0.00    +0.000 C 
ATOM      9  N   UNL     1       0.161  11.235  20.358  0.00  0.00    +0.000 N 
ATOM     10  O   UNL     1       1.263  11.185  21.025  0.00  0.00    +0.000 OA
ATOM     11  C   UNL     1      -0.024  10.536  19.159  0.00  0.00    +0.000 A 
ATOM     12  C   UNL     1      -1.255  10.617  18.460  0.00  0.00    +0.000 A 
ATOM     13  C   UNL     1      -1.615   9.936  17.171  0.00  0.00    +0.000 C 
ATOM     14  N   UNL     1      -2.283  11.406  18.978  0.00  0.00    +0.000 N 
ATOM     15  O   UNL     1      -3.400  11.484  18.357  0.00  0.00    +0.000 OA
ENDROOT
BRANCH  11  16
ATOM     16  C   UNL     1       1.114   9.718  18.655  0.00  0.00    +0.000 C 
ATOM     17  O   UNL     1       1.705  10.039  17.630  0.00  0.00    +0.000 OA
ATOM     18  N   UNL     1       1.516   8.593  19.345  0.00  0.00    +0.000 N 
ATOM     19  H   UNL     1       0.999   8.338  20.197  0.00  0.00    +0.000 HD
BRANCH  18  20
ATOM     20  C   UNL     1       2.628   7.814  18.839  0.00  0.00    +0.000 C 
BRANCH  20  21
ATOM     21  C   UNL     1       2.321   6.342  18.590  0.00  0.00    +0.000 C 
BRANCH  21  22
ATOM     22  C   UNL     1       3.363   5.705  17.696  0.00  0.00    +0.000 A 
ATOM     23  C   UNL     1       3.466   4.311  17.556  0.00  0.00    +0.000 A 
ATOM     24  C   UNL     1       4.482   3.749  16.776  0.00  0.00    +0.000 A 
ATOM     25  C   UNL     1       5.400   4.569  16.123  0.00  0.00    +0.000 A 
ATOM     26  C   UNL     1       5.293   5.953  16.236  0.00  0.00    +0.000 A 
ATOM     27  C   UNL     1       4.285   6.517  17.020  0.00  0.00    +0.000 A 
ENDBRANCH  21  22
ENDBRANCH  20  21
ENDBRANCH  18  20
ENDBRANCH  11  16
TORSDOF 4
ENDMDL
MODEL 8
REMARK VINA RESULT:      -7.1      4.418      6.671
REMARK  Name = 
REMARK  7 active torsions:
REMARK  status: ('A' for Active; 'I' for Inactive)
REMARK    1  A    between atoms: C_1  and  C_2
REMARK    2  A    between atoms: C_7  and  C_8
REMARK    3  A    between atoms: C_11  and  C_12
REMARK    4  A    between atoms: N_14  and  C_15
REMARK    5  A    between atoms: C_15  and  C_16
REMARK    6  A    between atoms: C_16  and  C_17
REMARK    7  A    between atoms: C_23  and  C_24
REMARK                            x       y       z     vdW  Elec       q    Type
REMARK                         _______ _______ _______ _____ _____    ______ ____
ROOT
ATOM      1  C   UNL     1       0.500   2.076  18.924  0.00  0.00    +0.000 C 
ATOM      2  C   UNL     1       1.726   2.948  18.917  0.00  0.00    +0.000 A 
ATOM      3  C   UNL     1       2.379   3.198  17.701  0.00  0.00    +0.000 A 
ATOM      4  C   UNL     1       3.533   4.009  17.629  0.00  0.00    +0.000 A 
ATOM      5  C   UNL     1       4.043   4.585  18.800  0.00  0.00    +0.000 A 
ATOM      6  C   UNL     1       3.378   4.326  20.024  0.00  0.00    +0.000 A 
ATOM      7  C   UNL     1       2.232   3.520  20.094  0.00  0.00    +0.000 A 
ATOM      8  C   UNL     1       1.573   3.288  21.426  0.00  0.00    +0.000 C 
ATOM      9  N   UNL     1       5.196   5.398  18.748  0.00  0.00    +0.000 N 
ATOM     10  O   UNL     1       5.631   5.904  19.850  0.00  0.00    +0.000 OA
ATOM     11  C   UNL     1       5.822   5.629  17.517  0.00  0.00    +0.000 A 
ATOM     12  C   UNL     1       5.309   5.048  16.329  0.00  0.00    +0.000 A 
ATOM     13  C   UNL     1       5.856   5.194  14.937  0.00  0.00    +0.000 C 
ATOM     14  N   UNL     1       4.170   4.245  16.397  0.00  0.00    +0.000 N 
ATOM     15  O   UNL     1       3.701   3.713  15.331  0.00  0.00    +0.000 OA
ENDROOT
BRANCH  11  16
ATOM     16  C   UNL     1       7.028   6.501  17.509  0.00  0.00    +0.000 C 
ATOM     17  O   UNL     1       8.151   6.010  17.497  0.00  0.00    +0.000 OA
ATOM     18  N   UNL     1       6.889   7.873  17.512  0.00  0.00    +0.000 N 
ATOM     19  H   UNL     1       5.937   8.264  17.532  0.00  0.00    +0.000 HD
BRANCH  18  20
ATOM     20  C   UNL     1       8.076   8.704  17.501  0.00  0.00    +0.000 C 
BRANCH  20  21
ATOM     21  C   UNL     1       8.735   8.902  18.862  0.00  0.00    +0.000 C 
BRANCH  21  22
ATOM     22  C   UNL     1       9.275  10.307  19.014  0.00  0.00    +0.000 A 
ATOM     23  C   UNL     1       9.764  11.035  17.916  0.00  0.00    +0.000 A 
ATOM     24  C   UNL     1      10.320  12.306  18.099  0.00  0.00    +0.000 A 
ATOM     25  C   UNL     1      10.387  12.866  19.373  0.00  0.00    +0.000 A 
ATOM     26  C   UNL     1       9.884  12.163  20.465  0.00  0.00    +0.000 A 
ATOM     27  C   UNL     1       9.336  10.891  20.287  0.00  0.00    +0.000 A 
ENDBRANCH  21  22
ENDBRANCH  20  21
ENDBRANCH  18  20
ENDBRANCH  11  16
TORSDOF 4
ENDMDL
MODEL 9
REMARK VINA RESULT:      -7.1      3.573      9.190
REMARK  Name = 
REMARK  7 active torsions:
REMARK  status: ('A' for Active; 'I' for Inactive)
REMARK    1  A    between atoms: C_1  and  C_2
REMARK    2  A    between atoms: C_7  and  C_8
REMARK    3  A    between atoms: C_11  and  C_12
REMARK    4  A    between atoms: N_14  and  C_15
REMARK    5  A    between atoms: C_15  and  C_16
REMARK    6  A    between atoms: C_16  and  C_17
REMARK    7  A    between atoms: C_23  and  C_24
REMARK                            x       y       z     vdW  Elec       q    Type
REMARK                         _______ _______ _______ _____ _____    ______ ____
ROOT
ATOM      1  C   UNL     1       4.898   3.995  18.355  0.00  0.00    +0.000 C 
ATOM      2  C   UNL     1       4.179   5.315  18.290  0.00  0.00    +0.000 A 
ATOM      3  C   UNL     1       3.288   5.659  19.318  0.00  0.00    +0.000 A 
ATOM      4  C   UNL     1       2.585   6.884  19.315  0.00  0.00    +0.000 A 
ATOM      5  C   UNL     1       2.780   7.785  18.260  0.00  0.00    +0.000 A 
ATOM      6  C   UNL     1       3.680   7.429  17.225  0.00  0.00    +0.000 A 
ATOM      7  C   UNL     1       4.377   6.212  17.230  0.00  0.00    +0.000 A 
ATOM      8  C   UNL     1       5.320   5.897  16.101  0.00  0.00    +0.000 C 
ATOM      9  N   UNL     1       2.085   9.014  18.238  0.00  0.00    +0.000 N 
ATOM     10  O   UNL     1       2.293   9.811  17.247  0.00  0.00    +0.000 OA
ATOM     11  C   UNL     1       1.205   9.327  19.282  0.00  0.00    +0.000 A 
ATOM     12  C   UNL     1       1.005   8.417  20.352  0.00  0.00    +0.000 A 
ATOM     13  C   UNL     1       0.104   8.598  21.540  0.00  0.00    +0.000 C 
ATOM     14  N   UNL     1       1.697   7.206  20.357  0.00  0.00    +0.000 N 
ATOM     15  O   UNL     1       1.521   6.376  21.316  0.00  0.00    +0.000 OA
ENDROOT
BRANCH  11  16
ATOM     16  C   UNL     1       0.503  10.639  19.222  0.00  0.00    +0.000 C 
ATOM     17  O   UNL     1       0.901  11.588  19.887  0.00  0.00    +0.000 OA
ATOM     18  N   UNL     1      -0.601  10.795  18.411  0.00  0.00    +0.000 N 
ATOM     19  H   UNL     1      -0.924   9.981  17.869  0.00  0.00    +0.000 HD
BRANCH  18  20
ATOM     20  C   UNL     1      -1.268  12.081  18.364  0.00  0.00    +0.000 C 
BRANCH  20  21
ATOM     21  C   UNL     1      -2.294  12.313  19.467  0.00  0.00    +0.000 C 
BRANCH  21  22
ATOM     22  C   UNL     1      -3.703  12.082  18.966  0.00  0.00    +0.000 A 
ATOM     23  C   UNL     1      -4.826  12.338  19.771  0.00  0.00    +0.000 A 
ATOM     24  C   UNL     1      -6.113  12.050  19.305  0.00  0.00    +0.000 A 
ATOM     25  C   UNL     1      -6.295  11.514  18.032  0.00  0.00    +0.000 A 
ATOM     26  C   UNL     1      -5.191  11.279  17.217  0.00  0.00    +0.000 A 
ATOM     27  C   UNL     1      -3.904  11.557  17.682  0.00  0.00    +0.000 A 
ENDBRANCH  21  22
ENDBRANCH  20  21
ENDBRANCH  18  20
ENDBRANCH  11  16
TORSDOF 4
ENDMDL
