MODEL 1
REMARK VINA RESULT:      -6.8      0.000      0.000
REMARK  Name = 
REMARK  2 active torsions:
REMARK  status: ('A' for Active; 'I' for Inactive)
REMARK    1  A    between atoms: C_1  and  C_2
REMARK    2  A    between atoms: C_9  and  C_10
REMARK                            x       y       z     vdW  Elec       q    Type
REMARK                         _______ _______ _______ _____ _____    ______ ____
ROOT
ATOM      1  C   UNL     1       4.272   1.972  20.234  0.00  0.00    +0.000 C 
ATOM      2  C   UNL     1       3.625   3.039  19.420  0.00  0.00    +0.000 A 
ATOM      3  C   UNL     1       2.253   3.004  19.161  0.00  0.00    +0.000 A 
ATOM      4  C   UNL     1       1.664   4.026  18.423  0.00  0.00    +0.000 A 
ATOM      5  C   UNL     1       2.444   5.084  17.945  0.00  0.00    +0.000 A 
ATOM      6  C   UNL     1       3.831   5.146  18.171  0.00  0.00    +0.000 A 
ATOM      7  C   UNL     1       4.668   6.277  17.650  0.00  0.00    +0.000 A 
ATOM      8  O   UNL     1       4.105   7.251  17.065  0.00  0.00    +0.000 OA
ATOM      9  C   UNL     1       6.004   6.127  17.859  0.00  0.00    +0.000 A 
ATOM     10  C   UNL     1       6.613   4.986  18.577  0.00  0.00    +0.000 A 
ATOM     11  O   UNL     1       7.826   4.836  18.720  0.00  0.00    +0.000 OA
ATOM     12  O   UNL     1       5.762   4.054  19.151  0.00  0.00    +0.000 OA
ATOM     13  C   UNL     1       4.388   4.104  18.902  0.00  0.00    +0.000 A 
ENDROOT
BRANCH   9  14
ATOM     14  C   UNL     1       6.947   7.099  17.389  0.00  0.00    +0.000 C 
ATOM     15  N   UNL     1       7.705   7.930  17.086  0.00  0.00    +0.000 NA
ENDBRANCH   9  14
TORSDOF 1
ENDMDL
MODEL 2
REMARK VINA RESULT:      -6.7      1.043      1.043
REMARK  Name = 
REMARK  2 active torsions:
REMARK  status: ('A' for Active; 'I' for Inactive)
REMARK    1  A    between atoms: C_1  and  C_2
REMARK    2  A    between atoms: C_9  and  C_10
REMARK                            x       y       z     vdW  Elec       q    Type
REMARK                         _______ _______ _______ _____ _____    ______ ____
ROOT
ATOM      1  C   UNL     1       4.200   2.151  20.740  0.00  0.00    +0.000 C 
ATOM      2  C   UNL     1       3.880   2.719  19.400  0.00  0.00    +0.000 A 
ATOM      3  C   UNL     1       2.850   2.180  18.626  0.00  0.00    +0.000 A 
ATOM      4  C   UNL     1       2.549   2.742  17.389  0.00  0.00    +0.000 A 
ATOM      5  C   UNL     1       3.275   3.844  16.926  0.00  0.00    +0.000 A 
ATOM      6  C   UNL     1       4.331   4.405  17.669  0.00  0.00    +0.000 A 
ATOM      7  C   UNL     1       5.114   5.581  17.167  0.00  0.00    +0.000 A 
ATOM      8  O   UNL     1       4.767   6.147  16.087  0.00  0.00    +0.000 OA
ATOM      9  C   UNL     1       6.170   5.927  17.953  0.00  0.00    +0.000 A 
ATOM     10  C   UNL     1       6.518   5.257  19.225  0.00  0.00    +0.000 A 
ATOM     11  O   UNL     1       7.502   5.547  19.905  0.00  0.00    +0.000 OA
ATOM     12  O   UNL     1       5.663   4.270  19.692  0.00  0.00    +0.000 OA
ATOM     13  C   UNL     1       4.610   3.811  18.894  0.00  0.00    +0.000 A 
ENDROOT
BRANCH   9  14
ATOM     14  C   UNL     1       7.044   7.005  17.597  0.00  0.00    +0.000 C 
ATOM     15  N   UNL     1       7.810   7.822  17.272  0.00  0.00    +0.000 NA
ENDBRANCH   9  14
TORSDOF 1
ENDMDL
MODEL 3
REMARK VINA RESULT:      -6.6      2.972      4.558
REMARK  Name = 
REMARK  2 active torsions:
REMARK  status: ('A' for Active; 'I' for Inactive)
REMARK    1  A    between atoms: C_1  and  C_2
REMARK    2  A    between atoms: C_9  and  C_10
REMARK                            x       y       z     vdW  Elec       q    Type
REMARK                         _______ _______ _______ _____ _____    ______ ____
ROOT
ATOM      1  C   UNL     1       7.244   4.506  17.226  0.00  0.00    +0.000 C 
ATOM      2  C   UNL     1       5.979   5.243  17.503  0.00  0.00    +0.000 A 
ATOM      3  C   UNL     1       5.724   6.473  16.894  0.00  0.00    +0.000 A 
ATOM      4  C   UNL     1       4.524   7.132  17.144  0.00  0.00    +0.000 A 
ATOM      5  C   UNL     1       3.577   6.561  18.001  0.00  0.00    +0.000 A 
ATOM      6  C   UNL     1       3.804   5.332  18.646  0.00  0.00    +0.000 A 
ATOM      7  C   UNL     1       2.791   4.724  19.571  0.00  0.00    +0.000 A 
ATOM      8  O   UNL     1       1.662   5.284  19.713  0.00  0.00    +0.000 OA
ATOM      9  C   UNL     1       3.213   3.592  20.198  0.00  0.00    +0.000 A 
ATOM     10  C   UNL     1       4.530   2.957  19.974  0.00  0.00    +0.000 A 
ATOM     11  O   UNL     1       4.921   1.960  20.581  0.00  0.00    +0.000 OA
ATOM     12  O   UNL     1       5.354   3.500  19.000  0.00  0.00    +0.000 OA
ATOM     13  C   UNL     1       5.017   4.707  18.381  0.00  0.00    +0.000 A 
ENDROOT
BRANCH   9  14
ATOM     14  C   UNL     1       2.382   2.909  21.143  0.00  0.00    +0.000 C 
ATOM     15  N   UNL     1       1.777   2.341  21.962  0.00  0.00    +0.000 NA
ENDBRANCH   9  14
TORSDOF 1
ENDMDL
MODEL 4
REMARK VINA RESULT:      -6.5      2.047      2.223
REMARK  Name = 
REMARK  2 active torsions:
REMARK  status: ('A' for Active; 'I' for Inactive)
REMARK    1  A    between atoms: C_1  and  C_2
REMARK    2  A    between atoms: C_9  and  C_10
REMARK                            x       y       z     vdW  Elec       q    Type
REMARK                         _______ _______ _______ _____ _____    ______ ____
ROOT
ATOM      1  C   UNL     1       2.301   4.275  21.637  0.00  0.00    +0.000 C 
ATOM      2  C   UNL     1       2.243   3.798  20.227  0.00  0.00    +0.000 A 
ATOM      3  C   UNL     1       1.106   3.146  19.743  0.00  0.00    +0.000 A 
ATOM      4  C   UNL     1       1.061   2.732  18.415  0.00  0.00    +0.000 A 
ATOM      5  C   UNL     1       2.149   2.972  17.569  0.00  0.00    +0.000 A 
ATOM      6  C   UNL     1       3.317   3.610  18.024  0.00  0.00    +0.000 A 
ATOM      7  C   UNL     1       4.486   3.859  17.118  0.00  0.00    +0.000 A 
ATOM      8  O   UNL     1       4.395   3.568  15.887  0.00  0.00    +0.000 OA
ATOM      9  C   UNL     1       5.576   4.383  17.742  0.00  0.00    +0.000 A 
ATOM     10  C   UNL     1       5.626   4.738  19.177  0.00  0.00    +0.000 A 
ATOM     11  O   UNL     1       6.631   5.168  19.742  0.00  0.00    +0.000 OA
ATOM     12  O   UNL     1       4.459   4.610  19.916  0.00  0.00    +0.000 OA
ATOM     13  C   UNL     1       3.332   4.000  19.357  0.00  0.00    +0.000 A 
ENDROOT
BRANCH   9  14
ATOM     14  C   UNL     1       6.791   4.645  17.028  0.00  0.00    +0.000 C 
ATOM     15  N   UNL     1       7.748   4.806  16.383  0.00  0.00    +0.000 NA
ENDBRANCH   9  14
TORSDOF 1
ENDMDL
MODEL 5
REMARK VINA RESULT:      -6.5      3.102      4.548
REMARK  Name = 
REMARK  2 active torsions:
REMARK  status: ('A' for Active; 'I' for Inactive)
REMARK    1  A    between atoms: C_1  and  C_2
REMARK    2  A    between atoms: C_9  and  C_10
REMARK                            x       y       z     vdW  Elec       q    Type
REMARK                         _______ _______ _______ _____ _____    ______ ____
ROOT
ATOM      1  C   UNL     1       5.861   3.815  15.593  0.00  0.00    +0.000 C 
ATOM      2  C   UNL     1       5.149   4.872  16.364  0.00  0.00    +0.000 A 
ATOM      3  C   UNL     1       5.175   6.202  15.940  0.00  0.00    +0.000 A 
ATOM      4  C   UNL     1       4.481   7.170  16.659  0.00  0.00    +0.000 A 
ATOM      5  C   UNL     1       3.758   6.810  17.801  0.00  0.00    +0.000 A 
ATOM      6  C   UNL     1       3.721   5.483  18.269  0.00  0.00    +0.000 A 
ATOM      7  C   UNL     1       2.952   5.099  19.499  0.00  0.00    +0.000 A 
ATOM      8  O   UNL     1       2.244   5.970  20.088  0.00  0.00    +0.000 OA
ATOM      9  C   UNL     1       3.113   3.802  19.877  0.00  0.00    +0.000 A 
ATOM     10  C   UNL     1       3.926   2.812  19.137  0.00  0.00    +0.000 A 
ATOM     11  O   UNL     1       4.103   1.654  19.513  0.00  0.00    +0.000 OA
ATOM     12  O   UNL     1       4.491   3.208  17.934  0.00  0.00    +0.000 OA
ATOM     13  C   UNL     1       4.434   4.546  17.533  0.00  0.00    +0.000 A 
ENDROOT
BRANCH   9  14
ATOM     14  C   UNL     1       2.478   3.283  21.052  0.00  0.00    +0.000 C 
ATOM     15  N   UNL     1       1.998   2.929  22.053  0.00  0.00    +0.000 NA
ENDBRANCH   9  14
TORSDOF 1
ENDMDL
MODEL 6
REMARK VINA RESULT:      -6.3      3.244      4.782
REMARK  Name = 
REMARK  2 active torsions:
REMARK  status: ('A' for Active; 'I' for Inactive)
REMARK    1  A    between atoms: C_1  and  C_2
REMARK    2  A    between atoms: C_9  and  C_10
REMARK                            x       y       z     vdW  Elec       q    Type
REMARK                         _______ _______ _______ _____ _____    ______ ____
ROOT
ATOM      1  C   UNL     1       5.632   5.171  16.556  0.00  0.00    +0.000 C 
ATOM      2  C   UNL     1       4.572   5.882  17.325  0.00  0.00    +0.000 A 
ATOM      3  C   UNL     1       4.245   7.207  17.028  0.00  0.00    +0.000 A 
ATOM      4  C   UNL     1       3.233   7.844  17.739  0.00  0.00    +0.000 A 
ATOM      5  C   UNL     1       2.546   7.159  18.746  0.00  0.00    +0.000 A 
ATOM      6  C   UNL     1       2.858   5.829  19.086  0.00  0.00    +0.000 A 
ATOM      7  C   UNL     1       2.127   5.097  20.172  0.00  0.00    +0.000 A 
ATOM      8  O   UNL     1       1.142   5.654  20.745  0.00  0.00    +0.000 OA
ATOM      9  C   UNL     1       2.627   3.862  20.449  0.00  0.00    +0.000 A 
ATOM     10  C   UNL     1       3.760   3.240  19.731  0.00  0.00    +0.000 A 
ATOM     11  O   UNL     1       4.234   2.142  20.020  0.00  0.00    +0.000 OA
ATOM     12  O   UNL     1       4.292   3.922  18.647  0.00  0.00    +0.000 OA
ATOM     13  C   UNL     1       3.881   5.228  18.362  0.00  0.00    +0.000 A 
ENDROOT
BRANCH   9  14
ATOM     14  C   UNL     1       2.067   3.047  21.487  0.00  0.00    +0.000 C 
ATOM     15  N   UNL     1       1.664   2.317  22.301  0.00  0.00    +0.000 NA
ENDBRANCH   9  14
TORSDOF 1
ENDMDL
MODEL 7
REMARK VINA RESULT:      -6.3      2.036      3.506
REMARK  Name = 
REMARK  2 active torsions:
REMARK  status: ('A' for Active; 'I' for Inactive)
REMARK    1  A    between atoms: C_1  and  C_2
REMARK    2  A    between atoms: C_9  and  C_10
REMARK                            x       y       z     vdW  Elec       q    Type
REMARK                         _______ _______ _______ _____ _____    ______ ____
ROOT
ATOM      1  C   UNL     1       1.886   8.365  18.124  0.00  0.00    +0.000 C 
ATOM      2  C   UNL     1       2.288   7.159  18.900  0.00  0.00    +0.000 A 
ATOM      3  C   UNL     1       1.504   6.700  19.960  0.00  0.00    +0.000 A 
ATOM      4  C   UNL     1       1.883   5.556  20.655  0.00  0.00    +0.000 A 
ATOM      5  C   UNL     1       3.045   4.868  20.290  0.00  0.00    +0.000 A 
ATOM      6  C   UNL     1       3.870   5.308  19.239  0.00  0.00    +0.000 A 
ATOM      7  C   UNL     1       5.120   4.574  18.854  0.00  0.00    +0.000 A 
ATOM      8  O   UNL     1       5.403   3.479  19.428  0.00  0.00    +0.000 OA
ATOM      9  C   UNL     1       5.860   5.194  17.895  0.00  0.00    +0.000 A 
ATOM     10  C   UNL     1       5.474   6.457  17.229  0.00  0.00    +0.000 A 
ATOM     11  O   UNL     1       6.172   7.034  16.397  0.00  0.00    +0.000 OA
ATOM     12  O   UNL     1       4.236   7.000  17.539  0.00  0.00    +0.000 OA
ATOM     13  C   UNL     1       3.467   6.460  18.574  0.00  0.00    +0.000 A 
ENDROOT
BRANCH   9  14
ATOM     14  C   UNL     1       7.104   4.645  17.440  0.00  0.00    +0.000 C 
ATOM     15  N   UNL     1       8.110   4.254  17.002  0.00  0.00    +0.000 NA
ENDBRANCH   9  14
TORSDOF 1
ENDMDL
MODEL 8
REMARK VINA RESULT:      -6.2      3.213      5.281
REMARK  Name = 
REMARK  2 active torsions:
REMARK  status: ('A' for Active; 'I' for Inactive)
REMARK    1  A    between atoms: C_1  and  C_2
REMARK    2  A    between atoms: C_9  and  C_10
REMARK                            x       y       z     vdW  Elec       q    Type
REMARK                         _______ _______ _______ _____ _____    ______ ____
ROOT
ATOM      1  C   UNL     1       3.206   8.111  17.454  0.00  0.00    +0.000 C 
ATOM      2  C   UNL     1       3.953   6.823  17.488  0.00  0.00    +0.000 A 
ATOM      3  C   UNL     1       4.978   6.570  16.574  0.00  0.00    +0.000 A 
ATOM      4  C   UNL     1       5.682   5.372  16.640  0.00  0.00    +0.000 A 
ATOM      5  C   UNL     1       5.365   4.426  17.620  0.00  0.00    +0.000 A 
ATOM      6  C   UNL     1       4.328   4.637  18.548  0.00  0.00    +0.000 A 
ATOM      7  C   UNL     1       3.982   3.618  19.593  0.00  0.00    +0.000 A 
ATOM      8  O   UNL     1       4.694   2.575  19.707  0.00  0.00    +0.000 OA
ATOM      9  C   UNL     1       2.884   3.928  20.335  0.00  0.00    +0.000 A 
ATOM     10  C   UNL     1       2.103   5.174  20.188  0.00  0.00    +0.000 A 
ATOM     11  O   UNL     1       1.084   5.424  20.832  0.00  0.00    +0.000 OA
ATOM     12  O   UNL     1       2.568   6.129  19.297  0.00  0.00    +0.000 OA
ATOM     13  C   UNL     1       3.639   5.839  18.446  0.00  0.00    +0.000 A 
ENDROOT
BRANCH   9  14
ATOM     14  C   UNL     1       2.396   3.042  21.351  0.00  0.00    +0.000 C 
ATOM     15  N   UNL     1       1.941   2.292  22.118  0.00  0.00    +0.000 NA
ENDBRANCH   9  14
TORSDOF 1
ENDMDL
MODEL 9
REMARK VINA RESULT:      -6.1      2.368      3.517
REMARK  Name = 
REMARK  2 active torsions:
REMARK  status: ('A' for Active; 'I' for Inactive)
REMARK    1  A    between atoms: C_1  and  C_2
REMARK    2  A    between atoms: C_9  and  C_10
REMARK                            x       y       z     vdW  Elec       q    Type
REMARK                         _______ _______ _______ _____ _____    ______ ____
ROOT
ATOM      1  C   UNL     1       1.982   7.558  20.069  0.00  0.00    +0.000 C 
ATOM      2  C   UNL     1       2.116   6.079  19.951  0.00  0.00    +0.000 A 
ATOM      3  C   UNL     1       1.466   5.232  20.851  0.00  0.00    +0.000 A 
ATOM      4  C   UNL     1       1.581   3.853  20.707  0.00  0.00    +0.000 A 
ATOM      5  C   UNL     1       2.345   3.319  19.664  0.00  0.00    +0.000 A 
ATOM      6  C   UNL     1       3.028   4.139  18.748  0.00  0.00    +0.000 A 
ATOM      7  C   UNL     1       3.854   3.566  17.635  0.00  0.00    +0.000 A 
ATOM      8  O   UNL     1       3.871   2.311  17.454  0.00  0.00    +0.000 OA
ATOM      9  C   UNL     1       4.538   4.493  16.910  0.00  0.00    +0.000 A 
ATOM     10  C   UNL     1       4.461   5.952  17.138  0.00  0.00    +0.000 A 
ATOM     11  O   UNL     1       5.119   6.779  16.508  0.00  0.00    +0.000 OA
ATOM     12  O   UNL     1       3.568   6.412  18.094  0.00  0.00    +0.000 OA
ATOM     13  C   UNL     1       2.899   5.511  18.928  0.00  0.00    +0.000 A 
ENDROOT
BRANCH   9  14
ATOM     14  C   UNL     1       5.404   4.109  15.835  0.00  0.00    +0.000 C 
ATOM     15  N   UNL     1       6.159   3.755  15.020  0.00  0.00    +0.000 NA
ENDBRANCH   9  14
TORSDOF 1
ENDMDL
