MODEL 1
REMARK VINA RESULT:      -7.4      0.000      0.000
REMARK  Name = 
REMARK  4 active torsions:
REMARK  status: ('A' for Active; 'I' for Inactive)
REMARK    1  A    between atoms: C_2  and  C_3
REMARK    2  A    between atoms: C_3  and  C_4
REMARK    3  A    between atoms: N_14  and  S_15
REMARK    4  A    between atoms: S_15  and  C_18
REMARK                            x       y       z     vdW  Elec       q    Type
REMARK                         _______ _______ _______ _____ _____    ______ ____
ROOT
ATOM      1  O   UNL     1       3.191   7.684  17.708  0.00  0.00    +0.000 OA
ATOM      2  C   UNL     1       2.457   7.725  18.699  0.00  0.00    +0.000 C 
ATOM      3  N   UNL     1       1.717   8.854  19.012  0.00  0.00    +0.000 N 
ATOM      4  C   UNL     1       0.812   8.997  20.165  0.00  0.00    +0.000 C 
ATOM      5  C   UNL     1       0.835  10.422  20.749  0.00  0.00    +0.000 C 
ATOM      6  N   UNL     1       0.603  11.454  19.700  0.00  0.00    +0.000 NA
ATOM      7  C   UNL     1       1.669  11.310  18.642  0.00  0.00    +0.000 C 
ATOM      8  C   UNL     1       1.631   9.922  17.996  0.00  0.00    +0.000 C 
ENDROOT
BRANCH   6   9
ATOM      9  S   UNL     1      -1.008  11.583  19.123  0.00  0.00    +0.000 S 
ATOM     10  O   UNL     1      -1.016  12.491  17.997  0.00  0.00    +0.000 OA
ATOM     11  O   UNL     1      -1.544  10.248  18.977  0.00  0.00    +0.000 OA
BRANCH   9  12
ATOM     12  C   UNL     1      -1.905  12.352  20.438  0.00  0.00    +0.000 A 
ATOM     13  C   UNL     1      -1.259  12.670  21.637  0.00  0.00    +0.000 A 
ATOM     14  C   UNL     1      -1.978  13.253  22.688  0.00  0.00    +0.000 A 
ATOM     15  C   UNL     1      -3.336  13.528  22.535  0.00  0.00    +0.000 A 
ATOM     16  C   UNL     1      -3.983  13.191  21.339  0.00  0.00    +0.000 A 
ATOM     17  C   UNL     1      -3.267  12.587  20.304  0.00  0.00    +0.000 A 
ATOM     18  F   UNL     1      -3.934  12.236  19.199  0.00  0.00    +0.000 F 
ENDBRANCH   9  12
ENDBRANCH   6   9
BRANCH   2  19
ATOM     19  C   UNL     1       2.338   6.498  19.592  0.00  0.00    +0.000 C 
BRANCH  19  20
ATOM     20  C   UNL     1       2.742   5.256  18.806  0.00  0.00    +0.000 C 
ATOM     21  C   UNL     1       1.620   4.714  17.891  0.00  0.00    +0.000 C 
ATOM     22  C   UNL     1       1.622   3.207  18.199  0.00  0.00    +0.000 C 
ATOM     23  C   UNL     1       0.952   2.985  19.565  0.00  0.00    +0.000 C 
ATOM     24  C   UNL     1       1.997   3.530  20.550  0.00  0.00    +0.000 C 
ATOM     25  C   UNL     1       3.134   4.007  19.628  0.00  0.00    +0.000 C 
ATOM     26  C   UNL     1       3.089   2.941  18.527  0.00  0.00    +0.000 C 
ENDBRANCH  19  20
ENDBRANCH   2  19
TORSDOF 4
ENDMDL
MODEL 2
REMARK VINA RESULT:      -7.3      2.788      3.559
REMARK  Name = 
REMARK  4 active torsions:
REMARK  status: ('A' for Active; 'I' for Inactive)
REMARK    1  A    between atoms: C_2  and  C_3
REMARK    2  A    between atoms: C_3  and  C_4
REMARK    3  A    between atoms: N_14  and  S_15
REMARK    4  A    between atoms: S_15  and  C_18
REMARK                            x       y       z     vdW  Elec       q    Type
REMARK                         _______ _______ _______ _____ _____    ______ ____
ROOT
ATOM      1  O   UNL     1       2.867   5.677  19.808  0.00  0.00    +0.000 OA
ATOM      2  C   UNL     1       2.772   6.679  19.094  0.00  0.00    +0.000 C 
ATOM      3  N   UNL     1       1.989   7.763  19.459  0.00  0.00    +0.000 N 
ATOM      4  C   UNL     1       1.817   9.001  18.679  0.00  0.00    +0.000 C 
ATOM      5  C   UNL     1       0.390   9.568  18.795  0.00  0.00    +0.000 C 
ATOM      6  N   UNL     1      -0.033   9.716  20.217  0.00  0.00    +0.000 NA
ATOM      7  C   UNL     1       0.044   8.364  20.882  0.00  0.00    +0.000 C 
ATOM      8  C   UNL     1       1.468   7.800  20.839  0.00  0.00    +0.000 C 
ENDROOT
BRANCH   6   9
ATOM      9  S   UNL     1       0.687  11.014  21.078  0.00  0.00    +0.000 S 
ATOM     10  O   UNL     1       1.463  10.461  22.167  0.00  0.00    +0.000 OA
ATOM     11  O   UNL     1       1.315  11.898  20.122  0.00  0.00    +0.000 OA
BRANCH   9  12
ATOM     12  C   UNL     1      -0.669  11.903  21.783  0.00  0.00    +0.000 A 
ATOM     13  C   UNL     1      -0.950  13.205  21.359  0.00  0.00    +0.000 A 
ATOM     14  C   UNL     1      -2.008  13.918  21.940  0.00  0.00    +0.000 A 
ATOM     15  C   UNL     1      -2.788  13.324  22.930  0.00  0.00    +0.000 A 
ATOM     16  C   UNL     1      -2.491  12.025  23.363  0.00  0.00    +0.000 A 
ATOM     17  C   UNL     1      -1.421  11.328  22.799  0.00  0.00    +0.000 A 
ATOM     18  F   UNL     1      -1.141  10.111  23.277  0.00  0.00    +0.000 F 
ENDBRANCH   9  12
ENDBRANCH   6   9
BRANCH   2  19
ATOM     19  C   UNL     1       3.552   6.742  17.788  0.00  0.00    +0.000 C 
BRANCH  19  20
ATOM     20  C   UNL     1       4.945   6.164  18.000  0.00  0.00    +0.000 C 
ATOM     21  C   UNL     1       6.052   6.926  17.235  0.00  0.00    +0.000 C 
ATOM     22  C   UNL     1       6.853   5.795  16.569  0.00  0.00    +0.000 C 
ATOM     23  C   UNL     1       6.048   5.264  15.371  0.00  0.00    +0.000 C 
ATOM     24  C   UNL     1       4.894   4.507  16.044  0.00  0.00    +0.000 C 
ATOM     25  C   UNL     1       5.172   4.703  17.545  0.00  0.00    +0.000 C 
ATOM     26  C   UNL     1       6.705   4.653  17.572  0.00  0.00    +0.000 C 
ENDBRANCH  19  20
ENDBRANCH   2  19
TORSDOF 4
ENDMDL
MODEL 3
REMARK VINA RESULT:      -7.1      2.417      3.173
REMARK  Name = 
REMARK  4 active torsions:
REMARK  status: ('A' for Active; 'I' for Inactive)
REMARK    1  A    between atoms: C_2  and  C_3
REMARK    2  A    between atoms: C_3  and  C_4
REMARK    3  A    between atoms: N_14  and  S_15
REMARK    4  A    between atoms: S_15  and  C_18
REMARK                            x       y       z     vdW  Elec       q    Type
REMARK                         _______ _______ _______ _____ _____    ______ ____
ROOT
ATOM      1  O   UNL     1       2.788   6.068  19.914  0.00  0.00    +0.000 OA
ATOM      2  C   UNL     1       2.667   6.967  19.078  0.00  0.00    +0.000 C 
ATOM      3  N   UNL     1       1.883   8.085  19.317  0.00  0.00    +0.000 N 
ATOM      4  C   UNL     1       1.682   9.209  18.386  0.00  0.00    +0.000 C 
ATOM      5  C   UNL     1       0.253   9.778  18.463  0.00  0.00    +0.000 C 
ATOM      6  N   UNL     1      -0.137  10.108  19.863  0.00  0.00    +0.000 NA
ATOM      7  C   UNL     1      -0.032   8.856  20.697  0.00  0.00    +0.000 C 
ATOM      8  C   UNL     1       1.396   8.299  20.693  0.00  0.00    +0.000 C 
ENDROOT
BRANCH   6   9
ATOM      9  S   UNL     1       0.592  11.512  20.529  0.00  0.00    +0.000 S 
ATOM     10  O   UNL     1       1.434  11.107  21.633  0.00  0.00    +0.000 OA
ATOM     11  O   UNL     1       1.149  12.290  19.445  0.00  0.00    +0.000 OA
BRANCH   9  12
ATOM     12  C   UNL     1      -0.749  12.452  21.194  0.00  0.00    +0.000 A 
ATOM     13  C   UNL     1      -0.831  12.683  22.571  0.00  0.00    +0.000 A 
ATOM     14  C   UNL     1      -1.910  13.403  23.099  0.00  0.00    +0.000 A 
ATOM     15  C   UNL     1      -2.897  13.902  22.250  0.00  0.00    +0.000 A 
ATOM     16  C   UNL     1      -2.821  13.652  20.873  0.00  0.00    +0.000 A 
ATOM     17  C   UNL     1      -1.756  12.912  20.355  0.00  0.00    +0.000 A 
ATOM     18  F   UNL     1      -1.749  12.655  19.043  0.00  0.00    +0.000 F 
ENDBRANCH   9  12
ENDBRANCH   6   9
BRANCH   2  19
ATOM     19  C   UNL     1       3.415   6.862  17.756  0.00  0.00    +0.000 C 
BRANCH  19  20
ATOM     20  C   UNL     1       4.797   6.270  17.999  0.00  0.00    +0.000 C 
ATOM     21  C   UNL     1       5.916   6.965  17.189  0.00  0.00    +0.000 C 
ATOM     22  C   UNL     1       6.693   5.781  16.589  0.00  0.00    +0.000 C 
ATOM     23  C   UNL     1       5.875   5.197  15.425  0.00  0.00    +0.000 C 
ATOM     24  C   UNL     1       4.708   4.503  16.142  0.00  0.00    +0.000 C 
ATOM     25  C   UNL     1       4.994   4.782  17.629  0.00  0.00    +0.000 C 
ATOM     26  C   UNL     1       6.525   4.703  17.657  0.00  0.00    +0.000 C 
ENDBRANCH  19  20
ENDBRANCH   2  19
TORSDOF 4
ENDMDL
MODEL 4
REMARK VINA RESULT:      -7.1      1.184      1.360
REMARK  Name = 
REMARK  4 active torsions:
REMARK  status: ('A' for Active; 'I' for Inactive)
REMARK    1  A    between atoms: C_2  and  C_3
REMARK    2  A    between atoms: C_3  and  C_4
REMARK    3  A    between atoms: N_14  and  S_15
REMARK    4  A    between atoms: S_15  and  C_18
REMARK                            x       y       z     vdW  Elec       q    Type
REMARK                         _______ _______ _______ _____ _____    ______ ____
ROOT
ATOM      1  O   UNL     1       3.023   7.781  17.860  0.00  0.00    +0.000 OA
ATOM      2  C   UNL     1       2.282   7.902  18.839  0.00  0.00    +0.000 C 
ATOM      3  N   UNL     1       1.606   9.082  19.100  0.00  0.00    +0.000 N 
ATOM      4  C   UNL     1       0.698   9.320  20.236  0.00  0.00    +0.000 C 
ATOM      5  C   UNL     1       0.797  10.762  20.767  0.00  0.00    +0.000 C 
ATOM      6  N   UNL     1       0.636  11.766  19.677  0.00  0.00    +0.000 NA
ATOM      7  C   UNL     1       1.703  11.521  18.639  0.00  0.00    +0.000 C 
ATOM      8  C   UNL     1       1.592  10.113  18.044  0.00  0.00    +0.000 C 
ENDROOT
BRANCH   6   9
ATOM      9  S   UNL     1      -0.959  11.965  19.075  0.00  0.00    +0.000 S 
ATOM     10  O   UNL     1      -0.883  12.658  17.807  0.00  0.00    +0.000 OA
ATOM     11  O   UNL     1      -1.636  10.691  19.161  0.00  0.00    +0.000 OA
BRANCH   9  12
ATOM     12  C   UNL     1      -1.752  13.043  20.230  0.00  0.00    +0.000 A 
ATOM     13  C   UNL     1      -2.919  12.637  20.884  0.00  0.00    +0.000 A 
ATOM     14  C   UNL     1      -3.561  13.505  21.777  0.00  0.00    +0.000 A 
ATOM     15  C   UNL     1      -3.030  14.769  22.024  0.00  0.00    +0.000 A 
ATOM     16  C   UNL     1      -1.870  15.179  21.352  0.00  0.00    +0.000 A 
ATOM     17  C   UNL     1      -1.248  14.320  20.445  0.00  0.00    +0.000 A 
ATOM     18  F   UNL     1      -0.172  14.769  19.789  0.00  0.00    +0.000 F 
ENDBRANCH   9  12
ENDBRANCH   6   9
BRANCH   2  19
ATOM     19  C   UNL     1       2.084   6.718  19.775  0.00  0.00    +0.000 C 
BRANCH  19  20
ATOM     20  C   UNL     1       2.635   5.456  19.124  0.00  0.00    +0.000 C 
ATOM     21  C   UNL     1       1.656   4.803  18.121  0.00  0.00    +0.000 C 
ATOM     22  C   UNL     1       1.690   3.318  18.523  0.00  0.00    +0.000 C 
ATOM     23  C   UNL     1       0.872   3.141  19.813  0.00  0.00    +0.000 C 
ATOM     24  C   UNL     1       1.766   3.798  20.876  0.00  0.00    +0.000 C 
ATOM     25  C   UNL     1       2.982   4.279  20.064  0.00  0.00    +0.000 C 
ATOM     26  C   UNL     1       3.118   3.150  19.036  0.00  0.00    +0.000 C 
ENDBRANCH  19  20
ENDBRANCH   2  19
TORSDOF 4
ENDMDL
MODEL 5
REMARK VINA RESULT:      -7.0      1.950      2.308
REMARK  Name = 
REMARK  4 active torsions:
REMARK  status: ('A' for Active; 'I' for Inactive)
REMARK    1  A    between atoms: C_2  and  C_3
REMARK    2  A    between atoms: C_3  and  C_4
REMARK    3  A    between atoms: N_14  and  S_15
REMARK    4  A    between atoms: S_15  and  C_18
REMARK                            x       y       z     vdW  Elec       q    Type
REMARK                         _______ _______ _______ _____ _____    ______ ____
ROOT
ATOM      1  O   UNL     1       2.231   8.179  17.643  0.00  0.00    +0.000 OA
ATOM      2  C   UNL     1       2.052   7.849  18.818  0.00  0.00    +0.000 C 
ATOM      3  N   UNL     1       1.536   8.731  19.753  0.00  0.00    +0.000 N 
ATOM      4  C   UNL     1       1.281   8.430  21.173  0.00  0.00    +0.000 C 
ATOM      5  C   UNL     1       1.562   9.639  22.083  0.00  0.00    +0.000 C 
ATOM      6  N   UNL     1       0.851  10.862  21.615  0.00  0.00    +0.000 NA
ATOM      7  C   UNL     1       1.292  11.162  20.204  0.00  0.00    +0.000 C 
ATOM      8  C   UNL     1       0.968  10.001  19.258  0.00  0.00    +0.000 C 
ENDROOT
BRANCH   6   9
ATOM      9  S   UNL     1      -0.843  10.890  21.890  0.00  0.00    +0.000 S 
ATOM     10  O   UNL     1      -1.513  10.802  20.610  0.00  0.00    +0.000 OA
ATOM     11  O   UNL     1      -1.149   9.935  22.931  0.00  0.00    +0.000 OA
BRANCH   9  12
ATOM     12  C   UNL     1      -1.171  12.494  22.557  0.00  0.00    +0.000 A 
ATOM     13  C   UNL     1      -0.319  13.564  22.265  0.00  0.00    +0.000 A 
ATOM     14  C   UNL     1      -0.565  14.828  22.819  0.00  0.00    +0.000 A 
ATOM     15  C   UNL     1      -1.667  15.022  23.649  0.00  0.00    +0.000 A 
ATOM     16  C   UNL     1      -2.508  13.943  23.952  0.00  0.00    +0.000 A 
ATOM     17  C   UNL     1      -2.244  12.680  23.419  0.00  0.00    +0.000 A 
ATOM     18  F   UNL     1      -3.043  11.668  23.774  0.00  0.00    +0.000 F 
ENDBRANCH   9  12
ENDBRANCH   6   9
BRANCH   2  19
ATOM     19  C   UNL     1       2.383   6.428  19.253  0.00  0.00    +0.000 C 
BRANCH  19  20
ATOM     20  C   UNL     1       2.694   5.580  18.026  0.00  0.00    +0.000 C 
ATOM     21  C   UNL     1       1.831   4.301  17.926  0.00  0.00    +0.000 C 
ATOM     22  C   UNL     1       2.868   3.208  17.616  0.00  0.00    +0.000 C 
ATOM     23  C   UNL     1       3.638   2.883  18.906  0.00  0.00    +0.000 C 
ATOM     24  C   UNL     1       4.513   4.129  19.105  0.00  0.00    +0.000 C 
ATOM     25  C   UNL     1       4.131   5.021  17.909  0.00  0.00    +0.000 C 
ATOM     26  C   UNL     1       3.919   3.971  16.812  0.00  0.00    +0.000 C 
ENDBRANCH  19  20
ENDBRANCH   2  19
TORSDOF 4
ENDMDL
MODEL 6
REMARK VINA RESULT:      -7.0      0.829      1.163
REMARK  Name = 
REMARK  4 active torsions:
REMARK  status: ('A' for Active; 'I' for Inactive)
REMARK    1  A    between atoms: C_2  and  C_3
REMARK    2  A    between atoms: C_3  and  C_4
REMARK    3  A    between atoms: N_14  and  S_15
REMARK    4  A    between atoms: S_15  and  C_18
REMARK                            x       y       z     vdW  Elec       q    Type
REMARK                         _______ _______ _______ _____ _____    ______ ____
ROOT
ATOM      1  O   UNL     1       3.398   7.202  17.525  0.00  0.00    +0.000 OA
ATOM      2  C   UNL     1       2.813   7.272  18.609  0.00  0.00    +0.000 C 
ATOM      3  N   UNL     1       2.032   8.365  18.948  0.00  0.00    +0.000 N 
ATOM      4  C   UNL     1       1.293   8.537  20.211  0.00  0.00    +0.000 C 
ATOM      5  C   UNL     1       1.278  10.003  20.680  0.00  0.00    +0.000 C 
ATOM      6  N   UNL     1       0.810  10.924  19.606  0.00  0.00    +0.000 NA
ATOM      7  C   UNL     1       1.721  10.771  18.414  0.00  0.00    +0.000 C 
ATOM      8  C   UNL     1       1.709   9.334  17.882  0.00  0.00    +0.000 C 
ENDROOT
BRANCH   6   9
ATOM      9  S   UNL     1      -0.873  10.884  19.270  0.00  0.00    +0.000 S 
ATOM     10  O   UNL     1      -1.068  11.250  17.884  0.00  0.00    +0.000 OA
ATOM     11  O   UNL     1      -1.404   9.635  19.768  0.00  0.00    +0.000 OA
BRANCH   9  12
ATOM     12  C   UNL     1      -1.568  12.168  20.266  0.00  0.00    +0.000 A 
ATOM     13  C   UNL     1      -0.797  12.785  21.256  0.00  0.00    +0.000 A 
ATOM     14  C   UNL     1      -1.360  13.782  22.064  0.00  0.00    +0.000 A 
ATOM     15  C   UNL     1      -2.685  14.169  21.872  0.00  0.00    +0.000 A 
ATOM     16  C   UNL     1      -3.459  13.535  20.890  0.00  0.00    +0.000 A 
ATOM     17  C   UNL     1      -2.901  12.525  20.106  0.00  0.00    +0.000 A 
ATOM     18  F   UNL     1      -3.689  11.913  19.216  0.00  0.00    +0.000 F 
ENDBRANCH   9  12
ENDBRANCH   6   9
BRANCH   2  19
ATOM     19  C   UNL     1       2.929   6.118  19.596  0.00  0.00    +0.000 C 
BRANCH  19  20
ATOM     20  C   UNL     1       1.903   5.047  19.251  0.00  0.00    +0.000 C 
ATOM     21  C   UNL     1       1.007   4.644  20.445  0.00  0.00    +0.000 C 
ATOM     22  C   UNL     1       1.039   3.107  20.396  0.00  0.00    +0.000 C 
ATOM     23  C   UNL     1       2.396   2.628  20.936  0.00  0.00    +0.000 C 
ATOM     24  C   UNL     1       3.368   3.020  19.813  0.00  0.00    +0.000 C 
ATOM     25  C   UNL     1       2.450   3.683  18.770  0.00  0.00    +0.000 C 
ATOM     26  C   UNL     1       1.184   2.829  18.902  0.00  0.00    +0.000 C 
ENDBRANCH  19  20
ENDBRANCH   2  19
TORSDOF 4
ENDMDL
MODEL 7
REMARK VINA RESULT:      -7.0      2.744      3.540
REMARK  Name = 
REMARK  4 active torsions:
REMARK  status: ('A' for Active; 'I' for Inactive)
REMARK    1  A    between atoms: C_2  and  C_3
REMARK    2  A    between atoms: C_3  and  C_4
REMARK    3  A    between atoms: N_14  and  S_15
REMARK    4  A    between atoms: S_15  and  C_18
REMARK                            x       y       z     vdW  Elec       q    Type
REMARK                         _______ _______ _______ _____ _____    ______ ____
ROOT
ATOM      1  O   UNL     1       2.744   5.974  19.912  0.00  0.00    +0.000 OA
ATOM      2  C   UNL     1       2.666   6.849  19.046  0.00  0.00    +0.000 C 
ATOM      3  N   UNL     1       1.942   8.013  19.248  0.00  0.00    +0.000 N 
ATOM      4  C   UNL     1       1.795   9.114  18.279  0.00  0.00    +0.000 C 
ATOM      5  C   UNL     1       0.399   9.758  18.339  0.00  0.00    +0.000 C 
ATOM      6  N   UNL     1       0.031  10.156  19.728  0.00  0.00    +0.000 NA
ATOM      7  C   UNL     1       0.074   8.929  20.605  0.00  0.00    +0.000 C 
ATOM      8  C   UNL     1       1.471   8.300  20.617  0.00  0.00    +0.000 C 
ENDROOT
BRANCH   6   9
ATOM      9  S   UNL     1       0.834  11.542  20.344  0.00  0.00    +0.000 S 
ATOM     10  O   UNL     1       1.466  11.183  21.594  0.00  0.00    +0.000 OA
ATOM     11  O   UNL     1       1.621  12.120  19.278  0.00  0.00    +0.000 OA
BRANCH   9  12
ATOM     12  C   UNL     1      -0.457  12.694  20.706  0.00  0.00    +0.000 A 
ATOM     13  C   UNL     1      -1.762  12.449  20.268  0.00  0.00    +0.000 A 
ATOM     14  C   UNL     1      -2.777  13.378  20.531  0.00  0.00    +0.000 A 
ATOM     15  C   UNL     1      -2.489  14.541  21.243  0.00  0.00    +0.000 A 
ATOM     16  C   UNL     1      -1.177  14.791  21.665  0.00  0.00    +0.000 A 
ATOM     17  C   UNL     1      -0.164  13.874  21.378  0.00  0.00    +0.000 A 
ATOM     18  F   UNL     1       1.083  14.176  21.755  0.00  0.00    +0.000 F 
ENDBRANCH   9  12
ENDBRANCH   6   9
BRANCH   2  19
ATOM     19  C   UNL     1       3.403   6.660  17.727  0.00  0.00    +0.000 C 
BRANCH  19  20
ATOM     20  C   UNL     1       4.818   6.166  18.000  0.00  0.00    +0.000 C 
ATOM     21  C   UNL     1       5.902   6.932  17.208  0.00  0.00    +0.000 C 
ATOM     22  C   UNL     1       6.771   5.802  16.631  0.00  0.00    +0.000 C 
ATOM     23  C   UNL     1       6.018   5.159  15.455  0.00  0.00    +0.000 C 
ATOM     24  C   UNL     1       4.887   4.389  16.153  0.00  0.00    +0.000 C 
ATOM     25  C   UNL     1       5.124   4.693  17.644  0.00  0.00    +0.000 C 
ATOM     26  C   UNL     1       6.656   4.720  17.702  0.00  0.00    +0.000 C 
ENDBRANCH  19  20
ENDBRANCH   2  19
TORSDOF 4
ENDMDL
MODEL 8
REMARK VINA RESULT:      -7.0      1.367      1.740
REMARK  Name = 
REMARK  4 active torsions:
REMARK  status: ('A' for Active; 'I' for Inactive)
REMARK    1  A    between atoms: C_2  and  C_3
REMARK    2  A    between atoms: C_3  and  C_4
REMARK    3  A    between atoms: N_14  and  S_15
REMARK    4  A    between atoms: S_15  and  C_18
REMARK                            x       y       z     vdW  Elec       q    Type
REMARK                         _______ _______ _______ _____ _____    ______ ____
ROOT
ATOM      1  O   UNL     1       3.369   7.142  17.437  0.00  0.00    +0.000 OA
ATOM      2  C   UNL     1       2.865   7.190  18.562  0.00  0.00    +0.000 C 
ATOM      3  N   UNL     1       2.104   8.273  18.974  0.00  0.00    +0.000 N 
ATOM      4  C   UNL     1       1.459   8.419  20.291  0.00  0.00    +0.000 C 
ATOM      5  C   UNL     1       1.470   9.877  20.784  0.00  0.00    +0.000 C 
ATOM      6  N   UNL     1       0.919  10.812  19.763  0.00  0.00    +0.000 NA
ATOM      7  C   UNL     1       1.741  10.684  18.504  0.00  0.00    +0.000 C 
ATOM      8  C   UNL     1       1.699   9.256  17.951  0.00  0.00    +0.000 C 
ENDROOT
BRANCH   6   9
ATOM      9  S   UNL     1      -0.783  10.765  19.551  0.00  0.00    +0.000 S 
ATOM     10  O   UNL     1      -1.086  11.202  18.205  0.00  0.00    +0.000 OA
ATOM     11  O   UNL     1      -1.262   9.483  20.016  0.00  0.00    +0.000 OA
BRANCH   9  12
ATOM     12  C   UNL     1      -1.417  11.982  20.665  0.00  0.00    +0.000 A 
ATOM     13  C   UNL     1      -1.788  13.244  20.191  0.00  0.00    +0.000 A 
ATOM     14  C   UNL     1      -2.262  14.216  21.081  0.00  0.00    +0.000 A 
ATOM     15  C   UNL     1      -2.377  13.921  22.439  0.00  0.00    +0.000 A 
ATOM     16  C   UNL     1      -1.987  12.661  22.912  0.00  0.00    +0.000 A 
ATOM     17  C   UNL     1      -1.491  11.705  22.024  0.00  0.00    +0.000 A 
ATOM     18  F   UNL     1      -1.084  10.534  22.525  0.00  0.00    +0.000 F 
ENDBRANCH   9  12
ENDBRANCH   6   9
BRANCH   2  19
ATOM     19  C   UNL     1       3.061   6.022  19.518  0.00  0.00    +0.000 C 
BRANCH  19  20
ATOM     20  C   UNL     1       2.000   4.962  19.251  0.00  0.00    +0.000 C 
ATOM     21  C   UNL     1       1.088   4.683  20.468  0.00  0.00    +0.000 C 
ATOM     22  C   UNL     1       1.068   3.147  20.539  0.00  0.00    +0.000 C 
ATOM     23  C   UNL     1       2.407   2.667  21.122  0.00  0.00    +0.000 C 
ATOM     24  C   UNL     1       3.394   2.937  19.977  0.00  0.00    +0.000 C 
ATOM     25  C   UNL     1       2.502   3.548  18.881  0.00  0.00    +0.000 C 
ATOM     26  C   UNL     1       1.208   2.749  19.072  0.00  0.00    +0.000 C 
ENDBRANCH  19  20
ENDBRANCH   2  19
TORSDOF 4
ENDMDL
MODEL 9
REMARK VINA RESULT:      -7.0      2.418      3.177
REMARK  Name = 
REMARK  4 active torsions:
REMARK  status: ('A' for Active; 'I' for Inactive)
REMARK    1  A    between atoms: C_2  and  C_3
REMARK    2  A    between atoms: C_3  and  C_4
REMARK    3  A    between atoms: N_14  and  S_15
REMARK    4  A    between atoms: S_15  and  C_18
REMARK                            x       y       z     vdW  Elec       q    Type
REMARK                         _______ _______ _______ _____ _____    ______ ____
ROOT
ATOM      1  O   UNL     1       2.455   6.446  20.081  0.00  0.00    +0.000 OA
ATOM      2  C   UNL     1       2.287   7.304  19.211  0.00  0.00    +0.000 C 
ATOM      3  N   UNL     1       1.546   8.450  19.450  0.00  0.00    +0.000 N 
ATOM      4  C   UNL     1       1.295   9.530  18.480  0.00  0.00    +0.000 C 
ATOM      5  C   UNL     1      -0.112  10.135  18.636  0.00  0.00    +0.000 C 
ATOM      6  N   UNL     1      -0.386  10.546  20.042  0.00  0.00    +0.000 NA
ATOM      7  C   UNL     1      -0.241   9.335  20.931  0.00  0.00    +0.000 C 
ATOM      8  C   UNL     1       1.171   8.745  20.847  0.00  0.00    +0.000 C 
ENDROOT
BRANCH   6   9
ATOM      9  S   UNL     1       0.419  11.964  20.576  0.00  0.00    +0.000 S 
ATOM     10  O   UNL     1       1.609  11.567  21.298  0.00  0.00    +0.000 OA
ATOM     11  O   UNL     1       0.525  12.872  19.456  0.00  0.00    +0.000 OA
BRANCH   9  12
ATOM     12  C   UNL     1      -0.688  12.709  21.735  0.00  0.00    +0.000 A 
ATOM     13  C   UNL     1      -1.981  12.203  21.897  0.00  0.00    +0.000 A 
ATOM     14  C   UNL     1      -2.866  12.813  22.795  0.00  0.00    +0.000 A 
ATOM     15  C   UNL     1      -2.453  13.918  23.538  0.00  0.00    +0.000 A 
ATOM     16  C   UNL     1      -1.162  14.433  23.359  0.00  0.00    +0.000 A 
ATOM     17  C   UNL     1      -0.293  13.836  22.444  0.00  0.00    +0.000 A 
ATOM     18  F   UNL     1       0.911  14.390  22.268  0.00  0.00    +0.000 F 
ENDBRANCH   9  12
ENDBRANCH   6   9
BRANCH   2  19
ATOM     19  C   UNL     1       2.928   7.115  17.843  0.00  0.00    +0.000 C 
BRANCH  19  20
ATOM     20  C   UNL     1       4.347   6.588  18.014  0.00  0.00    +0.000 C 
ATOM     21  C   UNL     1       5.217   6.738  16.745  0.00  0.00    +0.000 C 
ATOM     22  C   UNL     1       5.868   5.351  16.607  0.00  0.00    +0.000 C 
ATOM     23  C   UNL     1       4.816   4.369  16.067  0.00  0.00    +0.000 C 
ATOM     24  C   UNL     1       3.876   4.180  17.267  0.00  0.00    +0.000 C 
ATOM     25  C   UNL     1       4.499   5.085  18.346  0.00  0.00    +0.000 C 
ATOM     26  C   UNL     1       5.994   4.901  18.060  0.00  0.00    +0.000 C 
ENDBRANCH  19  20
ENDBRANCH   2  19
TORSDOF 4
ENDMDL
