MODEL 1
REMARK VINA RESULT:      -6.1      0.000      0.000
REMARK  Name = 
REMARK  18 active torsions:
REMARK  status: ('A' for Active; 'I' for Inactive)
REMARK    1  A    between atoms: C_1  and  C_2
REMARK    2  A    between atoms: C_2  and  C_3
REMARK    3  A    between atoms: C_3  and  C_4
REMARK    4  A    between atoms: C_4  and  C_5
REMARK    5  A    between atoms: C_5  and  C_6
REMARK    6  A    between atoms: C_6  and  C_7
REMARK    7  A    between atoms: C_7  and  C_8
REMARK    8  A    between atoms: C_8  and  C_9
REMARK    9  A    between atoms: C_9  and  C_10
REMARK   10  A    between atoms: C_10  and  C_11
REMARK   11  A    between atoms: C_11  and  C_12
REMARK   12  A    between atoms: N_19  and  C_20
REMARK   13  A    between atoms: C_21  and  C_22
REMARK   14  A    between atoms: C_22  and  C_23
REMARK   15  A    between atoms: C_22  and  C_24
REMARK   16  A    between atoms: C_28  and  C_29
REMARK   17  A    between atoms: C_29  and  C_30
REMARK   18  A    between atoms: C_29  and  C_31
REMARK                            x       y       z     vdW  Elec       q    Type
REMARK                         _______ _______ _______ _____ _____    ______ ____
ROOT
ATOM      1  C   UNL     1       1.993   8.114  18.960  0.00  0.00    +0.000 A 
ATOM      2  C   UNL     1       2.247   8.882  17.838  0.00  0.00    +0.000 A 
ATOM      3  S   UNL     1       1.600  10.457  18.060  0.00  0.00    +0.000 S 
ATOM      4  C   UNL     1       1.098  10.003  19.626  0.00  0.00    +0.000 A 
ATOM      5  N   UNL     1       0.473  10.988  20.327  0.00  0.00    +0.000 N 
ATOM      6  C   UNL     1       0.346  10.951  21.694  0.00  0.00    +0.000 C 
ATOM      7  O   UNL     1       0.743  10.055  22.431  0.00  0.00    +0.000 OA
ATOM      8  N   UNL     1      -0.245  12.087  22.242  0.00  0.00    +0.000 N 
ATOM      9  N   UNL     1       1.360   8.780  19.990  0.00  0.00    +0.000 NA
ATOM     10  H   UNL     1       0.297  11.847  19.834  0.00  0.00    +0.000 HD
ATOM     11  H   UNL     1      -0.028  12.246  23.221  0.00  0.00    +0.000 HD
ENDROOT
BRANCH   8  12
ATOM     12  C   UNL     1      -0.646  13.209  21.502  0.00  0.00    +0.000 A 
ATOM     13  C   UNL     1       0.335  14.150  21.101  0.00  0.00    +0.000 A 
ATOM     14  C   UNL     1      -0.109  15.346  20.507  0.00  0.00    +0.000 A 
ATOM     15  C   UNL     1      -1.455  15.580  20.266  0.00  0.00    +0.000 A 
ATOM     16  C   UNL     1      -2.400  14.627  20.610  0.00  0.00    +0.000 A 
ATOM     17  C   UNL     1      -2.032  13.432  21.255  0.00  0.00    +0.000 A 
BRANCH  13  18
ATOM     18  C   UNL     1       1.858  14.017  21.256  0.00  0.00    +0.000 C 
ATOM     19  C   UNL     1       2.581  13.680  19.947  0.00  0.00    +0.000 C 
ATOM     20  C   UNL     1       2.582  15.167  21.976  0.00  0.00    +0.000 C 
ENDBRANCH  13  18
BRANCH  17  21
ATOM     21  C   UNL     1      -3.152  12.493  21.717  0.00  0.00    +0.000 C 
ATOM     22  C   UNL     1      -3.536  12.772  23.181  0.00  0.00    +0.000 C 
ATOM     23  C   UNL     1      -4.422  12.581  20.854  0.00  0.00    +0.000 C 
ENDBRANCH  17  21
ENDBRANCH   8  12
BRANCH   1  24
ATOM     24  C   UNL     1       2.340   6.684  19.180  0.00  0.00    +0.000 C 
BRANCH  24  25
ATOM     25  C   UNL     1       1.908   6.219  20.566  0.00  0.00    +0.000 C 
BRANCH  25  26
ATOM     26  C   UNL     1       1.148   4.899  20.498  0.00  0.00    +0.000 C 
BRANCH  26  27
ATOM     27  C   UNL     1       1.981   3.779  21.117  0.00  0.00    +0.000 C 
BRANCH  27  28
ATOM     28  C   UNL     1       1.652   2.431  20.487  0.00  0.00    +0.000 C 
BRANCH  28  29
ATOM     29  C   UNL     1       1.077   2.620  19.086  0.00  0.00    +0.000 C 
BRANCH  29  30
ATOM     30  C   UNL     1       2.115   2.277  18.023  0.00  0.00    +0.000 C 
BRANCH  30  31
ATOM     31  C   UNL     1       2.614   3.535  17.322  0.00  0.00    +0.000 C 
BRANCH  31  32
ATOM     32  C   UNL     1       4.083   3.794  17.667  0.00  0.00    +0.000 C 
BRANCH  32  34
ATOM     33  C   UNL     1       5.048   5.585  16.215  0.00  0.00    +0.000 C 
ATOM     34  C   UNL     1       4.908   4.088  16.416  0.00  0.00    +0.000 C 
ENDBRANCH  32  34
ENDBRANCH  31  32
ENDBRANCH  30  31
ENDBRANCH  29  30
ENDBRANCH  28  29
ENDBRANCH  27  28
ENDBRANCH  26  27
ENDBRANCH  25  26
ENDBRANCH  24  25
ENDBRANCH   1  24
TORSDOF 13
ENDMDL
MODEL 2
REMARK VINA RESULT:      -6.1      3.104      5.328
REMARK  Name = 
REMARK  18 active torsions:
REMARK  status: ('A' for Active; 'I' for Inactive)
REMARK    1  A    between atoms: C_1  and  C_2
REMARK    2  A    between atoms: C_2  and  C_3
REMARK    3  A    between atoms: C_3  and  C_4
REMARK    4  A    between atoms: C_4  and  C_5
REMARK    5  A    between atoms: C_5  and  C_6
REMARK    6  A    between atoms: C_6  and  C_7
REMARK    7  A    between atoms: C_7  and  C_8
REMARK    8  A    between atoms: C_8  and  C_9
REMARK    9  A    between atoms: C_9  and  C_10
REMARK   10  A    between atoms: C_10  and  C_11
REMARK   11  A    between atoms: C_11  and  C_12
REMARK   12  A    between atoms: N_19  and  C_20
REMARK   13  A    between atoms: C_21  and  C_22
REMARK   14  A    between atoms: C_22  and  C_23
REMARK   15  A    between atoms: C_22  and  C_24
REMARK   16  A    between atoms: C_28  and  C_29
REMARK   17  A    between atoms: C_29  and  C_30
REMARK   18  A    between atoms: C_29  and  C_31
REMARK                            x       y       z     vdW  Elec       q    Type
REMARK                         _______ _______ _______ _____ _____    ______ ____
ROOT
ATOM      1  C   UNL     1       2.901   6.051  19.795  0.00  0.00    +0.000 A 
ATOM      2  C   UNL     1       1.994   5.839  20.817  0.00  0.00    +0.000 A 
ATOM      3  S   UNL     1       0.949   7.195  20.949  0.00  0.00    +0.000 S 
ATOM      4  C   UNL     1       1.747   7.907  19.620  0.00  0.00    +0.000 A 
ATOM      5  N   UNL     1       1.256   9.122  19.251  0.00  0.00    +0.000 N 
ATOM      6  C   UNL     1       1.490   9.665  18.012  0.00  0.00    +0.000 C 
ATOM      7  O   UNL     1       2.160   9.158  17.117  0.00  0.00    +0.000 OA
ATOM      8  N   UNL     1       0.836  10.873  17.786  0.00  0.00    +0.000 N 
ATOM      9  N   UNL     1       2.727   7.228  19.097  0.00  0.00    +0.000 NA
ATOM     10  H   UNL     1       0.539   9.513  19.838  0.00  0.00    +0.000 HD
ATOM     11  H   UNL     1       0.694  11.102  16.806  0.00  0.00    +0.000 HD
ENDROOT
BRANCH   8  12
ATOM     12  C   UNL     1      -0.030  11.490  18.701  0.00  0.00    +0.000 A 
ATOM     13  C   UNL     1      -1.414  11.193  18.639  0.00  0.00    +0.000 A 
ATOM     14  C   UNL     1      -2.281  11.945  19.453  0.00  0.00    +0.000 A 
ATOM     15  C   UNL     1      -1.802  12.908  20.329  0.00  0.00    +0.000 A 
ATOM     16  C   UNL     1      -0.441  13.149  20.421  0.00  0.00    +0.000 A 
ATOM     17  C   UNL     1       0.479  12.472  19.601  0.00  0.00    +0.000 A 
BRANCH  13  18
ATOM     18  C   UNL     1      -2.091  10.131  17.760  0.00  0.00    +0.000 C 
ATOM     19  C   UNL     1      -3.430   9.633  18.319  0.00  0.00    +0.000 C 
ATOM     20  C   UNL     1      -2.236  10.462  16.265  0.00  0.00    +0.000 C 
ENDBRANCH  13  18
BRANCH  17  21
ATOM     21  C   UNL     1       1.951  12.892  19.675  0.00  0.00    +0.000 C 
ATOM     22  C   UNL     1       2.316  13.829  18.510  0.00  0.00    +0.000 C 
ATOM     23  C   UNL     1       2.325  13.587  20.996  0.00  0.00    +0.000 C 
ENDBRANCH  17  21
ENDBRANCH   8  12
BRANCH   1  24
ATOM     24  C   UNL     1       4.008   5.155  19.362  0.00  0.00    +0.000 C 
BRANCH  24  25
ATOM     25  C   UNL     1       4.965   5.877  18.420  0.00  0.00    +0.000 C 
BRANCH  25  26
ATOM     26  C   UNL     1       5.255   5.043  17.177  0.00  0.00    +0.000 C 
BRANCH  26  27
ATOM     27  C   UNL     1       6.509   5.560  16.477  0.00  0.00    +0.000 C 
BRANCH  27  28
ATOM     28  C   UNL     1       7.170   4.467  15.646  0.00  0.00    +0.000 C 
BRANCH  28  29
ATOM     29  C   UNL     1       6.803   4.619  14.172  0.00  0.00    +0.000 C 
BRANCH  29  30
ATOM     30  C   UNL     1       5.596   3.756  13.822  0.00  0.00    +0.000 C 
BRANCH  30  31
ATOM     31  C   UNL     1       5.632   3.336  12.357  0.00  0.00    +0.000 C 
BRANCH  31  32
ATOM     32  C   UNL     1       4.518   4.033  11.572  0.00  0.00    +0.000 C 
BRANCH  32  34
ATOM     33  C   UNL     1       2.924   3.771   9.664  0.00  0.00    +0.000 C 
ATOM     34  C   UNL     1       3.727   3.040  10.723  0.00  0.00    +0.000 C 
ENDBRANCH  32  34
ENDBRANCH  31  32
ENDBRANCH  30  31
ENDBRANCH  29  30
ENDBRANCH  28  29
ENDBRANCH  27  28
ENDBRANCH  26  27
ENDBRANCH  25  26
ENDBRANCH  24  25
ENDBRANCH   1  24
TORSDOF 13
ENDMDL
MODEL 3
REMARK VINA RESULT:      -6.0      2.001      3.274
REMARK  Name = 
REMARK  18 active torsions:
REMARK  status: ('A' for Active; 'I' for Inactive)
REMARK    1  A    between atoms: C_1  and  C_2
REMARK    2  A    between atoms: C_2  and  C_3
REMARK    3  A    between atoms: C_3  and  C_4
REMARK    4  A    between atoms: C_4  and  C_5
REMARK    5  A    between atoms: C_5  and  C_6
REMARK    6  A    between atoms: C_6  and  C_7
REMARK    7  A    between atoms: C_7  and  C_8
REMARK    8  A    between atoms: C_8  and  C_9
REMARK    9  A    between atoms: C_9  and  C_10
REMARK   10  A    between atoms: C_10  and  C_11
REMARK   11  A    between atoms: C_11  and  C_12
REMARK   12  A    between atoms: N_19  and  C_20
REMARK   13  A    between atoms: C_21  and  C_22
REMARK   14  A    between atoms: C_22  and  C_23
REMARK   15  A    between atoms: C_22  and  C_24
REMARK   16  A    between atoms: C_28  and  C_29
REMARK   17  A    between atoms: C_29  and  C_30
REMARK   18  A    between atoms: C_29  and  C_31
REMARK                            x       y       z     vdW  Elec       q    Type
REMARK                         _______ _______ _______ _____ _____    ______ ____
ROOT
ATOM      1  C   UNL     1       1.232   9.608  18.994  0.00  0.00    +0.000 A 
ATOM      2  C   UNL     1       1.009   9.058  20.243  0.00  0.00    +0.000 A 
ATOM      3  S   UNL     1       0.284  10.230  21.268  0.00  0.00    +0.000 S 
ATOM      4  C   UNL     1       0.279  11.330  19.963  0.00  0.00    +0.000 A 
ATOM      5  N   UNL     1      -0.259  12.546  20.252  0.00  0.00    +0.000 N 
ATOM      6  C   UNL     1      -0.699  13.406  19.277  0.00  0.00    +0.000 C 
ATOM      7  O   UNL     1      -0.650  13.211  18.066  0.00  0.00    +0.000 OA
ATOM      8  N   UNL     1      -1.297  14.564  19.765  0.00  0.00    +0.000 N 
ATOM      9  N   UNL     1       0.779  10.902  18.839  0.00  0.00    +0.000 NA
ATOM     10  H   UNL     1      -0.520  12.704  21.210  0.00  0.00    +0.000 HD
ATOM     11  H   UNL     1      -1.931  15.021  19.116  0.00  0.00    +0.000 HD
ENDROOT
BRANCH   8  12
ATOM     12  C   UNL     1      -1.494  14.843  21.126  0.00  0.00    +0.000 A 
ATOM     13  C   UNL     1      -0.422  15.395  21.872  0.00  0.00    +0.000 A 
ATOM     14  C   UNL     1      -0.587  15.511  23.265  0.00  0.00    +0.000 A 
ATOM     15  C   UNL     1      -1.772  15.153  23.888  0.00  0.00    +0.000 A 
ATOM     16  C   UNL     1      -2.834  14.669  23.140  0.00  0.00    +0.000 A 
ATOM     17  C   UNL     1      -2.722  14.477  21.751  0.00  0.00    +0.000 A 
BRANCH  13  18
ATOM     18  C   UNL     1       0.929  15.878  21.325  0.00  0.00    +0.000 C 
ATOM     19  C   UNL     1       1.233  17.346  21.648  0.00  0.00    +0.000 C 
ATOM     20  C   UNL     1       2.155  15.005  21.642  0.00  0.00    +0.000 C 
ENDBRANCH  13  18
BRANCH  17  21
ATOM     21  C   UNL     1      -3.896  13.816  21.022  0.00  0.00    +0.000 C 
ATOM     22  C   UNL     1      -4.564  12.749  21.908  0.00  0.00    +0.000 C 
ATOM     23  C   UNL     1      -4.974  14.813  20.562  0.00  0.00    +0.000 C 
ENDBRANCH  17  21
ENDBRANCH   8  12
BRANCH   1  24
ATOM     24  C   UNL     1       1.874   8.961  17.817  0.00  0.00    +0.000 C 
BRANCH  24  25
ATOM     25  C   UNL     1       2.395   7.573  18.169  0.00  0.00    +0.000 C 
BRANCH  25  26
ATOM     26  C   UNL     1       3.754   7.311  17.529  0.00  0.00    +0.000 C 
BRANCH  26  27
ATOM     27  C   UNL     1       4.297   5.958  17.980  0.00  0.00    +0.000 C 
BRANCH  27  28
ATOM     28  C   UNL     1       4.701   5.097  16.789  0.00  0.00    +0.000 C 
BRANCH  28  29
ATOM     29  C   UNL     1       4.101   3.699  16.911  0.00  0.00    +0.000 C 
BRANCH  29  30
ATOM     30  C   UNL     1       2.653   3.768  17.381  0.00  0.00    +0.000 C 
BRANCH  30  31
ATOM     31  C   UNL     1       2.447   2.937  18.642  0.00  0.00    +0.000 C 
BRANCH  31  32
ATOM     32  C   UNL     1       1.055   3.186  19.227  0.00  0.00    +0.000 C 
BRANCH  32  34
ATOM     33  C   UNL     1       2.069   4.806  20.837  0.00  0.00    +0.000 C 
ATOM     34  C   UNL     1       1.133   3.623  20.688  0.00  0.00    +0.000 C 
ENDBRANCH  32  34
ENDBRANCH  31  32
ENDBRANCH  30  31
ENDBRANCH  29  30
ENDBRANCH  28  29
ENDBRANCH  27  28
ENDBRANCH  26  27
ENDBRANCH  25  26
ENDBRANCH  24  25
ENDBRANCH   1  24
TORSDOF 13
ENDMDL
MODEL 4
REMARK VINA RESULT:      -5.9      1.810      3.678
REMARK  Name = 
REMARK  18 active torsions:
REMARK  status: ('A' for Active; 'I' for Inactive)
REMARK    1  A    between atoms: C_1  and  C_2
REMARK    2  A    between atoms: C_2  and  C_3
REMARK    3  A    between atoms: C_3  and  C_4
REMARK    4  A    between atoms: C_4  and  C_5
REMARK    5  A    between atoms: C_5  and  C_6
REMARK    6  A    between atoms: C_6  and  C_7
REMARK    7  A    between atoms: C_7  and  C_8
REMARK    8  A    between atoms: C_8  and  C_9
REMARK    9  A    between atoms: C_9  and  C_10
REMARK   10  A    between atoms: C_10  and  C_11
REMARK   11  A    between atoms: C_11  and  C_12
REMARK   12  A    between atoms: N_19  and  C_20
REMARK   13  A    between atoms: C_21  and  C_22
REMARK   14  A    between atoms: C_22  and  C_23
REMARK   15  A    between atoms: C_22  and  C_24
REMARK   16  A    between atoms: C_28  and  C_29
REMARK   17  A    between atoms: C_29  and  C_30
REMARK   18  A    between atoms: C_29  and  C_31
REMARK                            x       y       z     vdW  Elec       q    Type
REMARK                         _______ _______ _______ _____ _____    ______ ____
ROOT
ATOM      1  C   UNL     1       1.400   8.344  20.465  0.00  0.00    +0.000 A 
ATOM      2  C   UNL     1       1.340   8.519  21.836  0.00  0.00    +0.000 A 
ATOM      3  S   UNL     1       0.578  10.016  22.193  0.00  0.00    +0.000 S 
ATOM      4  C   UNL     1       0.348  10.268  20.521  0.00  0.00    +0.000 A 
ATOM      5  N   UNL     1      -0.293  11.427  20.207  0.00  0.00    +0.000 N 
ATOM      6  C   UNL     1      -0.901  11.626  18.992  0.00  0.00    +0.000 C 
ATOM      7  O   UNL     1      -0.929  10.828  18.060  0.00  0.00    +0.000 OA
ATOM      8  N   UNL     1      -1.580  12.836  18.886  0.00  0.00    +0.000 N 
ATOM      9  N   UNL     1       0.799   9.341  19.725  0.00  0.00    +0.000 NA
ATOM     10  H   UNL     1      -0.492  12.050  20.971  0.00  0.00    +0.000 HD
ATOM     11  H   UNL     1      -2.310  12.853  18.179  0.00  0.00    +0.000 HD
ENDROOT
BRANCH   8  12
ATOM     12  C   UNL     1      -1.694  13.776  19.921  0.00  0.00    +0.000 A 
ATOM     13  C   UNL     1      -2.837  13.735  20.759  0.00  0.00    +0.000 A 
ATOM     14  C   UNL     1      -3.010  14.784  21.680  0.00  0.00    +0.000 A 
ATOM     15  C   UNL     1      -2.074  15.798  21.810  0.00  0.00    +0.000 A 
ATOM     16  C   UNL     1      -0.932  15.797  21.025  0.00  0.00    +0.000 A 
ATOM     17  C   UNL     1      -0.718  14.808  20.047  0.00  0.00    +0.000 A 
BRANCH  13  18
ATOM     18  C   UNL     1      -3.935  12.661  20.768  0.00  0.00    +0.000 C 
ATOM     19  C   UNL     1      -4.840  12.719  22.004  0.00  0.00    +0.000 C 
ATOM     20  C   UNL     1      -4.790  12.537  19.495  0.00  0.00    +0.000 C 
ENDBRANCH  13  18
BRANCH  17  21
ATOM     21  C   UNL     1       0.505  14.954  19.135  0.00  0.00    +0.000 C 
ATOM     22  C   UNL     1       0.639  16.399  18.623  0.00  0.00    +0.000 C 
ATOM     23  C   UNL     1       1.826  14.550  19.811  0.00  0.00    +0.000 C 
ENDBRANCH  17  21
ENDBRANCH   8  12
BRANCH   1  24
ATOM     24  C   UNL     1       2.011   7.210  19.720  0.00  0.00    +0.000 C 
BRANCH  24  25
ATOM     25  C   UNL     1       1.992   5.932  20.550  0.00  0.00    +0.000 C 
BRANCH  25  26
ATOM     26  C   UNL     1       0.973   4.934  20.012  0.00  0.00    +0.000 C 
BRANCH  26  27
ATOM     27  C   UNL     1       1.151   3.580  20.693  0.00  0.00    +0.000 C 
BRANCH  27  28
ATOM     28  C   UNL     1       2.518   3.469  21.357  0.00  0.00    +0.000 C 
BRANCH  28  29
ATOM     29  C   UNL     1       3.369   2.412  20.659  0.00  0.00    +0.000 C 
BRANCH  29  30
ATOM     30  C   UNL     1       4.110   3.011  19.469  0.00  0.00    +0.000 C 
BRANCH  30  31
ATOM     31  C   UNL     1       3.587   2.440  18.156  0.00  0.00    +0.000 C 
BRANCH  31  32
ATOM     32  C   UNL     1       3.192   3.569  17.201  0.00  0.00    +0.000 C 
BRANCH  32  34
ATOM     33  C   UNL     1       4.935   5.192  16.442  0.00  0.00    +0.000 C 
ATOM     34  C   UNL     1       3.931   4.864  17.530  0.00  0.00    +0.000 C 
ENDBRANCH  32  34
ENDBRANCH  31  32
ENDBRANCH  30  31
ENDBRANCH  29  30
ENDBRANCH  28  29
ENDBRANCH  27  28
ENDBRANCH  26  27
ENDBRANCH  25  26
ENDBRANCH  24  25
ENDBRANCH   1  24
TORSDOF 13
ENDMDL
MODEL 5
REMARK VINA RESULT:      -5.9      1.641      3.833
REMARK  Name = 
REMARK  18 active torsions:
REMARK  status: ('A' for Active; 'I' for Inactive)
REMARK    1  A    between atoms: C_1  and  C_2
REMARK    2  A    between atoms: C_2  and  C_3
REMARK    3  A    between atoms: C_3  and  C_4
REMARK    4  A    between atoms: C_4  and  C_5
REMARK    5  A    between atoms: C_5  and  C_6
REMARK    6  A    between atoms: C_6  and  C_7
REMARK    7  A    between atoms: C_7  and  C_8
REMARK    8  A    between atoms: C_8  and  C_9
REMARK    9  A    between atoms: C_9  and  C_10
REMARK   10  A    between atoms: C_10  and  C_11
REMARK   11  A    between atoms: C_11  and  C_12
REMARK   12  A    between atoms: N_19  and  C_20
REMARK   13  A    between atoms: C_21  and  C_22
REMARK   14  A    between atoms: C_22  and  C_23
REMARK   15  A    between atoms: C_22  and  C_24
REMARK   16  A    between atoms: C_28  and  C_29
REMARK   17  A    between atoms: C_29  and  C_30
REMARK   18  A    between atoms: C_29  and  C_31
REMARK                            x       y       z     vdW  Elec       q    Type
REMARK                         _______ _______ _______ _____ _____    ______ ____
ROOT
ATOM      1  C   UNL     1       2.131   7.316  19.281  0.00  0.00    +0.000 A 
ATOM      2  C   UNL     1       2.530   7.796  18.047  0.00  0.00    +0.000 A 
ATOM      3  S   UNL     1       2.126   9.461  17.919  0.00  0.00    +0.000 S 
ATOM      4  C   UNL     1       1.519   9.409  19.513  0.00  0.00    +0.000 A 
ATOM      5  N   UNL     1       1.034  10.596  19.971  0.00  0.00    +0.000 N 
ATOM      6  C   UNL     1       0.867  10.855  21.309  0.00  0.00    +0.000 C 
ATOM      7  O   UNL     1       1.103  10.079  22.229  0.00  0.00    +0.000 OA
ATOM      8  N   UNL     1       0.444  12.151  21.589  0.00  0.00    +0.000 N 
ATOM      9  N   UNL     1       1.582   8.261  20.123  0.00  0.00    +0.000 NA
ATOM     10  H   UNL     1       1.005  11.354  19.309  0.00  0.00    +0.000 HD
ATOM     11  H   UNL     1       0.656  12.473  22.529  0.00  0.00    +0.000 HD
ENDROOT
BRANCH   8  12
ATOM     12  C   UNL     1       0.239  13.147  20.622  0.00  0.00    +0.000 A 
ATOM     13  C   UNL     1      -0.931  13.095  19.825  0.00  0.00    +0.000 A 
ATOM     14  C   UNL     1      -1.035  14.004  18.756  0.00  0.00    +0.000 A 
ATOM     15  C   UNL     1      -0.056  14.957  18.516  0.00  0.00    +0.000 A 
ATOM     16  C   UNL     1       1.056  15.035  19.338  0.00  0.00    +0.000 A 
ATOM     17  C   UNL     1       1.250  14.126  20.394  0.00  0.00    +0.000 A 
BRANCH  13  18
ATOM     18  C   UNL     1      -2.117  12.134  19.991  0.00  0.00    +0.000 C 
ATOM     19  C   UNL     1      -3.280  12.726  20.797  0.00  0.00    +0.000 C 
ATOM     20  C   UNL     1      -2.651  11.468  18.711  0.00  0.00    +0.000 C 
ENDBRANCH  13  18
BRANCH  17  21
ATOM     21  C   UNL     1       2.569  14.201  21.170  0.00  0.00    +0.000 C 
ATOM     22  C   UNL     1       3.769  14.290  20.210  0.00  0.00    +0.000 C 
ATOM     23  C   UNL     1       2.639  15.384  22.150  0.00  0.00    +0.000 C 
ENDBRANCH  17  21
ENDBRANCH   8  12
BRANCH   1  24
ATOM     24  C   UNL     1       2.249   5.925  19.796  0.00  0.00    +0.000 C 
BRANCH  24  25
ATOM     25  C   UNL     1       3.632   5.349  19.515  0.00  0.00    +0.000 C 
BRANCH  25  26
ATOM     26  C   UNL     1       3.661   3.840  19.735  0.00  0.00    +0.000 C 
BRANCH  26  27
ATOM     27  C   UNL     1       3.949   3.121  18.420  0.00  0.00    +0.000 C 
BRANCH  27  28
ATOM     28  C   UNL     1       3.602   3.997  17.222  0.00  0.00    +0.000 C 
BRANCH  28  29
ATOM     29  C   UNL     1       4.761   4.031  16.230  0.00  0.00    +0.000 C 
BRANCH  29  30
ATOM     30  C   UNL     1       5.393   5.418  16.182  0.00  0.00    +0.000 C 
BRANCH  30  31
ATOM     31  C   UNL     1       6.914   5.325  16.143  0.00  0.00    +0.000 C 
BRANCH  31  32
ATOM     32  C   UNL     1       7.440   4.647  17.411  0.00  0.00    +0.000 C 
BRANCH  32  34
ATOM     33  C   UNL     1       7.920   6.876  18.434  0.00  0.00    +0.000 C 
ATOM     34  C   UNL     1       7.248   5.532  18.640  0.00  0.00    +0.000 C 
ENDBRANCH  32  34
ENDBRANCH  31  32
ENDBRANCH  30  31
ENDBRANCH  29  30
ENDBRANCH  28  29
ENDBRANCH  27  28
ENDBRANCH  26  27
ENDBRANCH  25  26
ENDBRANCH  24  25
ENDBRANCH   1  24
TORSDOF 13
ENDMDL
MODEL 6
REMARK VINA RESULT:      -5.9      1.843      4.236
REMARK  Name = 
REMARK  18 active torsions:
REMARK  status: ('A' for Active; 'I' for Inactive)
REMARK    1  A    between atoms: C_1  and  C_2
REMARK    2  A    between atoms: C_2  and  C_3
REMARK    3  A    between atoms: C_3  and  C_4
REMARK    4  A    between atoms: C_4  and  C_5
REMARK    5  A    between atoms: C_5  and  C_6
REMARK    6  A    between atoms: C_6  and  C_7
REMARK    7  A    between atoms: C_7  and  C_8
REMARK    8  A    between atoms: C_8  and  C_9
REMARK    9  A    between atoms: C_9  and  C_10
REMARK   10  A    between atoms: C_10  and  C_11
REMARK   11  A    between atoms: C_11  and  C_12
REMARK   12  A    between atoms: N_19  and  C_20
REMARK   13  A    between atoms: C_21  and  C_22
REMARK   14  A    between atoms: C_22  and  C_23
REMARK   15  A    between atoms: C_22  and  C_24
REMARK   16  A    between atoms: C_28  and  C_29
REMARK   17  A    between atoms: C_29  and  C_30
REMARK   18  A    between atoms: C_29  and  C_31
REMARK                            x       y       z     vdW  Elec       q    Type
REMARK                         _______ _______ _______ _____ _____    ______ ____
ROOT
ATOM      1  C   UNL     1       1.317   8.542  20.642  0.00  0.00    +0.000 A 
ATOM      2  C   UNL     1       1.227   8.763  22.004  0.00  0.00    +0.000 A 
ATOM      3  S   UNL     1       0.468  10.276  22.292  0.00  0.00    +0.000 S 
ATOM      4  C   UNL     1       0.278  10.472  20.608  0.00  0.00    +0.000 A 
ATOM      5  N   UNL     1      -0.349  11.624  20.241  0.00  0.00    +0.000 N 
ATOM      6  C   UNL     1      -0.928  11.785  19.006  0.00  0.00    +0.000 C 
ATOM      7  O   UNL     1      -0.940  10.956  18.102  0.00  0.00    +0.000 OA
ATOM      8  N   UNL     1      -1.596  12.995  18.844  0.00  0.00    +0.000 N 
ATOM      9  N   UNL     1       0.740   9.516  19.855  0.00  0.00    +0.000 NA
ATOM     10  H   UNL     1      -0.561  12.274  20.979  0.00  0.00    +0.000 HD
ATOM     11  H   UNL     1      -2.309  12.992  18.121  0.00  0.00    +0.000 HD
ENDROOT
BRANCH   8  12
ATOM     12  C   UNL     1      -1.727  13.970  19.844  0.00  0.00    +0.000 A 
ATOM     13  C   UNL     1      -2.830  13.896  20.730  0.00  0.00    +0.000 A 
ATOM     14  C   UNL     1      -3.032  14.972  21.615  0.00  0.00    +0.000 A 
ATOM     15  C   UNL     1      -2.156  16.046  21.663  0.00  0.00    +0.000 A 
ATOM     16  C   UNL     1      -1.049  16.079  20.831  0.00  0.00    +0.000 A 
ATOM     17  C   UNL     1      -0.813  15.064  19.886  0.00  0.00    +0.000 A 
BRANCH  13  18
ATOM     18  C   UNL     1      -3.858  12.759  20.829  0.00  0.00    +0.000 C 
ATOM     19  C   UNL     1      -4.599  12.717  22.171  0.00  0.00    +0.000 C 
ATOM     20  C   UNL     1      -4.861  12.631  19.671  0.00  0.00    +0.000 C 
ENDBRANCH  13  18
BRANCH  17  21
ATOM     21  C   UNL     1       0.361  15.244  18.918  0.00  0.00    +0.000 C 
ATOM     22  C   UNL     1       0.519  16.721  18.514  0.00  0.00    +0.000 C 
ATOM     23  C   UNL     1       1.703  14.746  19.480  0.00  0.00    +0.000 C 
ENDBRANCH  17  21
ENDBRANCH   8  12
BRANCH   1  24
ATOM     24  C   UNL     1       1.937   7.379  19.949  0.00  0.00    +0.000 C 
BRANCH  24  25
ATOM     25  C   UNL     1       2.374   7.749  18.537  0.00  0.00    +0.000 C 
BRANCH  25  26
ATOM     26  C   UNL     1       2.859   6.525  17.767  0.00  0.00    +0.000 C 
BRANCH  26  27
ATOM     27  C   UNL     1       4.318   6.234  18.106  0.00  0.00    +0.000 C 
BRANCH  27  28
ATOM     28  C   UNL     1       4.910   5.194  17.161  0.00  0.00    +0.000 C 
BRANCH  28  29
ATOM     29  C   UNL     1       3.915   4.063  16.919  0.00  0.00    +0.000 C 
BRANCH  29  30
ATOM     30  C   UNL     1       3.884   3.103  18.104  0.00  0.00    +0.000 C 
BRANCH  30  31
ATOM     31  C   UNL     1       2.848   2.006  17.891  0.00  0.00    +0.000 C 
BRANCH  31  32
ATOM     32  C   UNL     1       1.673   2.185  18.856  0.00  0.00    +0.000 C 
BRANCH  32  34
ATOM     33  C   UNL     1       0.950   4.014  20.398  0.00  0.00    +0.000 C 
ATOM     34  C   UNL     1       2.063   3.040  20.059  0.00  0.00    +0.000 C 
ENDBRANCH  32  34
ENDBRANCH  31  32
ENDBRANCH  30  31
ENDBRANCH  29  30
ENDBRANCH  28  29
ENDBRANCH  27  28
ENDBRANCH  26  27
ENDBRANCH  25  26
ENDBRANCH  24  25
ENDBRANCH   1  24
TORSDOF 13
ENDMDL
MODEL 7
REMARK VINA RESULT:      -5.9      2.235      4.020
REMARK  Name = 
REMARK  18 active torsions:
REMARK  status: ('A' for Active; 'I' for Inactive)
REMARK    1  A    between atoms: C_1  and  C_2
REMARK    2  A    between atoms: C_2  and  C_3
REMARK    3  A    between atoms: C_3  and  C_4
REMARK    4  A    between atoms: C_4  and  C_5
REMARK    5  A    between atoms: C_5  and  C_6
REMARK    6  A    between atoms: C_6  and  C_7
REMARK    7  A    between atoms: C_7  and  C_8
REMARK    8  A    between atoms: C_8  and  C_9
REMARK    9  A    between atoms: C_9  and  C_10
REMARK   10  A    between atoms: C_10  and  C_11
REMARK   11  A    between atoms: C_11  and  C_12
REMARK   12  A    between atoms: N_19  and  C_20
REMARK   13  A    between atoms: C_21  and  C_22
REMARK   14  A    between atoms: C_22  and  C_23
REMARK   15  A    between atoms: C_22  and  C_24
REMARK   16  A    between atoms: C_28  and  C_29
REMARK   17  A    between atoms: C_29  and  C_30
REMARK   18  A    between atoms: C_29  and  C_31
REMARK                            x       y       z     vdW  Elec       q    Type
REMARK                         _______ _______ _______ _____ _____    ______ ____
ROOT
ATOM      1  C   UNL     1       1.031   9.770  19.227  0.00  0.00    +0.000 A 
ATOM      2  C   UNL     1       0.894   9.227  20.492  0.00  0.00    +0.000 A 
ATOM      3  S   UNL     1      -0.496   9.886  21.255  0.00  0.00    +0.000 S 
ATOM      4  C   UNL     1      -0.819  10.778  19.836  0.00  0.00    +0.000 A 
ATOM      5  N   UNL     1      -1.941  11.548  19.896  0.00  0.00    +0.000 N 
ATOM      6  C   UNL     1      -2.570  12.020  18.771  0.00  0.00    +0.000 C 
ATOM      7  O   UNL     1      -2.209  11.837  17.612  0.00  0.00    +0.000 OA
ATOM      8  N   UNL     1      -3.749  12.715  19.026  0.00  0.00    +0.000 N 
ATOM      9  N   UNL     1       0.023  10.635  18.854  0.00  0.00    +0.000 NA
ATOM     10  H   UNL     1      -2.416  11.580  20.782  0.00  0.00    +0.000 HD
ATOM     11  H   UNL     1      -4.396  12.753  18.244  0.00  0.00    +0.000 HD
ENDROOT
BRANCH   8  12
ATOM     12  C   UNL     1      -4.302  12.897  20.302  0.00  0.00    +0.000 A 
ATOM     13  C   UNL     1      -3.566  13.628  21.268  0.00  0.00    +0.000 A 
ATOM     14  C   UNL     1      -4.064  13.657  22.584  0.00  0.00    +0.000 A 
ATOM     15  C   UNL     1      -5.260  13.042  22.922  0.00  0.00    +0.000 A 
ATOM     16  C   UNL     1      -6.000  12.380  21.955  0.00  0.00    +0.000 A 
ATOM     17  C   UNL     1      -5.538  12.267  20.631  0.00  0.00    +0.000 A 
BRANCH  13  18
ATOM     18  C   UNL     1      -2.256  14.395  21.041  0.00  0.00    +0.000 C 
ATOM     19  C   UNL     1      -2.464  15.856  20.621  0.00  0.00    +0.000 C 
ATOM     20  C   UNL     1      -1.205  14.316  22.162  0.00  0.00    +0.000 C 
ENDBRANCH  13  18
BRANCH  17  21
ATOM     21  C   UNL     1      -6.353  11.407  19.659  0.00  0.00    +0.000 C 
ATOM     22  C   UNL     1      -7.200  10.370  20.418  0.00  0.00    +0.000 C 
ATOM     23  C   UNL     1      -7.285  12.226  18.749  0.00  0.00    +0.000 C 
ENDBRANCH  17  21
ENDBRANCH   8  12
BRANCH   1  24
ATOM     24  C   UNL     1       2.113   9.511  18.239  0.00  0.00    +0.000 C 
BRANCH  24  25
ATOM     25  C   UNL     1       1.992   8.112  17.645  0.00  0.00    +0.000 C 
BRANCH  25  26
ATOM     26  C   UNL     1       2.901   7.122  18.365  0.00  0.00    +0.000 C 
BRANCH  26  27
ATOM     27  C   UNL     1       2.492   5.690  18.026  0.00  0.00    +0.000 C 
BRANCH  27  28
ATOM     28  C   UNL     1       3.708   4.827  17.711  0.00  0.00    +0.000 C 
BRANCH  28  29
ATOM     29  C   UNL     1       3.274   3.467  17.171  0.00  0.00    +0.000 C 
BRANCH  29  30
ATOM     30  C   UNL     1       3.603   2.358  18.164  0.00  0.00    +0.000 C 
BRANCH  30  31
ATOM     31  C   UNL     1       2.526   2.248  19.236  0.00  0.00    +0.000 C 
BRANCH  31  32
ATOM     32  C   UNL     1       3.084   2.663  20.600  0.00  0.00    +0.000 C 
BRANCH  32  34
ATOM     33  C   UNL     1       0.882   3.842  20.509  0.00  0.00    +0.000 C 
ATOM     34  C   UNL     1       2.161   3.657  21.302  0.00  0.00    +0.000 C 
ENDBRANCH  32  34
ENDBRANCH  31  32
ENDBRANCH  30  31
ENDBRANCH  29  30
ENDBRANCH  28  29
ENDBRANCH  27  28
ENDBRANCH  26  27
ENDBRANCH  25  26
ENDBRANCH  24  25
ENDBRANCH   1  24
TORSDOF 13
ENDMDL
MODEL 8
REMARK VINA RESULT:      -5.9      1.851      3.033
REMARK  Name = 
REMARK  18 active torsions:
REMARK  status: ('A' for Active; 'I' for Inactive)
REMARK    1  A    between atoms: C_1  and  C_2
REMARK    2  A    between atoms: C_2  and  C_3
REMARK    3  A    between atoms: C_3  and  C_4
REMARK    4  A    between atoms: C_4  and  C_5
REMARK    5  A    between atoms: C_5  and  C_6
REMARK    6  A    between atoms: C_6  and  C_7
REMARK    7  A    between atoms: C_7  and  C_8
REMARK    8  A    between atoms: C_8  and  C_9
REMARK    9  A    between atoms: C_9  and  C_10
REMARK   10  A    between atoms: C_10  and  C_11
REMARK   11  A    between atoms: C_11  and  C_12
REMARK   12  A    between atoms: N_19  and  C_20
REMARK   13  A    between atoms: C_21  and  C_22
REMARK   14  A    between atoms: C_22  and  C_23
REMARK   15  A    between atoms: C_22  and  C_24
REMARK   16  A    between atoms: C_28  and  C_29
REMARK   17  A    between atoms: C_29  and  C_30
REMARK   18  A    between atoms: C_29  and  C_31
REMARK                            x       y       z     vdW  Elec       q    Type
REMARK                         _______ _______ _______ _____ _____    ______ ____
ROOT
ATOM      1  C   UNL     1       1.447   8.470  20.306  0.00  0.00    +0.000 A 
ATOM      2  C   UNL     1       1.421   8.608  21.682  0.00  0.00    +0.000 A 
ATOM      3  S   UNL     1       0.740  10.130  22.096  0.00  0.00    +0.000 S 
ATOM      4  C   UNL     1       0.493  10.441  20.436  0.00  0.00    +0.000 A 
ATOM      5  N   UNL     1      -0.097  11.638  20.168  0.00  0.00    +0.000 N 
ATOM      6  C   UNL     1      -0.717  11.901  18.971  0.00  0.00    +0.000 C 
ATOM      7  O   UNL     1      -0.801  11.133  18.019  0.00  0.00    +0.000 OA
ATOM      8  N   UNL     1      -1.337  13.146  18.912  0.00  0.00    +0.000 N 
ATOM      9  N   UNL     1       0.882   9.516  19.606  0.00  0.00    +0.000 NA
ATOM     10  H   UNL     1      -0.250  12.248  20.953  0.00  0.00    +0.000 HD
ATOM     11  H   UNL     1      -2.078  13.218  18.221  0.00  0.00    +0.000 HD
ENDROOT
BRANCH   8  12
ATOM     12  C   UNL     1      -1.386  14.060  19.975  0.00  0.00    +0.000 A 
ATOM     13  C   UNL     1      -0.379  15.053  20.070  0.00  0.00    +0.000 A 
ATOM     14  C   UNL     1      -0.353  15.850  21.229  0.00  0.00    +0.000 A 
ATOM     15  C   UNL     1      -1.308  15.715  22.224  0.00  0.00    +0.000 A 
ATOM     16  C   UNL     1      -2.322  14.779  22.094  0.00  0.00    +0.000 A 
ATOM     17  C   UNL     1      -2.380  13.913  20.987  0.00  0.00    +0.000 A 
BRANCH  13  18
ATOM     18  C   UNL     1       0.716  15.356  19.036  0.00  0.00    +0.000 C 
ATOM     19  C   UNL     1       0.889  16.851  18.744  0.00  0.00    +0.000 C 
ATOM     20  C   UNL     1       2.090  14.705  19.274  0.00  0.00    +0.000 C 
ENDBRANCH  13  18
BRANCH  17  21
ATOM     21  C   UNL     1      -3.456  12.822  20.985  0.00  0.00    +0.000 C 
ATOM     22  C   UNL     1      -3.927  12.511  22.418  0.00  0.00    +0.000 C 
ATOM     23  C   UNL     1      -4.687  13.175  20.133  0.00  0.00    +0.000 C 
ENDBRANCH  17  21
ENDBRANCH   8  12
BRANCH   1  24
ATOM     24  C   UNL     1       1.987   7.330  19.518  0.00  0.00    +0.000 C 
BRANCH  24  25
ATOM     25  C   UNL     1       2.258   7.738  18.074  0.00  0.00    +0.000 C 
BRANCH  25  26
ATOM     26  C   UNL     1       3.677   7.375  17.651  0.00  0.00    +0.000 C 
BRANCH  26  27
ATOM     27  C   UNL     1       4.053   5.999  18.194  0.00  0.00    +0.000 C 
BRANCH  27  28
ATOM     28  C   UNL     1       3.788   4.905  17.167  0.00  0.00    +0.000 C 
BRANCH  28  29
ATOM     29  C   UNL     1       4.613   3.661  17.484  0.00  0.00    +0.000 C 
BRANCH  29  30
ATOM     30  C   UNL     1       4.104   2.981  18.750  0.00  0.00    +0.000 C 
BRANCH  30  31
ATOM     31  C   UNL     1       3.117   1.869  18.414  0.00  0.00    +0.000 C 
BRANCH  31  32
ATOM     32  C   UNL     1       1.880   1.963  19.311  0.00  0.00    +0.000 C 
BRANCH  32  34
ATOM     33  C   UNL     1       0.919   4.001  20.393  0.00  0.00    +0.000 C 
ATOM     34  C   UNL     1       1.120   3.267  19.081  0.00  0.00    +0.000 C 
ENDBRANCH  32  34
ENDBRANCH  31  32
ENDBRANCH  30  31
ENDBRANCH  29  30
ENDBRANCH  28  29
ENDBRANCH  27  28
ENDBRANCH  26  27
ENDBRANCH  25  26
ENDBRANCH  24  25
ENDBRANCH   1  24
TORSDOF 13
ENDMDL
MODEL 9
REMARK VINA RESULT:      -5.9      2.140     10.124
REMARK  Name = 
REMARK  18 active torsions:
REMARK  status: ('A' for Active; 'I' for Inactive)
REMARK    1  A    between atoms: C_1  and  C_2
REMARK    2  A    between atoms: C_2  and  C_3
REMARK    3  A    between atoms: C_3  and  C_4
REMARK    4  A    between atoms: C_4  and  C_5
REMARK    5  A    between atoms: C_5  and  C_6
REMARK    6  A    between atoms: C_6  and  C_7
REMARK    7  A    between atoms: C_7  and  C_8
REMARK    8  A    between atoms: C_8  and  C_9
REMARK    9  A    between atoms: C_9  and  C_10
REMARK   10  A    between atoms: C_10  and  C_11
REMARK   11  A    between atoms: C_11  and  C_12
REMARK   12  A    between atoms: N_19  and  C_20
REMARK   13  A    between atoms: C_21  and  C_22
REMARK   14  A    between atoms: C_22  and  C_23
REMARK   15  A    between atoms: C_22  and  C_24
REMARK   16  A    between atoms: C_28  and  C_29
REMARK   17  A    between atoms: C_29  and  C_30
REMARK   18  A    between atoms: C_29  and  C_31
REMARK                            x       y       z     vdW  Elec       q    Type
REMARK                         _______ _______ _______ _____ _____    ______ ____
ROOT
ATOM      1  C   UNL     1       1.083   9.358  19.805  0.00  0.00    +0.000 A 
ATOM      2  C   UNL     1       0.850   9.671  18.478  0.00  0.00    +0.000 A 
ATOM      3  S   UNL     1       1.796   8.651  17.472  0.00  0.00    +0.000 S 
ATOM      4  C   UNL     1       2.379   7.859  18.867  0.00  0.00    +0.000 A 
ATOM      5  N   UNL     1       3.249   6.842  18.617  0.00  0.00    +0.000 N 
ATOM      6  C   UNL     1       3.519   5.862  19.539  0.00  0.00    +0.000 C 
ATOM      7  O   UNL     1       3.049   5.785  20.670  0.00  0.00    +0.000 OA
ATOM      8  N   UNL     1       4.366   4.859  19.074  0.00  0.00    +0.000 N 
ATOM      9  N   UNL     1       1.938   8.296  20.011  0.00  0.00    +0.000 NA
ATOM     10  H   UNL     1       3.523   6.712  17.658  0.00  0.00    +0.000 HD
ATOM     11  H   UNL     1       4.294   3.978  19.573  0.00  0.00    +0.000 HD
ENDROOT
BRANCH   8  12
ATOM     12  C   UNL     1       4.881   4.796  17.771  0.00  0.00    +0.000 A 
ATOM     13  C   UNL     1       4.254   3.944  16.828  0.00  0.00    +0.000 A 
ATOM     14  C   UNL     1       4.884   3.772  15.582  0.00  0.00    +0.000 A 
ATOM     15  C   UNL     1       6.048   4.451  15.257  0.00  0.00    +0.000 A 
ATOM     16  C   UNL     1       6.621   5.326  16.166  0.00  0.00    +0.000 A 
ATOM     17  C   UNL     1       6.074   5.507  17.450  0.00  0.00    +0.000 A 
BRANCH  13  18
ATOM     18  C   UNL     1       2.946   3.162  17.020  0.00  0.00    +0.000 C 
ATOM     19  C   UNL     1       3.085   1.950  17.949  0.00  0.00    +0.000 C 
ATOM     20  C   UNL     1       1.702   3.980  17.406  0.00  0.00    +0.000 C 
ENDBRANCH  13  18
BRANCH  17  21
ATOM     21  C   UNL     1       6.843   6.392  18.437  0.00  0.00    +0.000 C 
ATOM     22  C   UNL     1       7.832   5.558  19.270  0.00  0.00    +0.000 C 
ATOM     23  C   UNL     1       7.617   7.537  17.761  0.00  0.00    +0.000 C 
ENDBRANCH  17  21
ENDBRANCH   8  12
BRANCH   1  24
ATOM     24  C   UNL     1       0.505  10.016  21.009  0.00  0.00    +0.000 C 
BRANCH  24  25
ATOM     25  C   UNL     1      -0.127   8.993  21.946  0.00  0.00    +0.000 C 
BRANCH  25  26
ATOM     26  C   UNL     1      -0.742   9.665  23.169  0.00  0.00    +0.000 C 
BRANCH  26  27
ATOM     27  C   UNL     1      -0.826  11.174  22.954  0.00  0.00    +0.000 C 
BRANCH  27  28
ATOM     28  C   UNL     1      -2.231  11.696  23.230  0.00  0.00    +0.000 C 
BRANCH  28  29
ATOM     29  C   UNL     1      -2.381  13.126  22.717  0.00  0.00    +0.000 C 
BRANCH  29  30
ATOM     30  C   UNL     1      -1.170  13.536  21.888  0.00  0.00    +0.000 C 
BRANCH  30  31
ATOM     31  C   UNL     1      -1.200  15.027  21.577  0.00  0.00    +0.000 C 
BRANCH  31  32
ATOM     32  C   UNL     1      -1.122  15.261  20.066  0.00  0.00    +0.000 C 
BRANCH  32  34
ATOM     33  C   UNL     1       1.364  15.476  19.927  0.00  0.00    +0.000 C 
ATOM     34  C   UNL     1       0.040  16.182  19.702  0.00  0.00    +0.000 C 
ENDBRANCH  32  34
ENDBRANCH  31  32
ENDBRANCH  30  31
ENDBRANCH  29  30
ENDBRANCH  28  29
ENDBRANCH  27  28
ENDBRANCH  26  27
ENDBRANCH  25  26
ENDBRANCH  24  25
ENDBRANCH   1  24
TORSDOF 13
ENDMDL
