MODEL 1
REMARK VINA RESULT:      -7.5      0.000      0.000
REMARK  Name = 
REMARK  10 active torsions:
REMARK  status: ('A' for Active; 'I' for Inactive)
REMARK    1  A    between atoms: C_4  and  C_5
REMARK    2  A    between atoms: C_4  and  C_10
REMARK    3  A    between atoms: C_5  and  C_6
REMARK    4  A    between atoms: C_6  and  C_7
REMARK    5  A    between atoms: C_7  and  C_8
REMARK    6  A    between atoms: C_8  and  O_9
REMARK    7  A    between atoms: C_17  and  O_18
REMARK    8  A    between atoms: C_19  and  S_20
REMARK    9  A    between atoms: S_20  and  C_21
REMARK   10  A    between atoms: C_21  and  C_22
REMARK                            x       y       z     vdW  Elec       q    Type
REMARK                         _______ _______ _______ _____ _____    ______ ____
ROOT
ATOM      1  O   UNL     1       6.232   5.264  19.708  0.00  0.00    +0.000 OA
ATOM      2  C   UNL     1       5.344   5.623  18.930  0.00  0.00    +0.000 C 
ATOM      3  C   UNL     1       3.927   5.596  19.395  0.00  0.00    +0.000 C 
ATOM      4  C   UNL     1       2.890   6.326  18.515  0.00  0.00    +0.000 C 
ATOM      5  O   UNL     1       3.422   6.894  17.303  0.00  0.00    +0.000 OA
ATOM      6  C   UNL     1       4.667   6.603  16.836  0.00  0.00    +0.000 C 
ATOM      7  C   UNL     1       5.631   5.976  17.526  0.00  0.00    +0.000 C 
ENDROOT
BRANCH   4   8
ATOM      8  C   UNL     1       2.166   7.525  19.178  0.00  0.00    +0.000 A 
ATOM      9  C   UNL     1       1.794   8.697  18.498  0.00  0.00    +0.000 A 
ATOM     10  C   UNL     1       1.145   9.753  19.148  0.00  0.00    +0.000 A 
ATOM     11  C   UNL     1       0.829   9.660  20.498  0.00  0.00    +0.000 A 
ATOM     12  C   UNL     1       1.157   8.506  21.197  0.00  0.00    +0.000 A 
ATOM     13  C   UNL     1       1.813   7.454  20.547  0.00  0.00    +0.000 A 
ENDBRANCH   4   8
BRANCH   6  14
ATOM     14  O   UNL     1       4.898   7.043  15.551  0.00  0.00    +0.000 OA
ATOM     15  H   UNL     1       4.127   7.599  15.340  0.00  0.00    +0.000 HD
ENDBRANCH   6  14
BRANCH   4  16
ATOM     16  C   UNL     1       1.842   5.258  18.031  0.00  0.00    +0.000 C 
BRANCH  16  17
ATOM     17  C   UNL     1       2.443   3.886  17.696  0.00  0.00    +0.000 C 
BRANCH  17  18
ATOM     18  C   UNL     1       1.650   2.733  18.309  0.00  0.00    +0.000 C 
BRANCH  18  19
ATOM     19  C   UNL     1       1.657   2.837  19.830  0.00  0.00    +0.000 C 
BRANCH  19  20
ATOM     20  O   UNL     1       0.341   3.072  20.309  0.00  0.00    +0.000 OA
ATOM     21  H   UNL     1       0.157   2.408  20.995  0.00  0.00    +0.000 HD
ENDBRANCH  19  20
ENDBRANCH  18  19
ENDBRANCH  17  18
ENDBRANCH  16  17
ENDBRANCH   4  16
BRANCH   7  22
ATOM     22  S   UNL     1       7.217   5.656  16.898  0.00  0.00    +0.000 S 
BRANCH  22  23
ATOM     23  C   UNL     1       6.926   4.087  16.018  0.00  0.00    +0.000 C 
BRANCH  23  24
ATOM     24  C   UNL     1       7.003   4.272  14.523  0.00  0.00    +0.000 A 
ATOM     25  C   UNL     1       7.861   5.234  13.969  0.00  0.00    +0.000 A 
ATOM     26  C   UNL     1       7.915   5.419  12.585  0.00  0.00    +0.000 A 
ATOM     27  C   UNL     1       7.117   4.647  11.748  0.00  0.00    +0.000 A 
ATOM     28  C   UNL     1       6.256   3.692  12.289  0.00  0.00    +0.000 A 
ATOM     29  C   UNL     1       6.198   3.506  13.669  0.00  0.00    +0.000 A 
ENDBRANCH  23  24
ENDBRANCH  22  23
ENDBRANCH   7  22
TORSDOF 10
ENDMDL
MODEL 2
REMARK VINA RESULT:      -7.5      0.968      1.635
REMARK  Name = 
REMARK  10 active torsions:
REMARK  status: ('A' for Active; 'I' for Inactive)
REMARK    1  A    between atoms: C_4  and  C_5
REMARK    2  A    between atoms: C_4  and  C_10
REMARK    3  A    between atoms: C_5  and  C_6
REMARK    4  A    between atoms: C_6  and  C_7
REMARK    5  A    between atoms: C_7  and  C_8
REMARK    6  A    between atoms: C_8  and  O_9
REMARK    7  A    between atoms: C_17  and  O_18
REMARK    8  A    between atoms: C_19  and  S_20
REMARK    9  A    between atoms: S_20  and  C_21
REMARK   10  A    between atoms: C_21  and  C_22
REMARK                            x       y       z     vdW  Elec       q    Type
REMARK                         _______ _______ _______ _____ _____    ______ ____
ROOT
ATOM      1  O   UNL     1       6.186   5.108  19.700  0.00  0.00    +0.000 OA
ATOM      2  C   UNL     1       5.308   5.502  18.927  0.00  0.00    +0.000 C 
ATOM      3  C   UNL     1       3.888   5.483  19.385  0.00  0.00    +0.000 C 
ATOM      4  C   UNL     1       2.866   6.253  18.521  0.00  0.00    +0.000 C 
ATOM      5  O   UNL     1       3.414   6.847  17.328  0.00  0.00    +0.000 OA
ATOM      6  C   UNL     1       4.656   6.551  16.859  0.00  0.00    +0.000 C 
ATOM      7  C   UNL     1       5.607   5.891  17.536  0.00  0.00    +0.000 C 
ENDROOT
BRANCH   4   8
ATOM      8  C   UNL     1       2.157   7.443  19.214  0.00  0.00    +0.000 A 
ATOM      9  C   UNL     1       1.801   7.468  20.573  0.00  0.00    +0.000 A 
ATOM     10  C   UNL     1       1.156   8.570  21.147  0.00  0.00    +0.000 A 
ATOM     11  C   UNL     1       0.865   9.692  20.381  0.00  0.00    +0.000 A 
ATOM     12  C   UNL     1       1.225   9.714  19.041  0.00  0.00    +0.000 A 
ATOM     13  C   UNL     1       1.863   8.609  18.467  0.00  0.00    +0.000 A 
ENDBRANCH   4   8
BRANCH   6  14
ATOM     14  O   UNL     1       4.901   7.024  15.589  0.00  0.00    +0.000 OA
ATOM     15  H   UNL     1       5.828   7.322  15.612  0.00  0.00    +0.000 HD
ENDBRANCH   6  14
BRANCH   4  16
ATOM     16  C   UNL     1       1.806   5.215  18.001  0.00  0.00    +0.000 C 
BRANCH  16  17
ATOM     17  C   UNL     1       1.560   4.031  18.947  0.00  0.00    +0.000 C 
BRANCH  17  18
ATOM     18  C   UNL     1       1.885   2.686  18.300  0.00  0.00    +0.000 C 
BRANCH  18  19
ATOM     19  C   UNL     1       3.075   2.037  18.998  0.00  0.00    +0.000 C 
BRANCH  19  20
ATOM     20  O   UNL     1       3.706   1.110  18.129  0.00  0.00    +0.000 OA
ATOM     21  H   UNL     1       3.772   1.527  17.254  0.00  0.00    +0.000 HD
ENDBRANCH  19  20
ENDBRANCH  18  19
ENDBRANCH  17  18
ENDBRANCH  16  17
ENDBRANCH   4  16
BRANCH   7  22
ATOM     22  S   UNL     1       7.192   5.565  16.907  0.00  0.00    +0.000 S 
BRANCH  22  23
ATOM     23  C   UNL     1       6.877   4.038  15.963  0.00  0.00    +0.000 C 
BRANCH  23  24
ATOM     24  C   UNL     1       6.979   4.279  14.478  0.00  0.00    +0.000 A 
ATOM     25  C   UNL     1       6.253   3.485  13.576  0.00  0.00    +0.000 A 
ATOM     26  C   UNL     1       6.364   3.697  12.200  0.00  0.00    +0.000 A 
ATOM     27  C   UNL     1       7.198   4.699  11.715  0.00  0.00    +0.000 A 
ATOM     28  C   UNL     1       7.928   5.490  12.602  0.00  0.00    +0.000 A 
ATOM     29  C   UNL     1       7.821   5.280  13.975  0.00  0.00    +0.000 A 
ENDBRANCH  23  24
ENDBRANCH  22  23
ENDBRANCH   7  22
TORSDOF 10
ENDMDL
MODEL 3
REMARK VINA RESULT:      -7.4      0.812      1.301
REMARK  Name = 
REMARK  10 active torsions:
REMARK  status: ('A' for Active; 'I' for Inactive)
REMARK    1  A    between atoms: C_4  and  C_5
REMARK    2  A    between atoms: C_4  and  C_10
REMARK    3  A    between atoms: C_5  and  C_6
REMARK    4  A    between atoms: C_6  and  C_7
REMARK    5  A    between atoms: C_7  and  C_8
REMARK    6  A    between atoms: C_8  and  O_9
REMARK    7  A    between atoms: C_17  and  O_18
REMARK    8  A    between atoms: C_19  and  S_20
REMARK    9  A    between atoms: S_20  and  C_21
REMARK   10  A    between atoms: C_21  and  C_22
REMARK                            x       y       z     vdW  Elec       q    Type
REMARK                         _______ _______ _______ _____ _____    ______ ____
ROOT
ATOM      1  O   UNL     1       6.049   5.340  19.748  0.00  0.00    +0.000 OA
ATOM      2  C   UNL     1       5.196   5.713  18.938  0.00  0.00    +0.000 C 
ATOM      3  C   UNL     1       3.770   5.765  19.370  0.00  0.00    +0.000 C 
ATOM      4  C   UNL     1       2.786   6.512  18.444  0.00  0.00    +0.000 C 
ATOM      5  O   UNL     1       3.371   7.017  17.227  0.00  0.00    +0.000 OA
ATOM      6  C   UNL     1       4.611   6.655  16.799  0.00  0.00    +0.000 C 
ATOM      7  C   UNL     1       5.530   6.008  17.531  0.00  0.00    +0.000 C 
ENDROOT
BRANCH   4   8
ATOM      8  C   UNL     1       2.104   7.763  19.052  0.00  0.00    +0.000 A 
ATOM      9  C   UNL     1       1.785   8.922  18.323  0.00  0.00    +0.000 A 
ATOM     10  C   UNL     1       1.171  10.027  18.925  0.00  0.00    +0.000 A 
ATOM     11  C   UNL     1       0.838   9.998  20.274  0.00  0.00    +0.000 A 
ATOM     12  C   UNL     1       1.114   8.860  21.020  0.00  0.00    +0.000 A 
ATOM     13  C   UNL     1       1.734   7.759  20.418  0.00  0.00    +0.000 A 
ENDBRANCH   4   8
BRANCH   6  14
ATOM     14  O   UNL     1       4.891   7.043  15.507  0.00  0.00    +0.000 OA
ATOM     15  H   UNL     1       4.222   6.588  14.964  0.00  0.00    +0.000 HD
ENDBRANCH   6  14
BRANCH   4  16
ATOM     16  C   UNL     1       1.702   5.477  17.968  0.00  0.00    +0.000 C 
BRANCH  16  17
ATOM     17  C   UNL     1       1.964   4.032  18.417  0.00  0.00    +0.000 C 
BRANCH  17  18
ATOM     18  C   UNL     1       2.589   3.181  17.313  0.00  0.00    +0.000 C 
BRANCH  18  19
ATOM     19  C   UNL     1       3.548   2.159  17.914  0.00  0.00    +0.000 C 
BRANCH  19  20
ATOM     20  O   UNL     1       3.243   1.948  19.284  0.00  0.00    +0.000 OA
ATOM     21  H   UNL     1       3.697   1.136  19.564  0.00  0.00    +0.000 HD
ENDBRANCH  19  20
ENDBRANCH  18  19
ENDBRANCH  17  18
ENDBRANCH  16  17
ENDBRANCH   4  16
BRANCH   7  22
ATOM     22  S   UNL     1       7.113   5.597  16.951  0.00  0.00    +0.000 S 
BRANCH  22  23
ATOM     23  C   UNL     1       6.755   4.059  16.040  0.00  0.00    +0.000 C 
BRANCH  23  24
ATOM     24  C   UNL     1       6.887   4.258  14.551  0.00  0.00    +0.000 A 
ATOM     25  C   UNL     1       6.133   3.479  13.659  0.00  0.00    +0.000 A 
ATOM     26  C   UNL     1       6.273   3.651  12.281  0.00  0.00    +0.000 A 
ATOM     27  C   UNL     1       7.161   4.599  11.783  0.00  0.00    +0.000 A 
ATOM     28  C   UNL     1       7.919   5.375  12.661  0.00  0.00    +0.000 A 
ATOM     29  C   UNL     1       7.784   5.204  14.037  0.00  0.00    +0.000 A 
ENDBRANCH  23  24
ENDBRANCH  22  23
ENDBRANCH   7  22
TORSDOF 10
ENDMDL
MODEL 4
REMARK VINA RESULT:      -7.2      0.701      1.544
REMARK  Name = 
REMARK  10 active torsions:
REMARK  status: ('A' for Active; 'I' for Inactive)
REMARK    1  A    between atoms: C_4  and  C_5
REMARK    2  A    between atoms: C_4  and  C_10
REMARK    3  A    between atoms: C_5  and  C_6
REMARK    4  A    between atoms: C_6  and  C_7
REMARK    5  A    between atoms: C_7  and  C_8
REMARK    6  A    between atoms: C_8  and  O_9
REMARK    7  A    between atoms: C_17  and  O_18
REMARK    8  A    between atoms: C_19  and  S_20
REMARK    9  A    between atoms: S_20  and  C_21
REMARK   10  A    between atoms: C_21  and  C_22
REMARK                            x       y       z     vdW  Elec       q    Type
REMARK                         _______ _______ _______ _____ _____    ______ ____
ROOT
ATOM      1  O   UNL     1       6.465   5.342  19.749  0.00  0.00    +0.000 OA
ATOM      2  C   UNL     1       5.524   5.617  18.999  0.00  0.00    +0.000 C 
ATOM      3  C   UNL     1       4.132   5.502  19.523  0.00  0.00    +0.000 C 
ATOM      4  C   UNL     1       3.011   6.134  18.669  0.00  0.00    +0.000 C 
ATOM      5  O   UNL     1       3.454   6.706  17.423  0.00  0.00    +0.000 OA
ATOM      6  C   UNL     1       4.697   6.492  16.913  0.00  0.00    +0.000 C 
ATOM      7  C   UNL     1       5.730   5.953  17.578  0.00  0.00    +0.000 C 
ENDROOT
BRANCH   4   8
ATOM      8  C   UNL     1       2.230   7.294  19.333  0.00  0.00    +0.000 A 
ATOM      9  C   UNL     1       1.857   7.323  20.687  0.00  0.00    +0.000 A 
ATOM     10  C   UNL     1       1.145   8.398  21.235  0.00  0.00    +0.000 A 
ATOM     11  C   UNL     1       0.802   9.489  20.445  0.00  0.00    +0.000 A 
ATOM     12  C   UNL     1       1.177   9.508  19.109  0.00  0.00    +0.000 A 
ATOM     13  C   UNL     1       1.881   8.429  18.562  0.00  0.00    +0.000 A 
ENDBRANCH   4   8
BRANCH   6  14
ATOM     14  O   UNL     1       4.846   6.914  15.610  0.00  0.00    +0.000 OA
ATOM     15  H   UNL     1       4.554   6.157  15.072  0.00  0.00    +0.000 HD
ENDBRANCH   6  14
BRANCH   4  16
ATOM     16  C   UNL     1       2.025   4.981  18.252  0.00  0.00    +0.000 C 
BRANCH  16  17
ATOM     17  C   UNL     1       1.139   4.460  19.392  0.00  0.00    +0.000 C 
BRANCH  17  18
ATOM     18  C   UNL     1       1.682   3.176  20.016  0.00  0.00    +0.000 C 
BRANCH  18  19
ATOM     19  C   UNL     1       1.955   3.385  21.502  0.00  0.00    +0.000 C 
BRANCH  19  20
ATOM     20  O   UNL     1       1.621   2.212  22.229  0.00  0.00    +0.000 OA
ATOM     21  H   UNL     1       1.326   2.490  23.113  0.00  0.00    +0.000 HD
ENDBRANCH  19  20
ENDBRANCH  18  19
ENDBRANCH  17  18
ENDBRANCH  16  17
ENDBRANCH   4  16
BRANCH   7  22
ATOM     22  S   UNL     1       7.309   5.730  16.893  0.00  0.00    +0.000 S 
BRANCH  22  23
ATOM     23  C   UNL     1       7.089   4.136  16.038  0.00  0.00    +0.000 C 
BRANCH  23  24
ATOM     24  C   UNL     1       7.061   4.314  14.541  0.00  0.00    +0.000 A 
ATOM     25  C   UNL     1       6.222   3.518  13.745  0.00  0.00    +0.000 A 
ATOM     26  C   UNL     1       6.213   3.671  12.357  0.00  0.00    +0.000 A 
ATOM     27  C   UNL     1       7.037   4.617  11.754  0.00  0.00    +0.000 A 
ATOM     28  C   UNL     1       7.878   5.409  12.536  0.00  0.00    +0.000 A 
ATOM     29  C   UNL     1       7.891   5.257  13.921  0.00  0.00    +0.000 A 
ENDBRANCH  23  24
ENDBRANCH  22  23
ENDBRANCH   7  22
TORSDOF 10
ENDMDL
MODEL 5
REMARK VINA RESULT:      -7.0      1.933      7.720
REMARK  Name = 
REMARK  10 active torsions:
REMARK  status: ('A' for Active; 'I' for Inactive)
REMARK    1  A    between atoms: C_4  and  C_5
REMARK    2  A    between atoms: C_4  and  C_10
REMARK    3  A    between atoms: C_5  and  C_6
REMARK    4  A    between atoms: C_6  and  C_7
REMARK    5  A    between atoms: C_7  and  C_8
REMARK    6  A    between atoms: C_8  and  O_9
REMARK    7  A    between atoms: C_17  and  O_18
REMARK    8  A    between atoms: C_19  and  S_20
REMARK    9  A    between atoms: S_20  and  C_21
REMARK   10  A    between atoms: C_21  and  C_22
REMARK                            x       y       z     vdW  Elec       q    Type
REMARK                         _______ _______ _______ _____ _____    ______ ____
ROOT
ATOM      1  O   UNL     1       3.257   2.724  17.451  0.00  0.00    +0.000 OA
ATOM      2  C   UNL     1       3.997   3.664  17.149  0.00  0.00    +0.000 C 
ATOM      3  C   UNL     1       5.354   3.364  16.608  0.00  0.00    +0.000 C 
ATOM      4  C   UNL     1       6.125   4.537  15.966  0.00  0.00    +0.000 C 
ATOM      5  O   UNL     1       5.450   5.808  16.031  0.00  0.00    +0.000 OA
ATOM      6  C   UNL     1       4.353   6.023  16.808  0.00  0.00    +0.000 C 
ATOM      7  C   UNL     1       3.622   5.068  17.402  0.00  0.00    +0.000 C 
ENDROOT
BRANCH   4   8
ATOM      8  C   UNL     1       6.450   4.388  14.459  0.00  0.00    +0.000 A 
ATOM      9  C   UNL     1       5.781   3.510  13.589  0.00  0.00    +0.000 A 
ATOM     10  C   UNL     1       6.119   3.412  12.234  0.00  0.00    +0.000 A 
ATOM     11  C   UNL     1       7.128   4.207  11.702  0.00  0.00    +0.000 A 
ATOM     12  C   UNL     1       7.794   5.104  12.525  0.00  0.00    +0.000 A 
ATOM     13  C   UNL     1       7.459   5.195  13.881  0.00  0.00    +0.000 A 
ENDBRANCH   4   8
BRANCH   6  14
ATOM     14  O   UNL     1       4.003   7.349  16.926  0.00  0.00    +0.000 OA
ATOM     15  H   UNL     1       4.679   7.828  16.413  0.00  0.00    +0.000 HD
ENDBRANCH   6  14
BRANCH   4  16
ATOM     16  C   UNL     1       7.448   4.744  16.790  0.00  0.00    +0.000 C 
BRANCH  16  17
ATOM     17  C   UNL     1       7.261   4.698  18.313  0.00  0.00    +0.000 C 
BRANCH  17  18
ATOM     18  C   UNL     1       7.170   6.091  18.934  0.00  0.00    +0.000 C 
BRANCH  18  19
ATOM     19  C   UNL     1       7.953   7.096  18.096  0.00  0.00    +0.000 C 
BRANCH  19  20
ATOM     20  O   UNL     1       7.060   7.917  17.359  0.00  0.00    +0.000 OA
ATOM     21  H   UNL     1       7.461   8.800  17.294  0.00  0.00    +0.000 HD
ENDBRANCH  19  20
ENDBRANCH  18  19
ENDBRANCH  17  18
ENDBRANCH  16  17
ENDBRANCH   4  16
BRANCH   7  22
ATOM     22  S   UNL     1       2.209   5.389  18.358  0.00  0.00    +0.000 S 
BRANCH  22  23
ATOM     23  C   UNL     1       2.900   6.497  19.630  0.00  0.00    +0.000 C 
BRANCH  23  24
ATOM     24  C   UNL     1       1.996   7.678  19.880  0.00  0.00    +0.000 A 
ATOM     25  C   UNL     1       1.355   7.833  21.119  0.00  0.00    +0.000 A 
ATOM     26  C   UNL     1       0.502   8.916  21.341  0.00  0.00    +0.000 A 
ATOM     27  C   UNL     1       0.284   9.850  20.334  0.00  0.00    +0.000 A 
ATOM     28  C   UNL     1       0.912   9.702  19.097  0.00  0.00    +0.000 A 
ATOM     29  C   UNL     1       1.762   8.621  18.870  0.00  0.00    +0.000 A 
ENDBRANCH  23  24
ENDBRANCH  22  23
ENDBRANCH   7  22
TORSDOF 10
ENDMDL
MODEL 6
REMARK VINA RESULT:      -7.0      1.420      2.167
REMARK  Name = 
REMARK  10 active torsions:
REMARK  status: ('A' for Active; 'I' for Inactive)
REMARK    1  A    between atoms: C_4  and  C_5
REMARK    2  A    between atoms: C_4  and  C_10
REMARK    3  A    between atoms: C_5  and  C_6
REMARK    4  A    between atoms: C_6  and  C_7
REMARK    5  A    between atoms: C_7  and  C_8
REMARK    6  A    between atoms: C_8  and  O_9
REMARK    7  A    between atoms: C_17  and  O_18
REMARK    8  A    between atoms: C_19  and  S_20
REMARK    9  A    between atoms: S_20  and  C_21
REMARK   10  A    between atoms: C_21  and  C_22
REMARK                            x       y       z     vdW  Elec       q    Type
REMARK                         _______ _______ _______ _____ _____    ______ ____
ROOT
ATOM      1  O   UNL     1       6.211   5.326  18.727  0.00  0.00    +0.000 OA
ATOM      2  C   UNL     1       4.984   5.213  18.668  0.00  0.00    +0.000 C 
ATOM      3  C   UNL     1       4.152   5.861  19.723  0.00  0.00    +0.000 C 
ATOM      4  C   UNL     1       2.634   5.955  19.456  0.00  0.00    +0.000 C 
ATOM      5  O   UNL     1       2.200   5.336  18.229  0.00  0.00    +0.000 OA
ATOM      6  C   UNL     1       3.000   4.519  17.491  0.00  0.00    +0.000 C 
ATOM      7  C   UNL     1       4.323   4.374  17.649  0.00  0.00    +0.000 C 
ENDROOT
BRANCH   4   8
ATOM      8  C   UNL     1       2.054   7.387  19.353  0.00  0.00    +0.000 A 
ATOM      9  C   UNL     1       1.457   8.076  20.422  0.00  0.00    +0.000 A 
ATOM     10  C   UNL     1       0.944   9.370  20.272  0.00  0.00    +0.000 A 
ATOM     11  C   UNL     1       1.031  10.024  19.049  0.00  0.00    +0.000 A 
ATOM     12  C   UNL     1       1.638   9.385  17.977  0.00  0.00    +0.000 A 
ATOM     13  C   UNL     1       2.144   8.088  18.127  0.00  0.00    +0.000 A 
ENDBRANCH   4   8
BRANCH   6  14
ATOM     14  O   UNL     1       2.334   3.836  16.497  0.00  0.00    +0.000 OA
ATOM     15  H   UNL     1       1.559   4.390  16.295  0.00  0.00    +0.000 HD
ENDBRANCH   6  14
BRANCH   4  16
ATOM     16  C   UNL     1       1.901   5.150  20.591  0.00  0.00    +0.000 C 
BRANCH  16  17
ATOM     17  C   UNL     1       2.551   3.803  20.935  0.00  0.00    +0.000 C 
BRANCH  17  18
ATOM     18  C   UNL     1       1.548   2.651  20.930  0.00  0.00    +0.000 C 
BRANCH  18  19
ATOM     19  C   UNL     1       0.809   2.600  19.597  0.00  0.00    +0.000 C 
BRANCH  19  20
ATOM     20  O   UNL     1       1.461   1.704  18.711  0.00  0.00    +0.000 OA
ATOM     21  H   UNL     1       2.287   1.420  19.137  0.00  0.00    +0.000 HD
ENDBRANCH  19  20
ENDBRANCH  18  19
ENDBRANCH  17  18
ENDBRANCH  16  17
ENDBRANCH   4  16
BRANCH   7  22
ATOM     22  S   UNL     1       5.308   3.343  16.660  0.00  0.00    +0.000 S 
BRANCH  22  23
ATOM     23  C   UNL     1       6.515   4.544  16.009  0.00  0.00    +0.000 C 
BRANCH  23  24
ATOM     24  C   UNL     1       6.650   4.432  14.511  0.00  0.00    +0.000 A 
ATOM     25  C   UNL     1       5.859   3.522  13.792  0.00  0.00    +0.000 A 
ATOM     26  C   UNL     1       6.000   3.405  12.407  0.00  0.00    +0.000 A 
ATOM     27  C   UNL     1       6.927   4.193  11.732  0.00  0.00    +0.000 A 
ATOM     28  C   UNL     1       7.721   5.097  12.439  0.00  0.00    +0.000 A 
ATOM     29  C   UNL     1       7.585   5.214  13.821  0.00  0.00    +0.000 A 
ENDBRANCH  23  24
ENDBRANCH  22  23
ENDBRANCH   7  22
TORSDOF 10
ENDMDL
MODEL 7
REMARK VINA RESULT:      -7.0      1.521      2.078
REMARK  Name = 
REMARK  10 active torsions:
REMARK  status: ('A' for Active; 'I' for Inactive)
REMARK    1  A    between atoms: C_4  and  C_5
REMARK    2  A    between atoms: C_4  and  C_10
REMARK    3  A    between atoms: C_5  and  C_6
REMARK    4  A    between atoms: C_6  and  C_7
REMARK    5  A    between atoms: C_7  and  C_8
REMARK    6  A    between atoms: C_8  and  O_9
REMARK    7  A    between atoms: C_17  and  O_18
REMARK    8  A    between atoms: C_19  and  S_20
REMARK    9  A    between atoms: S_20  and  C_21
REMARK   10  A    between atoms: C_21  and  C_22
REMARK                            x       y       z     vdW  Elec       q    Type
REMARK                         _______ _______ _______ _____ _____    ______ ____
ROOT
ATOM      1  O   UNL     1       6.415   5.596  18.396  0.00  0.00    +0.000 OA
ATOM      2  C   UNL     1       5.204   5.372  18.466  0.00  0.00    +0.000 C 
ATOM      3  C   UNL     1       4.438   5.919  19.624  0.00  0.00    +0.000 C 
ATOM      4  C   UNL     1       2.898   5.880  19.524  0.00  0.00    +0.000 C 
ATOM      5  O   UNL     1       2.388   5.250  18.332  0.00  0.00    +0.000 OA
ATOM      6  C   UNL     1       3.171   4.524  17.488  0.00  0.00    +0.000 C 
ATOM      7  C   UNL     1       4.512   4.498  17.499  0.00  0.00    +0.000 C 
ENDROOT
BRANCH   4   8
ATOM      8  C   UNL     1       2.186   7.255  19.528  0.00  0.00    +0.000 A 
ATOM      9  C   UNL     1       2.028   8.067  18.392  0.00  0.00    +0.000 A 
ATOM     10  C   UNL     1       1.378   9.305  18.454  0.00  0.00    +0.000 A 
ATOM     11  C   UNL     1       0.847   9.761  19.654  0.00  0.00    +0.000 A 
ATOM     12  C   UNL     1       0.961   8.975  20.792  0.00  0.00    +0.000 A 
ATOM     13  C   UNL     1       1.618   7.741  20.730  0.00  0.00    +0.000 A 
ENDBRANCH   4   8
BRANCH   6  14
ATOM     14  O   UNL     1       2.464   3.804  16.551  0.00  0.00    +0.000 OA
ATOM     15  H   UNL     1       2.384   2.913  16.937  0.00  0.00    +0.000 HD
ENDBRANCH   6  14
BRANCH   4  16
ATOM     16  C   UNL     1       2.368   4.988  20.706  0.00  0.00    +0.000 C 
BRANCH  16  17
ATOM     17  C   UNL     1       1.045   4.266  20.414  0.00  0.00    +0.000 C 
BRANCH  17  18
ATOM     18  C   UNL     1       1.191   2.746  20.434  0.00  0.00    +0.000 C 
BRANCH  18  19
ATOM     19  C   UNL     1       0.795   2.160  19.083  0.00  0.00    +0.000 C 
BRANCH  19  20
ATOM     20  O   UNL     1       1.917   1.542  18.471  0.00  0.00    +0.000 OA
ATOM     21  H   UNL     1       2.638   2.195  18.456  0.00  0.00    +0.000 HD
ENDBRANCH  19  20
ENDBRANCH  18  19
ENDBRANCH  17  18
ENDBRANCH  16  17
ENDBRANCH   4  16
BRANCH   7  22
ATOM     22  S   UNL     1       5.470   3.582  16.378  0.00  0.00    +0.000 S 
BRANCH  22  23
ATOM     23  C   UNL     1       5.823   4.848  15.115  0.00  0.00    +0.000 C 
BRANCH  23  24
ATOM     24  C   UNL     1       5.982   4.231  13.748  0.00  0.00    +0.000 A 
ATOM     25  C   UNL     1       4.916   3.539  13.151  0.00  0.00    +0.000 A 
ATOM     26  C   UNL     1       5.073   2.951  11.894  0.00  0.00    +0.000 A 
ATOM     27  C   UNL     1       6.289   3.048  11.225  0.00  0.00    +0.000 A 
ATOM     28  C   UNL     1       7.356   3.729  11.812  0.00  0.00    +0.000 A 
ATOM     29  C   UNL     1       7.204   4.316  13.067  0.00  0.00    +0.000 A 
ENDBRANCH  23  24
ENDBRANCH  22  23
ENDBRANCH   7  22
TORSDOF 10
ENDMDL
MODEL 8
REMARK VINA RESULT:      -6.9      2.305      7.424
REMARK  Name = 
REMARK  10 active torsions:
REMARK  status: ('A' for Active; 'I' for Inactive)
REMARK    1  A    between atoms: C_4  and  C_5
REMARK    2  A    between atoms: C_4  and  C_10
REMARK    3  A    between atoms: C_5  and  C_6
REMARK    4  A    between atoms: C_6  and  C_7
REMARK    5  A    between atoms: C_7  and  C_8
REMARK    6  A    between atoms: C_8  and  O_9
REMARK    7  A    between atoms: C_17  and  O_18
REMARK    8  A    between atoms: C_19  and  S_20
REMARK    9  A    between atoms: S_20  and  C_21
REMARK   10  A    between atoms: C_21  and  C_22
REMARK                            x       y       z     vdW  Elec       q    Type
REMARK                         _______ _______ _______ _____ _____    ______ ____
ROOT
ATOM      1  O   UNL     1       2.465   3.480  17.111  0.00  0.00    +0.000 OA
ATOM      2  C   UNL     1       3.446   4.219  16.986  0.00  0.00    +0.000 C 
ATOM      3  C   UNL     1       4.744   3.622  16.558  0.00  0.00    +0.000 C 
ATOM      4  C   UNL     1       5.854   4.604  16.125  0.00  0.00    +0.000 C 
ATOM      5  O   UNL     1       5.510   5.998  16.255  0.00  0.00    +0.000 OA
ATOM      6  C   UNL     1       4.411   6.426  16.934  0.00  0.00    +0.000 C 
ATOM      7  C   UNL     1       3.398   5.649  17.347  0.00  0.00    +0.000 C 
ENDROOT
BRANCH   4   8
ATOM      8  C   UNL     1       6.319   4.492  14.652  0.00  0.00    +0.000 A 
ATOM      9  C   UNL     1       7.391   5.218  14.104  0.00  0.00    +0.000 A 
ATOM     10  C   UNL     1       7.766   5.081  12.762  0.00  0.00    +0.000 A 
ATOM     11  C   UNL     1       7.091   4.196  11.931  0.00  0.00    +0.000 A 
ATOM     12  C   UNL     1       6.044   3.442  12.443  0.00  0.00    +0.000 A 
ATOM     13  C   UNL     1       5.665   3.586  13.783  0.00  0.00    +0.000 A 
ENDBRANCH   4   8
BRANCH   6  14
ATOM     14  O   UNL     1       4.386   7.785  17.156  0.00  0.00    +0.000 OA
ATOM     15  H   UNL     1       4.421   7.876  18.125  0.00  0.00    +0.000 HD
ENDBRANCH   6  14
BRANCH   4  16
ATOM     16  C   UNL     1       7.073   4.401  17.098  0.00  0.00    +0.000 C 
BRANCH  16  17
ATOM     17  C   UNL     1       6.948   5.141  18.437  0.00  0.00    +0.000 C 
BRANCH  17  18
ATOM     18  C   UNL     1       8.186   5.974  18.764  0.00  0.00    +0.000 C 
BRANCH  18  19
ATOM     19  C   UNL     1       7.968   7.428  18.359  0.00  0.00    +0.000 C 
BRANCH  19  20
ATOM     20  O   UNL     1       7.629   7.506  16.983  0.00  0.00    +0.000 OA
ATOM     21  H   UNL     1       7.520   8.446  16.762  0.00  0.00    +0.000 HD
ENDBRANCH  19  20
ENDBRANCH  18  19
ENDBRANCH  17  18
ENDBRANCH  16  17
ENDBRANCH   4  16
BRANCH   7  22
ATOM     22  S   UNL     1       1.999   6.248  18.181  0.00  0.00    +0.000 S 
BRANCH  22  23
ATOM     23  C   UNL     1       2.546   6.099  19.914  0.00  0.00    +0.000 C 
BRANCH  23  24
ATOM     24  C   UNL     1       2.374   4.691  20.426  0.00  0.00    +0.000 A 
ATOM     25  C   UNL     1       3.492   3.872  20.645  0.00  0.00    +0.000 A 
ATOM     26  C   UNL     1       3.329   2.561  21.099  0.00  0.00    +0.000 A 
ATOM     27  C   UNL     1       2.054   2.060  21.338  0.00  0.00    +0.000 A 
ATOM     28  C   UNL     1       0.935   2.864  21.119  0.00  0.00    +0.000 A 
ATOM     29  C   UNL     1       1.094   4.172  20.663  0.00  0.00    +0.000 A 
ENDBRANCH  23  24
ENDBRANCH  22  23
ENDBRANCH   7  22
TORSDOF 10
ENDMDL
MODEL 9
REMARK VINA RESULT:      -6.9      2.321      7.388
REMARK  Name = 
REMARK  10 active torsions:
REMARK  status: ('A' for Active; 'I' for Inactive)
REMARK    1  A    between atoms: C_4  and  C_5
REMARK    2  A    between atoms: C_4  and  C_10
REMARK    3  A    between atoms: C_5  and  C_6
REMARK    4  A    between atoms: C_6  and  C_7
REMARK    5  A    between atoms: C_7  and  C_8
REMARK    6  A    between atoms: C_8  and  O_9
REMARK    7  A    between atoms: C_17  and  O_18
REMARK    8  A    between atoms: C_19  and  S_20
REMARK    9  A    between atoms: S_20  and  C_21
REMARK   10  A    between atoms: C_21  and  C_22
REMARK                            x       y       z     vdW  Elec       q    Type
REMARK                         _______ _______ _______ _____ _____    ______ ____
ROOT
ATOM      1  O   UNL     1       2.789   3.265  17.127  0.00  0.00    +0.000 OA
ATOM      2  C   UNL     1       3.700   4.075  16.929  0.00  0.00    +0.000 C 
ATOM      3  C   UNL     1       5.022   3.568  16.460  0.00  0.00    +0.000 C 
ATOM      4  C   UNL     1       6.028   4.617  15.940  0.00  0.00    +0.000 C 
ATOM      5  O   UNL     1       5.576   5.983  16.036  0.00  0.00    +0.000 OA
ATOM      6  C   UNL     1       4.477   6.348  16.751  0.00  0.00    +0.000 C 
ATOM      7  C   UNL     1       3.552   5.510  17.239  0.00  0.00    +0.000 C 
ENDROOT
BRANCH   4   8
ATOM      8  C   UNL     1       6.433   4.485  14.451  0.00  0.00    +0.000 A 
ATOM      9  C   UNL     1       7.468   5.218  13.845  0.00  0.00    +0.000 A 
ATOM     10  C   UNL     1       7.790   5.061  12.492  0.00  0.00    +0.000 A 
ATOM     11  C   UNL     1       7.098   4.148  11.706  0.00  0.00    +0.000 A 
ATOM     12  C   UNL     1       6.087   3.387  12.276  0.00  0.00    +0.000 A 
ATOM     13  C   UNL     1       5.761   3.550  13.627  0.00  0.00    +0.000 A 
ENDBRANCH   4   8
BRANCH   6  14
ATOM     14  O   UNL     1       4.352   7.709  16.925  0.00  0.00    +0.000 OA
ATOM     15  H   UNL     1       3.401   7.884  16.806  0.00  0.00    +0.000 HD
ENDBRANCH   6  14
BRANCH   4  16
ATOM     16  C   UNL     1       7.301   4.551  16.860  0.00  0.00    +0.000 C 
BRANCH  16  17
ATOM     17  C   UNL     1       7.518   5.794  17.735  0.00  0.00    +0.000 C 
BRANCH  17  18
ATOM     18  C   UNL     1       7.158   5.549  19.199  0.00  0.00    +0.000 C 
BRANCH  18  19
ATOM     19  C   UNL     1       8.339   5.896  20.099  0.00  0.00    +0.000 C 
BRANCH  19  20
ATOM     20  O   UNL     1       8.361   5.037  21.229  0.00  0.00    +0.000 OA
ATOM     21  H   UNL     1       8.633   5.568  21.996  0.00  0.00    +0.000 HD
ENDBRANCH  19  20
ENDBRANCH  18  19
ENDBRANCH  17  18
ENDBRANCH  16  17
ENDBRANCH   4  16
BRANCH   7  22
ATOM     22  S   UNL     1       2.147   6.027  18.118  0.00  0.00    +0.000 S 
BRANCH  22  23
ATOM     23  C   UNL     1       2.769   5.953  19.830  0.00  0.00    +0.000 C 
BRANCH  23  24
ATOM     24  C   UNL     1       2.598   4.574  20.418  0.00  0.00    +0.000 A 
ATOM     25  C   UNL     1       3.682   3.684  20.471  0.00  0.00    +0.000 A 
ATOM     26  C   UNL     1       3.516   2.401  20.997  0.00  0.00    +0.000 A 
ATOM     27  C   UNL     1       2.273   1.997  21.472  0.00  0.00    +0.000 A 
ATOM     28  C   UNL     1       1.187   2.873  21.418  0.00  0.00    +0.000 A 
ATOM     29  C   UNL     1       1.349   4.153  20.892  0.00  0.00    +0.000 A 
ENDBRANCH  23  24
ENDBRANCH  22  23
ENDBRANCH   7  22
TORSDOF 10
ENDMDL
