MODEL 1
REMARK VINA RESULT:      -6.9      0.000      0.000
REMARK  Name = 
REMARK  8 active torsions:
REMARK  status: ('A' for Active; 'I' for Inactive)
REMARK    1  A    between atoms: N_10  and  C_11
REMARK    2  A    between atoms: C_11  and  C_12
REMARK    3  A    between atoms: C_12  and  C_13
REMARK    4  A    between atoms: C_13  and  C_14
REMARK    5  A    between atoms: C_14  and  N_15
REMARK    6  A    between atoms: N_15  and  C_16
REMARK    7  A    between atoms: C_16  and  C_17
REMARK    8  A    between atoms: C_17  and  C_18
REMARK                            x       y       z     vdW  Elec       q    Type
REMARK                         _______ _______ _______ _____ _____    ______ ____
ROOT
ATOM      1  C   UNL     1       4.053   6.516  18.038  0.00  0.00    +0.000 C 
ENDROOT
BRANCH   1   2
ATOM      2  C   UNL     1       3.971   5.180  17.264  0.00  0.00    +0.000 C 
BRANCH   2  12
ATOM      3  O   UNL     1       5.176   3.675  19.425  0.00  0.00    +0.000 OA
ATOM      4  C   UNL     1       4.016   3.477  19.093  0.00  0.00    +0.000 C 
ATOM      5  C   UNL     1       3.096   2.483  19.735  0.00  0.00    +0.000 C 
ATOM      6  C   UNL     1       2.731   2.658  21.209  0.00  0.00    +0.000 C 
ATOM      7  C   UNL     1       1.579   3.643  21.150  0.00  0.00    +0.000 C 
ATOM      8  C   UNL     1       0.791   3.137  19.931  0.00  0.00    +0.000 C 
ATOM      9  N   UNL     1       1.872   2.777  19.037  0.00  0.00    +0.000 N 
ATOM     10  C   UNL     1       2.131   3.637  18.026  0.00  0.00    +0.000 C 
ATOM     11  O   UNL     1       1.254   4.111  17.321  0.00  0.00    +0.000 OA
ATOM     12  N   UNL     1       3.405   4.093  18.055  0.00  0.00    +0.000 N 
ENDBRANCH   2  12
ENDBRANCH   1   2
BRANCH   1  13
ATOM     13  C   UNL     1       2.700   7.205  18.329  0.00  0.00    +0.000 C 
BRANCH  13  14
ATOM     14  C   UNL     1       2.610   8.588  17.708  0.00  0.00    +0.000 C 
BRANCH  14  15
ATOM     15  N   UNL     1       1.249   9.109  17.890  0.00  0.00    +0.000 NA
ATOM     16  H   UNL     1       0.650   8.332  18.257  0.00  0.00    +0.000 HD
BRANCH  15  17
ATOM     17  C   UNL     1       1.184  10.221  18.838  0.00  0.00    +0.000 C 
BRANCH  17  18
ATOM     18  C   UNL     1      -0.250  10.446  19.347  0.00  0.00    +0.000 C 
BRANCH  18  19
ATOM     19  C   UNL     1      -0.319  10.274  20.823  0.00  0.00    +0.000 A 
ATOM     20  C   UNL     1      -0.956  11.117  21.719  0.00  0.00    +0.000 A 
ATOM     21  C   UNL     1      -0.851  10.683  23.042  0.00  0.00    +0.000 A 
ATOM     22  C   UNL     1      -0.133   9.502  23.182  0.00  0.00    +0.000 A 
ATOM     23  S   UNL     1       0.375   8.995  21.665  0.00  0.00    +0.000 S 
ENDBRANCH  18  19
ENDBRANCH  17  18
ENDBRANCH  15  17
ENDBRANCH  14  15
ENDBRANCH  13  14
ENDBRANCH   1  13
TORSDOF 8
ENDMDL
MODEL 2
REMARK VINA RESULT:      -6.8      1.561      2.380
REMARK  Name = 
REMARK  8 active torsions:
REMARK  status: ('A' for Active; 'I' for Inactive)
REMARK    1  A    between atoms: N_10  and  C_11
REMARK    2  A    between atoms: C_11  and  C_12
REMARK    3  A    between atoms: C_12  and  C_13
REMARK    4  A    between atoms: C_13  and  C_14
REMARK    5  A    between atoms: C_14  and  N_15
REMARK    6  A    between atoms: N_15  and  C_16
REMARK    7  A    between atoms: C_16  and  C_17
REMARK    8  A    between atoms: C_17  and  C_18
REMARK                            x       y       z     vdW  Elec       q    Type
REMARK                         _______ _______ _______ _____ _____    ______ ____
ROOT
ATOM      1  C   UNL     1       5.026   4.372  17.399  0.00  0.00    +0.000 C 
ENDROOT
BRANCH   1   2
ATOM      2  C   UNL     1       4.103   3.165  17.116  0.00  0.00    +0.000 C 
BRANCH   2  12
ATOM      3  O   UNL     1       4.540   1.946  19.705  0.00  0.00    +0.000 OA
ATOM      4  C   UNL     1       3.442   2.387  19.397  0.00  0.00    +0.000 C 
ATOM      5  C   UNL     1       2.230   2.370  20.278  0.00  0.00    +0.000 C 
ATOM      6  C   UNL     1       2.264   3.145  21.596  0.00  0.00    +0.000 C 
ATOM      7  C   UNL     1       1.894   4.551  21.163  0.00  0.00    +0.000 C 
ATOM      8  C   UNL     1       0.782   4.283  20.135  0.00  0.00    +0.000 C 
ATOM      9  N   UNL     1       1.307   3.115  19.462  0.00  0.00    +0.000 N 
ATOM     10  C   UNL     1       1.854   3.314  18.242  0.00  0.00    +0.000 C 
ATOM     11  O   UNL     1       1.313   3.987  17.378  0.00  0.00    +0.000 OA
ATOM     12  N   UNL     1       3.145   2.912  18.186  0.00  0.00    +0.000 N 
ENDBRANCH   2  12
ENDBRANCH   1   2
BRANCH   1  13
ATOM     13  C   UNL     1       4.778   5.624  16.528  0.00  0.00    +0.000 C 
BRANCH  13  14
ATOM     14  C   UNL     1       4.327   6.820  17.347  0.00  0.00    +0.000 C 
BRANCH  14  15
ATOM     15  N   UNL     1       2.983   6.561  17.878  0.00  0.00    +0.000 NA
ATOM     16  H   UNL     1       3.031   5.705  18.480  0.00  0.00    +0.000 HD
BRANCH  15  17
ATOM     17  C   UNL     1       2.467   7.661  18.690  0.00  0.00    +0.000 C 
BRANCH  17  18
ATOM     18  C   UNL     1       1.980   8.829  17.815  0.00  0.00    +0.000 C 
BRANCH  18  19
ATOM     19  C   UNL     1       0.822   9.517  18.449  0.00  0.00    +0.000 A 
ATOM     20  C   UNL     1      -0.353   9.893  17.820  0.00  0.00    +0.000 A 
ATOM     21  C   UNL     1      -1.256  10.517  18.685  0.00  0.00    +0.000 A 
ATOM     22  C   UNL     1      -0.787  10.628  19.988  0.00  0.00    +0.000 A 
ATOM     23  S   UNL     1       0.749   9.956  20.070  0.00  0.00    +0.000 S 
ENDBRANCH  18  19
ENDBRANCH  17  18
ENDBRANCH  15  17
ENDBRANCH  14  15
ENDBRANCH  13  14
ENDBRANCH   1  13
TORSDOF 8
ENDMDL
MODEL 3
REMARK VINA RESULT:      -6.8      5.177      6.740
REMARK  Name = 
REMARK  8 active torsions:
REMARK  status: ('A' for Active; 'I' for Inactive)
REMARK    1  A    between atoms: N_10  and  C_11
REMARK    2  A    between atoms: C_11  and  C_12
REMARK    3  A    between atoms: C_12  and  C_13
REMARK    4  A    between atoms: C_13  and  C_14
REMARK    5  A    between atoms: C_14  and  N_15
REMARK    6  A    between atoms: N_15  and  C_16
REMARK    7  A    between atoms: C_16  and  C_17
REMARK    8  A    between atoms: C_17  and  C_18
REMARK                            x       y       z     vdW  Elec       q    Type
REMARK                         _______ _______ _______ _____ _____    ______ ____
ROOT
ATOM      1  C   UNL     1       6.820   5.085  18.311  0.00  0.00    +0.000 C 
ENDROOT
BRANCH   1   2
ATOM      2  C   UNL     1       5.661   4.875  19.311  0.00  0.00    +0.000 C 
BRANCH   2  12
ATOM      3  O   UNL     1       4.814   2.250  20.192  0.00  0.00    +0.000 OA
ATOM      4  C   UNL     1       4.223   2.830  19.293  0.00  0.00    +0.000 C 
ATOM      5  C   UNL     1       3.028   2.295  18.563  0.00  0.00    +0.000 C 
ATOM      6  C   UNL     1       1.743   2.027  19.347  0.00  0.00    +0.000 C 
ATOM      7  C   UNL     1       1.080   3.391  19.372  0.00  0.00    +0.000 C 
ATOM      8  C   UNL     1       1.349   3.901  17.947  0.00  0.00    +0.000 C 
ATOM      9  N   UNL     1       2.701   3.428  17.738  0.00  0.00    +0.000 N 
ATOM     10  C   UNL     1       3.686   4.350  17.837  0.00  0.00    +0.000 C 
ATOM     11  O   UNL     1       3.623   5.443  17.297  0.00  0.00    +0.000 OA
ATOM     12  N   UNL     1       4.597   4.027  18.784  0.00  0.00    +0.000 N 
ENDBRANCH   2  12
ENDBRANCH   1   2
BRANCH   1  13
ATOM     13  C   UNL     1       7.627   6.392  18.487  0.00  0.00    +0.000 C 
BRANCH  13  14
ATOM     14  C   UNL     1       7.770   7.164  17.187  0.00  0.00    +0.000 C 
BRANCH  14  15
ATOM     15  N   UNL     1       7.552   8.592  17.449  0.00  0.00    +0.000 NA
ATOM     16  H   UNL     1       6.605   8.702  17.882  0.00  0.00    +0.000 HD
BRANCH  15  17
ATOM     17  C   UNL     1       8.540   9.164  18.362  0.00  0.00    +0.000 C 
BRANCH  17  18
ATOM     18  C   UNL     1       8.549  10.701  18.295  0.00  0.00    +0.000 C 
BRANCH  18  19
ATOM     19  C   UNL     1       9.868  11.241  18.722  0.00  0.00    +0.000 A 
ATOM     20  C   UNL     1      10.984  11.410  17.919  0.00  0.00    +0.000 A 
ATOM     21  C   UNL     1      12.073  11.947  18.610  0.00  0.00    +0.000 A 
ATOM     22  C   UNL     1      11.810  12.196  19.951  0.00  0.00    +0.000 A 
ATOM     23  S   UNL     1      10.227  11.750  20.283  0.00  0.00    +0.000 S 
ENDBRANCH  18  19
ENDBRANCH  17  18
ENDBRANCH  15  17
ENDBRANCH  14  15
ENDBRANCH  13  14
ENDBRANCH   1  13
TORSDOF 8
ENDMDL
MODEL 4
REMARK VINA RESULT:      -6.7      5.189      6.576
REMARK  Name = 
REMARK  8 active torsions:
REMARK  status: ('A' for Active; 'I' for Inactive)
REMARK    1  A    between atoms: N_10  and  C_11
REMARK    2  A    between atoms: C_11  and  C_12
REMARK    3  A    between atoms: C_12  and  C_13
REMARK    4  A    between atoms: C_13  and  C_14
REMARK    5  A    between atoms: C_14  and  N_15
REMARK    6  A    between atoms: N_15  and  C_16
REMARK    7  A    between atoms: C_16  and  C_17
REMARK    8  A    between atoms: C_17  and  C_18
REMARK                            x       y       z     vdW  Elec       q    Type
REMARK                         _______ _______ _______ _____ _____    ______ ____
ROOT
ATOM      1  C   UNL     1       6.275   5.266  18.990  0.00  0.00    +0.000 C 
ENDROOT
BRANCH   1   2
ATOM      2  C   UNL     1       5.756   4.026  18.225  0.00  0.00    +0.000 C 
BRANCH   2  12
ATOM      3  O   UNL     1       5.162   2.046  20.253  0.00  0.00    +0.000 OA
ATOM      4  C   UNL     1       4.265   2.668  19.700  0.00  0.00    +0.000 C 
ATOM      5  C   UNL     1       2.803   2.508  19.990  0.00  0.00    +0.000 C 
ATOM      6  C   UNL     1       2.286   2.842  21.389  0.00  0.00    +0.000 C 
ATOM      7  C   UNL     1       2.078   4.343  21.315  0.00  0.00    +0.000 C 
ATOM      8  C   UNL     1       1.476   4.510  19.910  0.00  0.00    +0.000 C 
ATOM      9  N   UNL     1       2.260   3.552  19.161  0.00  0.00    +0.000 N 
ATOM     10  C   UNL     1       3.242   4.054  18.379  0.00  0.00    +0.000 C 
ATOM     11  O   UNL     1       3.070   5.006  17.633  0.00  0.00    +0.000 OA
ATOM     12  N   UNL     1       4.459   3.560  18.702  0.00  0.00    +0.000 N 
ENDBRANCH   2  12
ENDBRANCH   1   2
BRANCH   1  13
ATOM     13  C   UNL     1       7.656   5.799  18.544  0.00  0.00    +0.000 C 
BRANCH  13  14
ATOM     14  C   UNL     1       7.587   7.223  18.023  0.00  0.00    +0.000 C 
BRANCH  14  15
ATOM     15  N   UNL     1       8.558   8.050  18.752  0.00  0.00    +0.000 NA
ATOM     16  H   UNL     1       9.506   7.621  18.630  0.00  0.00    +0.000 HD
BRANCH  15  17
ATOM     17  C   UNL     1       8.615   9.427  18.266  0.00  0.00    +0.000 C 
BRANCH  17  18
ATOM     18  C   UNL     1       9.330  10.350  19.267  0.00  0.00    +0.000 C 
BRANCH  18  19
ATOM     19  C   UNL     1       9.677  11.651  18.632  0.00  0.00    +0.000 A 
ATOM     20  C   UNL     1       8.933  12.818  18.693  0.00  0.00    +0.000 A 
ATOM     21  C   UNL     1       9.524  13.876  18.000  0.00  0.00    +0.000 A 
ATOM     22  C   UNL     1      10.730  13.538  17.397  0.00  0.00    +0.000 A 
ATOM     23  S   UNL     1      11.062  11.925  17.721  0.00  0.00    +0.000 S 
ENDBRANCH  18  19
ENDBRANCH  17  18
ENDBRANCH  15  17
ENDBRANCH  14  15
ENDBRANCH  13  14
ENDBRANCH   1  13
TORSDOF 8
ENDMDL
MODEL 5
REMARK VINA RESULT:      -6.7      4.975      6.581
REMARK  Name = 
REMARK  8 active torsions:
REMARK  status: ('A' for Active; 'I' for Inactive)
REMARK    1  A    between atoms: N_10  and  C_11
REMARK    2  A    between atoms: C_11  and  C_12
REMARK    3  A    between atoms: C_12  and  C_13
REMARK    4  A    between atoms: C_13  and  C_14
REMARK    5  A    between atoms: C_14  and  N_15
REMARK    6  A    between atoms: N_15  and  C_16
REMARK    7  A    between atoms: C_16  and  C_17
REMARK    8  A    between atoms: C_17  and  C_18
REMARK                            x       y       z     vdW  Elec       q    Type
REMARK                         _______ _______ _______ _____ _____    ______ ____
ROOT
ATOM      1  C   UNL     1       6.762   4.718  17.742  0.00  0.00    +0.000 C 
ENDROOT
BRANCH   1   2
ATOM      2  C   UNL     1       5.817   4.974  18.939  0.00  0.00    +0.000 C 
BRANCH   2  12
ATOM      3  O   UNL     1       5.155   2.443  20.180  0.00  0.00    +0.000 OA
ATOM      4  C   UNL     1       4.325   3.056  19.524  0.00  0.00    +0.000 C 
ATOM      5  C   UNL     1       2.913   2.611  19.291  0.00  0.00    +0.000 C 
ATOM      6  C   UNL     1       1.978   2.463  20.491  0.00  0.00    +0.000 C 
ATOM      7  C   UNL     1       1.468   3.878  20.690  0.00  0.00    +0.000 C 
ATOM      8  C   UNL     1       1.245   4.341  19.241  0.00  0.00    +0.000 C 
ATOM      9  N   UNL     1       2.394   3.754  18.586  0.00  0.00    +0.000 N 
ATOM     10  C   UNL     1       3.413   4.592  18.288  0.00  0.00    +0.000 C 
ATOM     11  O   UNL     1       3.240   5.678  17.757  0.00  0.00    +0.000 OA
ATOM     12  N   UNL     1       4.577   4.210  18.863  0.00  0.00    +0.000 N 
ENDBRANCH   2  12
ENDBRANCH   1   2
BRANCH   1  13
ATOM     13  C   UNL     1       7.219   5.976  16.969  0.00  0.00    +0.000 C 
BRANCH  13  14
ATOM     14  C   UNL     1       6.934   7.259  17.730  0.00  0.00    +0.000 C 
BRANCH  14  15
ATOM     15  N   UNL     1       8.206   7.869  18.139  0.00  0.00    +0.000 NA
ATOM     16  H   UNL     1       8.963   7.484  17.526  0.00  0.00    +0.000 HD
BRANCH  15  17
ATOM     17  C   UNL     1       8.210   9.325  18.009  0.00  0.00    +0.000 C 
BRANCH  17  18
ATOM     18  C   UNL     1       9.130   9.983  19.052  0.00  0.00    +0.000 C 
BRANCH  18  19
ATOM     19  C   UNL     1       9.674  11.270  18.540  0.00  0.00    +0.000 A 
ATOM     20  C   UNL     1      10.723  11.421  17.648  0.00  0.00    +0.000 A 
ATOM     21  C   UNL     1      10.997  12.758  17.353  0.00  0.00    +0.000 A 
ATOM     22  C   UNL     1      10.163  13.653  18.014  0.00  0.00    +0.000 A 
ATOM     23  S   UNL     1       9.087  12.786  18.966  0.00  0.00    +0.000 S 
ENDBRANCH  18  19
ENDBRANCH  17  18
ENDBRANCH  15  17
ENDBRANCH  14  15
ENDBRANCH  13  14
ENDBRANCH   1  13
TORSDOF 8
ENDMDL
MODEL 6
REMARK VINA RESULT:      -6.7      1.351      1.673
REMARK  Name = 
REMARK  8 active torsions:
REMARK  status: ('A' for Active; 'I' for Inactive)
REMARK    1  A    between atoms: N_10  and  C_11
REMARK    2  A    between atoms: C_11  and  C_12
REMARK    3  A    between atoms: C_12  and  C_13
REMARK    4  A    between atoms: C_13  and  C_14
REMARK    5  A    between atoms: C_14  and  N_15
REMARK    6  A    between atoms: N_15  and  C_16
REMARK    7  A    between atoms: C_16  and  C_17
REMARK    8  A    between atoms: C_17  and  C_18
REMARK                            x       y       z     vdW  Elec       q    Type
REMARK                         _______ _______ _______ _____ _____    ______ ____
ROOT
ATOM      1  C   UNL     1       4.153   5.478  17.130  0.00  0.00    +0.000 C 
ENDROOT
BRANCH   1   2
ATOM      2  C   UNL     1       4.590   3.999  17.227  0.00  0.00    +0.000 C 
BRANCH   2  12
ATOM      3  O   UNL     1       5.207   3.011  19.878  0.00  0.00    +0.000 OA
ATOM      4  C   UNL     1       4.102   2.838  19.385  0.00  0.00    +0.000 C 
ATOM      5  C   UNL     1       2.961   2.135  20.057  0.00  0.00    +0.000 C 
ATOM      6  C   UNL     1       2.387   2.723  21.346  0.00  0.00    +0.000 C 
ATOM      7  C   UNL     1       1.406   3.758  20.830  0.00  0.00    +0.000 C 
ATOM      8  C   UNL     1       0.767   3.022  19.640  0.00  0.00    +0.000 C 
ATOM      9  N   UNL     1       1.920   2.345  19.086  0.00  0.00    +0.000 N 
ATOM     10  C   UNL     1       2.457   2.882  17.968  0.00  0.00    +0.000 C 
ATOM     11  O   UNL     1       1.780   3.232  17.013  0.00  0.00    +0.000 OA
ATOM     12  N   UNL     1       3.759   3.213  18.132  0.00  0.00    +0.000 N 
ENDBRANCH   2  12
ENDBRANCH   1   2
BRANCH   1  13
ATOM     13  C   UNL     1       4.070   6.242  18.471  0.00  0.00    +0.000 C 
BRANCH  13  14
ATOM     14  C   UNL     1       2.639   6.548  18.876  0.00  0.00    +0.000 C 
BRANCH  14  15
ATOM     15  N   UNL     1       2.617   6.976  20.280  0.00  0.00    +0.000 NA
ATOM     16  H   UNL     1       3.346   7.718  20.406  0.00  0.00    +0.000 HD
BRANCH  15  17
ATOM     17  C   UNL     1       1.328   7.532  20.689  0.00  0.00    +0.000 C 
BRANCH  17  18
ATOM     18  C   UNL     1       1.201   9.013  20.294  0.00  0.00    +0.000 C 
BRANCH  18  19
ATOM     19  C   UNL     1       0.362   9.752  21.277  0.00  0.00    +0.000 A 
ATOM     20  C   UNL     1      -0.025   9.301  22.528  0.00  0.00    +0.000 A 
ATOM     21  C   UNL     1      -0.807  10.229  23.221  0.00  0.00    +0.000 A 
ATOM     22  C   UNL     1      -1.031  11.403  22.513  0.00  0.00    +0.000 A 
ATOM     23  S   UNL     1      -0.262  11.292  21.025  0.00  0.00    +0.000 S 
ENDBRANCH  18  19
ENDBRANCH  17  18
ENDBRANCH  15  17
ENDBRANCH  14  15
ENDBRANCH  13  14
ENDBRANCH   1  13
TORSDOF 8
ENDMDL
MODEL 7
REMARK VINA RESULT:      -6.5      1.034      1.384
REMARK  Name = 
REMARK  8 active torsions:
REMARK  status: ('A' for Active; 'I' for Inactive)
REMARK    1  A    between atoms: N_10  and  C_11
REMARK    2  A    between atoms: C_11  and  C_12
REMARK    3  A    between atoms: C_12  and  C_13
REMARK    4  A    between atoms: C_13  and  C_14
REMARK    5  A    between atoms: C_14  and  N_15
REMARK    6  A    between atoms: N_15  and  C_16
REMARK    7  A    between atoms: C_16  and  C_17
REMARK    8  A    between atoms: C_17  and  C_18
REMARK                            x       y       z     vdW  Elec       q    Type
REMARK                         _______ _______ _______ _____ _____    ______ ____
ROOT
ATOM      1  C   UNL     1       4.936   5.560  17.682  0.00  0.00    +0.000 C 
ENDROOT
BRANCH   1   2
ATOM      2  C   UNL     1       4.192   4.358  17.056  0.00  0.00    +0.000 C 
BRANCH   2  12
ATOM      3  O   UNL     1       5.064   2.849  19.369  0.00  0.00    +0.000 OA
ATOM      4  C   UNL     1       3.875   2.978  19.115  0.00  0.00    +0.000 C 
ATOM      5  C   UNL     1       2.756   2.410  19.934  0.00  0.00    +0.000 C 
ATOM      6  C   UNL     1       2.584   2.880  21.378  0.00  0.00    +0.000 C 
ATOM      7  C   UNL     1       1.780   4.156  21.219  0.00  0.00    +0.000 C 
ATOM      8  C   UNL     1       0.778   3.764  20.120  0.00  0.00    +0.000 C 
ATOM      9  N   UNL     1       1.622   2.975  19.249  0.00  0.00    +0.000 N 
ATOM     10  C   UNL     1       2.043   3.572  18.111  0.00  0.00    +0.000 C 
ATOM     11  O   UNL     1       1.294   4.199  17.378  0.00  0.00    +0.000 OA
ATOM     12  N   UNL     1       3.393   3.612  18.022  0.00  0.00    +0.000 N 
ENDBRANCH   2  12
ENDBRANCH   1   2
BRANCH   1  13
ATOM     13  C   UNL     1       4.416   6.957  17.272  0.00  0.00    +0.000 C 
BRANCH  13  14
ATOM     14  C   UNL     1       3.034   7.246  17.831  0.00  0.00    +0.000 C 
BRANCH  14  15
ATOM     15  N   UNL     1       2.613   8.587  17.403  0.00  0.00    +0.000 NA
ATOM     16  H   UNL     1       2.606   8.606  16.356  0.00  0.00    +0.000 HD
BRANCH  15  17
ATOM     17  C   UNL     1       1.277   8.944  17.875  0.00  0.00    +0.000 C 
BRANCH  17  18
ATOM     18  C   UNL     1       1.291  10.265  18.664  0.00  0.00    +0.000 C 
BRANCH  18  19
ATOM     19  C   UNL     1       0.807  10.054  20.056  0.00  0.00    +0.000 A 
ATOM     20  C   UNL     1       0.857   8.869  20.771  0.00  0.00    +0.000 A 
ATOM     21  C   UNL     1       0.328   8.989  22.059  0.00  0.00    +0.000 A 
ATOM     22  C   UNL     1      -0.135  10.266  22.350  0.00  0.00    +0.000 A 
ATOM     23  S   UNL     1       0.108  11.248  21.010  0.00  0.00    +0.000 S 
ENDBRANCH  18  19
ENDBRANCH  17  18
ENDBRANCH  15  17
ENDBRANCH  14  15
ENDBRANCH  13  14
ENDBRANCH   1  13
TORSDOF 8
ENDMDL
MODEL 8
REMARK VINA RESULT:      -6.5      4.743      6.075
REMARK  Name = 
REMARK  8 active torsions:
REMARK  status: ('A' for Active; 'I' for Inactive)
REMARK    1  A    between atoms: N_10  and  C_11
REMARK    2  A    between atoms: C_11  and  C_12
REMARK    3  A    between atoms: C_12  and  C_13
REMARK    4  A    between atoms: C_13  and  C_14
REMARK    5  A    between atoms: C_14  and  N_15
REMARK    6  A    between atoms: N_15  and  C_16
REMARK    7  A    between atoms: C_16  and  C_17
REMARK    8  A    between atoms: C_17  and  C_18
REMARK                            x       y       z     vdW  Elec       q    Type
REMARK                         _______ _______ _______ _____ _____    ______ ____
ROOT
ATOM      1  C   UNL     1       5.279   5.031  15.979  0.00  0.00    +0.000 C 
ENDROOT
BRANCH   1   2
ATOM      2  C   UNL     1       4.212   5.242  17.078  0.00  0.00    +0.000 C 
BRANCH   2  12
ATOM      3  O   UNL     1       5.612   4.242  19.407  0.00  0.00    +0.000 OA
ATOM      4  C   UNL     1       4.619   3.671  18.978  0.00  0.00    +0.000 C 
ATOM      5  C   UNL     1       4.010   2.439  19.577  0.00  0.00    +0.000 C 
ATOM      6  C   UNL     1       3.459   2.505  21.001  0.00  0.00    +0.000 C 
ATOM      7  C   UNL     1       2.063   3.059  20.792  0.00  0.00    +0.000 C 
ATOM      8  C   UNL     1       1.610   2.307  19.529  0.00  0.00    +0.000 C 
ATOM      9  N   UNL     1       2.834   2.308  18.757  0.00  0.00    +0.000 N 
ATOM     10  C   UNL     1       2.903   3.192  17.736  0.00  0.00    +0.000 C 
ATOM     11  O   UNL     1       1.996   3.345  16.932  0.00  0.00    +0.000 OA
ATOM     12  N   UNL     1       3.951   4.040  17.862  0.00  0.00    +0.000 N 
ENDBRANCH   2  12
ENDBRANCH   1   2
BRANCH   1  13
ATOM     13  C   UNL     1       6.676   5.620  16.281  0.00  0.00    +0.000 C 
BRANCH  13  14
ATOM     14  C   UNL     1       6.602   6.895  17.102  0.00  0.00    +0.000 C 
BRANCH  14  15
ATOM     15  N   UNL     1       7.344   6.704  18.355  0.00  0.00    +0.000 NA
ATOM     16  H   UNL     1       7.766   5.745  18.341  0.00  0.00    +0.000 HD
BRANCH  15  17
ATOM     17  C   UNL     1       8.423   7.674  18.534  0.00  0.00    +0.000 C 
BRANCH  17  18
ATOM     18  C   UNL     1       8.053   9.046  17.945  0.00  0.00    +0.000 C 
BRANCH  18  19
ATOM     19  C   UNL     1       8.960  10.106  18.463  0.00  0.00    +0.000 A 
ATOM     20  C   UNL     1       9.671  11.021  17.704  0.00  0.00    +0.000 A 
ATOM     21  C   UNL     1      10.433  11.896  18.482  0.00  0.00    +0.000 A 
ATOM     22  C   UNL     1      10.318  11.666  19.847  0.00  0.00    +0.000 A 
ATOM     23  S   UNL     1       9.274  10.375  20.092  0.00  0.00    +0.000 S 
ENDBRANCH  18  19
ENDBRANCH  17  18
ENDBRANCH  15  17
ENDBRANCH  14  15
ENDBRANCH  13  14
ENDBRANCH   1  13
TORSDOF 8
ENDMDL
MODEL 9
REMARK VINA RESULT:      -6.5      0.962      1.103
REMARK  Name = 
REMARK  8 active torsions:
REMARK  status: ('A' for Active; 'I' for Inactive)
REMARK    1  A    between atoms: N_10  and  C_11
REMARK    2  A    between atoms: C_11  and  C_12
REMARK    3  A    between atoms: C_12  and  C_13
REMARK    4  A    between atoms: C_13  and  C_14
REMARK    5  A    between atoms: C_14  and  N_15
REMARK    6  A    between atoms: N_15  and  C_16
REMARK    7  A    between atoms: C_16  and  C_17
REMARK    8  A    between atoms: C_17  and  C_18
REMARK                            x       y       z     vdW  Elec       q    Type
REMARK                         _______ _______ _______ _____ _____    ______ ____
ROOT
ATOM      1  C   UNL     1       4.140   6.314  17.830  0.00  0.00    +0.000 C 
ENDROOT
BRANCH   1   2
ATOM      2  C   UNL     1       4.004   4.937  17.140  0.00  0.00    +0.000 C 
BRANCH   2  12
ATOM      3  O   UNL     1       5.202   3.579  19.400  0.00  0.00    +0.000 OA
ATOM      4  C   UNL     1       4.039   3.369  19.086  0.00  0.00    +0.000 C 
ATOM      5  C   UNL     1       3.112   2.432  19.799  0.00  0.00    +0.000 C 
ATOM      6  C   UNL     1       2.753   2.716  21.258  0.00  0.00    +0.000 C 
ATOM      7  C   UNL     1       1.610   3.705  21.132  0.00  0.00    +0.000 C 
ATOM      8  C   UNL     1       0.814   3.120  19.954  0.00  0.00    +0.000 C 
ATOM      9  N   UNL     1       1.888   2.687  19.085  0.00  0.00    +0.000 N 
ATOM     10  C   UNL     1       2.152   3.470  18.015  0.00  0.00    +0.000 C 
ATOM     11  O   UNL     1       1.277   3.901  17.280  0.00  0.00    +0.000 OA
ATOM     12  N   UNL     1       3.430   3.915  18.008  0.00  0.00    +0.000 N 
ENDBRANCH   2  12
ENDBRANCH   1   2
BRANCH   1  13
ATOM     13  C   UNL     1       2.864   6.845  18.523  0.00  0.00    +0.000 C 
BRANCH  13  14
ATOM     14  C   UNL     1       2.411   8.180  17.958  0.00  0.00    +0.000 C 
BRANCH  14  15
ATOM     15  N   UNL     1       1.686   8.921  18.997  0.00  0.00    +0.000 NA
ATOM     16  H   UNL     1       2.386   9.281  19.688  0.00  0.00    +0.000 HD
BRANCH  15  17
ATOM     17  C   UNL     1       0.939  10.062  18.470  0.00  0.00    +0.000 C 
BRANCH  17  18
ATOM     18  C   UNL     1      -0.508  10.079  18.993  0.00  0.00    +0.000 C 
BRANCH  18  19
ATOM     19  C   UNL     1      -0.573  10.693  20.347  0.00  0.00    +0.000 A 
ATOM     20  C   UNL     1      -0.541  10.019  21.557  0.00  0.00    +0.000 A 
ATOM     21  C   UNL     1      -0.614  10.875  22.658  0.00  0.00    +0.000 A 
ATOM     22  C   UNL     1      -0.702  12.218  22.311  0.00  0.00    +0.000 A 
ATOM     23  S   UNL     1      -0.693  12.345  20.637  0.00  0.00    +0.000 S 
ENDBRANCH  18  19
ENDBRANCH  17  18
ENDBRANCH  15  17
ENDBRANCH  14  15
ENDBRANCH  13  14
ENDBRANCH   1  13
TORSDOF 8
ENDMDL
