MODEL 1
REMARK VINA RESULT:      -9.9      0.000      0.000
REMARK  Name = 
REMARK  10 active torsions:
REMARK  status: ('A' for Active; 'I' for Inactive)
REMARK    1  A    between atoms: N_1  and  C_2
REMARK    2  A    between atoms: N_5  and  N_6
REMARK    3  A    between atoms: C_7  and  C_8
REMARK    4  A    between atoms: C_9  and  C_10
REMARK    5  A    between atoms: C_9  and  C_16
REMARK    6  A    between atoms: N_27  and  C1*_28
REMARK    7  A    between atoms: C4*_30  and  C5*_31
REMARK    8  A    between atoms: C5*_31  and  O5*_32
REMARK    9  A    between atoms: C3*_33  and  O3*_34
REMARK   10  A    between atoms: C2*_35  and  O2*_36
REMARK                            x       y       z     vdW  Elec       q    Type
REMARK                         _______ _______ _______ _____ _____    ______ ____
ROOT
ATOM      1  C   UNL     1       0.920   9.353  21.514  0.00  0.00    +0.000 A 
ATOM      2  N   UNL     1       1.108   9.280  20.183  0.00  0.00    +0.000 NA
ATOM      3  C   UNL     1       0.429  10.106  19.351  0.00  0.00    +0.000 A 
ATOM      4  N   UNL     1       0.593   9.944  17.958  0.00  0.00    +0.000 N 
ATOM      5  N   UNL     1      -0.455  11.059  19.737  0.00  0.00    +0.000 NA
ATOM      6  C   UNL     1      -0.635  11.085  21.071  0.00  0.00    +0.000 A 
ATOM      7  C   UNL     1      -0.015  10.270  22.004  0.00  0.00    +0.000 A 
ATOM      8  N   UNL     1      -0.459  10.541  23.281  0.00  0.00    +0.000 NA
ATOM      9  C   UNL     1      -1.308  11.531  23.133  0.00  0.00    +0.000 A 
ATOM     10  N   UNL     1      -1.441  11.906  21.816  0.00  0.00    +0.000 N 
ATOM     11  H   UNL     1       0.162  10.732  17.480  0.00  0.00    +0.000 HD
ENDROOT
BRANCH  10  12
ATOM     12  C1* UNL     1      -2.229  13.050  21.398  0.00  0.00    +0.000 C 
ATOM     13  O4* UNL     1      -2.597  13.873  22.523  0.00  0.00    +0.000 OA
ATOM     14  C4* UNL     1      -4.002  14.216  22.409  0.00  0.00    +0.000 C 
ATOM     15  C3* UNL     1      -4.430  13.822  20.998  0.00  0.00    +0.000 C 
ATOM     16  C2* UNL     1      -3.512  12.656  20.668  0.00  0.00    +0.000 C 
BRANCH  15  17
ATOM     17  O3* UNL     1      -4.169  14.867  20.041  0.00  0.00    +0.000 OA
ATOM     18  H3* UNL     1      -3.584  14.519  19.337  0.00  0.00    +0.000 HD
ENDBRANCH  15  17
BRANCH  16  19
ATOM     19  O2* UNL     1      -3.317  12.530  19.258  0.00  0.00    +0.000 OA
ATOM     20  H2* UNL     1      -4.174  12.763  18.841  0.00  0.00    +0.000 HD
ENDBRANCH  16  19
BRANCH  14  21
ATOM     21  C5* UNL     1      -4.789  13.483  23.495  0.00  0.00    +0.000 C 
BRANCH  21  22
ATOM     22  O5* UNL     1      -4.010  13.400  24.687  0.00  0.00    +0.000 OA
ATOM     23  H5* UNL     1      -3.829  14.328  24.944  0.00  0.00    +0.000 HD
ENDBRANCH  21  22
ENDBRANCH  14  21
ENDBRANCH  10  12
BRANCH   1  24
ATOM     24  N   UNL     1       1.649   8.495  22.328  0.00  0.00    +0.000 N 
ATOM     25  H   UNL     1       1.042   7.931  22.909  0.00  0.00    +0.000 HD
ATOM     26  H   UNL     1       2.453   8.934  22.760  0.00  0.00    +0.000 HD
ENDBRANCH   1  24
BRANCH   4  27
ATOM     27  N   UNL     1       1.793   9.465  17.508  0.00  0.00    +0.000 NA
ATOM     28  C   UNL     1       2.023   8.231  17.824  0.00  0.00    +0.000 C 
BRANCH  28  29
ATOM     29  C   UNL     1       3.286   7.560  17.433  0.00  0.00    +0.000 C 
ATOM     30  C   UNL     1       3.636   6.313  17.812  0.00  0.00    +0.000 C 
BRANCH  30  31
ATOM     31  C   UNL     1       2.710   5.461  18.585  0.00  0.00    +0.000 A 
ATOM     32  C   UNL     1       1.973   4.463  17.932  0.00  0.00    +0.000 A 
ATOM     33  C   UNL     1       1.090   3.657  18.648  0.00  0.00    +0.000 A 
ATOM     34  C   UNL     1       0.936   3.839  20.022  0.00  0.00    +0.000 A 
ATOM     35  C   UNL     1       1.662   4.833  20.678  0.00  0.00    +0.000 A 
ATOM     36  C   UNL     1       2.545   5.642  19.965  0.00  0.00    +0.000 A 
ENDBRANCH  30  31
BRANCH  30  37
ATOM     37  C   UNL     1       4.971   5.843  17.375  0.00  0.00    +0.000 A 
ATOM     38  C   UNL     1       5.238   5.677  16.008  0.00  0.00    +0.000 A 
ATOM     39  C   UNL     1       6.487   5.219  15.582  0.00  0.00    +0.000 A 
ATOM     40  C   UNL     1       7.479   4.926  16.515  0.00  0.00    +0.000 A 
ATOM     41  C   UNL     1       7.227   5.092  17.875  0.00  0.00    +0.000 A 
ATOM     42  C   UNL     1       5.974   5.548  18.305  0.00  0.00    +0.000 A 
ENDBRANCH  30  37
ENDBRANCH  28  29
ENDBRANCH   4  27
TORSDOF 10
ENDMDL
MODEL 2
REMARK VINA RESULT:      -9.8      0.336      1.185
REMARK  Name = 
REMARK  10 active torsions:
REMARK  status: ('A' for Active; 'I' for Inactive)
REMARK    1  A    between atoms: N_1  and  C_2
REMARK    2  A    between atoms: N_5  and  N_6
REMARK    3  A    between atoms: C_7  and  C_8
REMARK    4  A    between atoms: C_9  and  C_10
REMARK    5  A    between atoms: C_9  and  C_16
REMARK    6  A    between atoms: N_27  and  C1*_28
REMARK    7  A    between atoms: C4*_30  and  C5*_31
REMARK    8  A    between atoms: C5*_31  and  O5*_32
REMARK    9  A    between atoms: C3*_33  and  O3*_34
REMARK   10  A    between atoms: C2*_35  and  O2*_36
REMARK                            x       y       z     vdW  Elec       q    Type
REMARK                         _______ _______ _______ _____ _____    ______ ____
ROOT
ATOM      1  C   UNL     1       0.937   9.337  21.471  0.00  0.00    +0.000 A 
ATOM      2  N   UNL     1       1.104   9.249  20.138  0.00  0.00    +0.000 NA
ATOM      3  C   UNL     1       0.413  10.066  19.307  0.00  0.00    +0.000 A 
ATOM      4  N   UNL     1       0.555   9.887  17.914  0.00  0.00    +0.000 N 
ATOM      5  N   UNL     1      -0.464  11.024  19.697  0.00  0.00    +0.000 NA
ATOM      6  C   UNL     1      -0.624  11.064  21.032  0.00  0.00    +0.000 A 
ATOM      7  C   UNL     1       0.011  10.260  21.966  0.00  0.00    +0.000 A 
ATOM      8  N   UNL     1      -0.413  10.546  23.246  0.00  0.00    +0.000 NA
ATOM      9  C   UNL     1      -1.264  11.535  23.100  0.00  0.00    +0.000 A 
ATOM     10  N   UNL     1      -1.417  11.894  21.781  0.00  0.00    +0.000 N 
ATOM     11  H   UNL     1       0.117  10.669  17.434  0.00  0.00    +0.000 HD
ENDROOT
BRANCH  10  12
ATOM     12  C1* UNL     1      -2.212  13.034  21.362  0.00  0.00    +0.000 C 
ATOM     13  O4* UNL     1      -2.508  13.903  22.473  0.00  0.00    +0.000 OA
ATOM     14  C4* UNL     1      -3.913  14.263  22.420  0.00  0.00    +0.000 C 
ATOM     15  C3* UNL     1      -4.420  13.824  21.049  0.00  0.00    +0.000 C 
ATOM     16  C2* UNL     1      -3.536  12.633  20.716  0.00  0.00    +0.000 C 
BRANCH  15  17
ATOM     17  O3* UNL     1      -4.197  14.829  20.042  0.00  0.00    +0.000 OA
ATOM     18  H3* UNL     1      -3.659  15.552  20.423  0.00  0.00    +0.000 HD
ENDBRANCH  15  17
BRANCH  16  19
ATOM     19  O2* UNL     1      -3.418  12.452  19.303  0.00  0.00    +0.000 OA
ATOM     20  H2* UNL     1      -4.290  12.691  18.922  0.00  0.00    +0.000 HD
ENDBRANCH  16  19
BRANCH  14  21
ATOM     21  C5* UNL     1      -4.651  13.582  23.573  0.00  0.00    +0.000 C 
BRANCH  21  22
ATOM     22  O5* UNL     1      -5.547  14.506  24.187  0.00  0.00    +0.000 OA
ATOM     23  H5* UNL     1      -5.575  15.280  23.588  0.00  0.00    +0.000 HD
ENDBRANCH  21  22
ENDBRANCH  14  21
ENDBRANCH  10  12
BRANCH   1  24
ATOM     24  N   UNL     1       1.679   8.488  22.284  0.00  0.00    +0.000 N 
ATOM     25  H   UNL     1       1.597   7.525  21.986  0.00  0.00    +0.000 HD
ATOM     26  H   UNL     1       1.588   8.693  23.272  0.00  0.00    +0.000 HD
ENDBRANCH   1  24
BRANCH   4  27
ATOM     27  N   UNL     1       1.747   9.402  17.451  0.00  0.00    +0.000 NA
ATOM     28  C   UNL     1       2.005   8.188  17.819  0.00  0.00    +0.000 C 
BRANCH  28  29
ATOM     29  C   UNL     1       3.265   7.516  17.423  0.00  0.00    +0.000 C 
ATOM     30  C   UNL     1       3.615   6.267  17.799  0.00  0.00    +0.000 C 
BRANCH  30  31
ATOM     31  C   UNL     1       2.690   5.417  18.574  0.00  0.00    +0.000 A 
ATOM     32  C   UNL     1       2.556   5.614  19.956  0.00  0.00    +0.000 A 
ATOM     33  C   UNL     1       1.691   4.814  20.701  0.00  0.00    +0.000 A 
ATOM     34  C   UNL     1       0.953   3.812  20.074  0.00  0.00    +0.000 A 
ATOM     35  C   UNL     1       1.085   3.606  18.701  0.00  0.00    +0.000 A 
ATOM     36  C   UNL     1       1.949   4.404  17.952  0.00  0.00    +0.000 A 
ENDBRANCH  30  31
BRANCH  30  37
ATOM     37  C   UNL     1       4.947   5.796  17.356  0.00  0.00    +0.000 A 
ATOM     38  C   UNL     1       5.978   5.637  18.293  0.00  0.00    +0.000 A 
ATOM     39  C   UNL     1       7.244   5.209  17.888  0.00  0.00    +0.000 A 
ATOM     40  C   UNL     1       7.490   4.931  16.544  0.00  0.00    +0.000 A 
ATOM     41  C   UNL     1       6.472   5.080  15.605  0.00  0.00    +0.000 A 
ATOM     42  C   UNL     1       5.203   5.512  16.010  0.00  0.00    +0.000 A 
ENDBRANCH  30  37
ENDBRANCH  28  29
ENDBRANCH   4  27
TORSDOF 10
ENDMDL
MODEL 3
REMARK VINA RESULT:      -9.6      0.979      1.437
REMARK  Name = 
REMARK  10 active torsions:
REMARK  status: ('A' for Active; 'I' for Inactive)
REMARK    1  A    between atoms: N_1  and  C_2
REMARK    2  A    between atoms: N_5  and  N_6
REMARK    3  A    between atoms: C_7  and  C_8
REMARK    4  A    between atoms: C_9  and  C_10
REMARK    5  A    between atoms: C_9  and  C_16
REMARK    6  A    between atoms: N_27  and  C1*_28
REMARK    7  A    between atoms: C4*_30  and  C5*_31
REMARK    8  A    between atoms: C5*_31  and  O5*_32
REMARK    9  A    between atoms: C3*_33  and  O3*_34
REMARK   10  A    between atoms: C2*_35  and  O2*_36
REMARK                            x       y       z     vdW  Elec       q    Type
REMARK                         _______ _______ _______ _____ _____    ______ ____
ROOT
ATOM      1  C   UNL     1       0.948   9.600  21.536  0.00  0.00    +0.000 A 
ATOM      2  N   UNL     1       1.176   9.392  20.226  0.00  0.00    +0.000 NA
ATOM      3  C   UNL     1       0.498  10.104  19.293  0.00  0.00    +0.000 A 
ATOM      4  N   UNL     1       0.706   9.799  17.930  0.00  0.00    +0.000 N 
ATOM      5  N   UNL     1      -0.422  11.065  19.552  0.00  0.00    +0.000 NA
ATOM      6  C   UNL     1      -0.641  11.227  20.870  0.00  0.00    +0.000 A 
ATOM      7  C   UNL     1      -0.025  10.536  21.902  0.00  0.00    +0.000 A 
ATOM      8  N   UNL     1      -0.512  10.927  23.130  0.00  0.00    +0.000 NA
ATOM      9  C   UNL     1      -1.384  11.870  22.855  0.00  0.00    +0.000 A 
ATOM     10  N   UNL     1      -1.489  12.098  21.503  0.00  0.00    +0.000 N 
ATOM     11  H   UNL     1       0.268  10.517  17.360  0.00  0.00    +0.000 HD
ENDROOT
BRANCH  10  12
ATOM     12  C1* UNL     1      -2.297  13.167  20.944  0.00  0.00    +0.000 C 
ATOM     13  O4* UNL     1      -1.589  14.423  20.963  0.00  0.00    +0.000 OA
ATOM     14  C4* UNL     1      -2.484  15.452  21.456  0.00  0.00    +0.000 C 
ATOM     15  C3* UNL     1      -3.884  14.844  21.460  0.00  0.00    +0.000 C 
ATOM     16  C2* UNL     1      -3.619  13.364  21.682  0.00  0.00    +0.000 C 
BRANCH  15  17
ATOM     17  O3* UNL     1      -4.539  14.984  20.184  0.00  0.00    +0.000 OA
ATOM     18  H3* UNL     1      -4.809  15.917  20.063  0.00  0.00    +0.000 HD
ENDBRANCH  15  17
BRANCH  16  19
ATOM     19  O2* UNL     1      -4.669  12.561  21.139  0.00  0.00    +0.000 OA
ATOM     20  H2* UNL     1      -5.191  12.238  21.904  0.00  0.00    +0.000 HD
ENDBRANCH  16  19
BRANCH  14  21
ATOM     21  C5* UNL     1      -2.025  15.897  22.845  0.00  0.00    +0.000 C 
BRANCH  21  22
ATOM     22  O5* UNL     1      -0.711  15.405  23.102  0.00  0.00    +0.000 OA
ATOM     23  H5* UNL     1      -0.113  15.969  22.569  0.00  0.00    +0.000 HD
ENDBRANCH  21  22
ENDBRANCH  14  21
ENDBRANCH  10  12
BRANCH   1  24
ATOM     24  N   UNL     1       1.677   8.856  22.457  0.00  0.00    +0.000 N 
ATOM     25  H   UNL     1       1.723   9.321  23.354  0.00  0.00    +0.000 HD
ATOM     26  H   UNL     1       2.530   8.465  22.075  0.00  0.00    +0.000 HD
ENDBRANCH   1  24
BRANCH   4  27
ATOM     27  N   UNL     1       1.931   9.311  17.565  0.00  0.00    +0.000 NA
ATOM     28  C   UNL     1       2.105   8.057  17.837  0.00  0.00    +0.000 C 
BRANCH  28  29
ATOM     29  C   UNL     1       3.383   7.374  17.527  0.00  0.00    +0.000 C 
ATOM     30  C   UNL     1       3.693   6.119  17.918  0.00  0.00    +0.000 C 
BRANCH  30  31
ATOM     31  C   UNL     1       2.706   5.274  18.621  0.00  0.00    +0.000 A 
ATOM     32  C   UNL     1       2.498   5.446  19.997  0.00  0.00    +0.000 A 
ATOM     33  C   UNL     1       1.575   4.650  20.674  0.00  0.00    +0.000 A 
ATOM     34  C   UNL     1       0.851   3.679  19.983  0.00  0.00    +0.000 A 
ATOM     35  C   UNL     1       1.057   3.499  18.616  0.00  0.00    +0.000 A 
ATOM     36  C   UNL     1       1.980   4.292  17.935  0.00  0.00    +0.000 A 
ENDBRANCH  30  31
BRANCH  30  37
ATOM     37  C   UNL     1       5.048   5.636  17.568  0.00  0.00    +0.000 A 
ATOM     38  C   UNL     1       5.332   5.251  16.250  0.00  0.00    +0.000 A 
ATOM     39  C   UNL     1       6.601   4.778  15.907  0.00  0.00    +0.000 A 
ATOM     40  C   UNL     1       7.597   4.688  16.878  0.00  0.00    +0.000 A 
ATOM     41  C   UNL     1       7.328   5.071  18.189  0.00  0.00    +0.000 A 
ATOM     42  C   UNL     1       6.055   5.544  18.534  0.00  0.00    +0.000 A 
ENDBRANCH  30  37
ENDBRANCH  28  29
ENDBRANCH   4  27
TORSDOF 10
ENDMDL
MODEL 4
REMARK VINA RESULT:      -9.5      0.996      1.491
REMARK  Name = 
REMARK  10 active torsions:
REMARK  status: ('A' for Active; 'I' for Inactive)
REMARK    1  A    between atoms: N_1  and  C_2
REMARK    2  A    between atoms: N_5  and  N_6
REMARK    3  A    between atoms: C_7  and  C_8
REMARK    4  A    between atoms: C_9  and  C_10
REMARK    5  A    between atoms: C_9  and  C_16
REMARK    6  A    between atoms: N_27  and  C1*_28
REMARK    7  A    between atoms: C4*_30  and  C5*_31
REMARK    8  A    between atoms: C5*_31  and  O5*_32
REMARK    9  A    between atoms: C3*_33  and  O3*_34
REMARK   10  A    between atoms: C2*_35  and  O2*_36
REMARK                            x       y       z     vdW  Elec       q    Type
REMARK                         _______ _______ _______ _____ _____    ______ ____
ROOT
ATOM      1  C   UNL     1       0.907   9.601  21.518  0.00  0.00    +0.000 A 
ATOM      2  N   UNL     1       1.149   9.388  20.211  0.00  0.00    +0.000 NA
ATOM      3  C   UNL     1       0.480  10.095  19.268  0.00  0.00    +0.000 A 
ATOM      4  N   UNL     1       0.703   9.786  17.909  0.00  0.00    +0.000 N 
ATOM      5  N   UNL     1      -0.446  11.054  19.515  0.00  0.00    +0.000 NA
ATOM      6  C   UNL     1      -0.679  11.220  20.830  0.00  0.00    +0.000 A 
ATOM      7  C   UNL     1      -0.072  10.534  21.870  0.00  0.00    +0.000 A 
ATOM      8  N   UNL     1      -0.574  10.928  23.092  0.00  0.00    +0.000 NA
ATOM      9  C   UNL     1      -1.445  11.868  22.804  0.00  0.00    +0.000 A 
ATOM     10  N   UNL     1      -1.537  12.090  21.451  0.00  0.00    +0.000 N 
ATOM     11  H   UNL     1       0.268  10.501  17.331  0.00  0.00    +0.000 HD
ENDROOT
BRANCH  10  12
ATOM     12  C1* UNL     1      -2.342  13.155  20.879  0.00  0.00    +0.000 C 
ATOM     13  O4* UNL     1      -1.595  14.384  20.787  0.00  0.00    +0.000 OA
ATOM     14  C4* UNL     1      -2.427  15.470  21.271  0.00  0.00    +0.000 C 
ATOM     15  C3* UNL     1      -3.842  14.912  21.390  0.00  0.00    +0.000 C 
ATOM     16  C2* UNL     1      -3.612  13.438  21.680  0.00  0.00    +0.000 C 
BRANCH  15  17
ATOM     17  O3* UNL     1      -4.567  15.005  20.148  0.00  0.00    +0.000 OA
ATOM     18  H3* UNL     1      -5.492  15.266  20.336  0.00  0.00    +0.000 HD
ENDBRANCH  15  17
BRANCH  16  19
ATOM     19  O2* UNL     1      -4.716  12.643  21.244  0.00  0.00    +0.000 OA
ATOM     20  H2* UNL     1      -4.467  12.286  20.364  0.00  0.00    +0.000 HD
ENDBRANCH  16  19
BRANCH  14  21
ATOM     21  C5* UNL     1      -1.872  15.973  22.605  0.00  0.00    +0.000 C 
BRANCH  21  22
ATOM     22  O5* UNL     1      -0.563  15.448  22.815  0.00  0.00    +0.000 OA
ATOM     23  H5* UNL     1      -0.095  15.567  21.963  0.00  0.00    +0.000 HD
ENDBRANCH  21  22
ENDBRANCH  14  21
ENDBRANCH  10  12
BRANCH   1  24
ATOM     24  N   UNL     1       1.629   8.862  22.448  0.00  0.00    +0.000 N 
ATOM     25  H   UNL     1       2.609   8.814  22.203  0.00  0.00    +0.000 HD
ATOM     26  H   UNL     1       1.165   8.008  22.735  0.00  0.00    +0.000 HD
ENDBRANCH   1  24
BRANCH   4  27
ATOM     27  N   UNL     1       1.933   9.301  17.558  0.00  0.00    +0.000 NA
ATOM     28  C   UNL     1       2.088   8.035  17.783  0.00  0.00    +0.000 C 
BRANCH  28  29
ATOM     29  C   UNL     1       3.368   7.352  17.480  0.00  0.00    +0.000 C 
ATOM     30  C   UNL     1       3.688   6.109  17.901  0.00  0.00    +0.000 C 
BRANCH  30  31
ATOM     31  C   UNL     1       2.712   5.276  18.631  0.00  0.00    +0.000 A 
ATOM     32  C   UNL     1       1.970   4.306  17.941  0.00  0.00    +0.000 A 
ATOM     33  C   UNL     1       1.041   3.517  18.617  0.00  0.00    +0.000 A 
ATOM     34  C   UNL     1       0.844   3.689  19.987  0.00  0.00    +0.000 A 
ATOM     35  C   UNL     1       1.574   4.655  20.679  0.00  0.00    +0.000 A 
ATOM     36  C   UNL     1       2.504   5.447  20.006  0.00  0.00    +0.000 A 
ENDBRANCH  30  31
BRANCH  30  37
ATOM     37  C   UNL     1       5.043   5.625  17.553  0.00  0.00    +0.000 A 
ATOM     38  C   UNL     1       6.018   5.501  18.554  0.00  0.00    +0.000 A 
ATOM     39  C   UNL     1       7.305   5.061  18.239  0.00  0.00    +0.000 A 
ATOM     40  C   UNL     1       7.629   4.739  16.922  0.00  0.00    +0.000 A 
ATOM     41  C   UNL     1       6.669   4.854  15.921  0.00  0.00    +0.000 A 
ATOM     42  C   UNL     1       5.378   5.297  16.235  0.00  0.00    +0.000 A 
ENDBRANCH  30  37
ENDBRANCH  28  29
ENDBRANCH   4  27
TORSDOF 10
ENDMDL
MODEL 5
REMARK VINA RESULT:      -9.4      5.037     10.361
REMARK  Name = 
REMARK  10 active torsions:
REMARK  status: ('A' for Active; 'I' for Inactive)
REMARK    1  A    between atoms: N_1  and  C_2
REMARK    2  A    between atoms: N_5  and  N_6
REMARK    3  A    between atoms: C_7  and  C_8
REMARK    4  A    between atoms: C_9  and  C_10
REMARK    5  A    between atoms: C_9  and  C_16
REMARK    6  A    between atoms: N_27  and  C1*_28
REMARK    7  A    between atoms: C4*_30  and  C5*_31
REMARK    8  A    between atoms: C5*_31  and  O5*_32
REMARK    9  A    between atoms: C3*_33  and  O3*_34
REMARK   10  A    between atoms: C2*_35  and  O2*_36
REMARK                            x       y       z     vdW  Elec       q    Type
REMARK                         _______ _______ _______ _____ _____    ______ ____
ROOT
ATOM      1  C   UNL     1       1.414   3.947  19.926  0.00  0.00    +0.000 A 
ATOM      2  N   UNL     1       1.389   5.226  20.344  0.00  0.00    +0.000 NA
ATOM      3  C   UNL     1       2.409   6.064  20.040  0.00  0.00    +0.000 A 
ATOM      4  N   UNL     1       2.386   7.374  20.565  0.00  0.00    +0.000 N 
ATOM      5  N   UNL     1       3.502   5.739  19.305  0.00  0.00    +0.000 NA
ATOM      6  C   UNL     1       3.503   4.447  18.927  0.00  0.00    +0.000 A 
ATOM      7  C   UNL     1       2.528   3.503  19.207  0.00  0.00    +0.000 A 
ATOM      8  N   UNL     1       2.864   2.267  18.697  0.00  0.00    +0.000 NA
ATOM      9  C   UNL     1       4.008   2.464  18.082  0.00  0.00    +0.000 A 
ATOM     10  N   UNL     1       4.431   3.768  18.181  0.00  0.00    +0.000 N 
ATOM     11  H   UNL     1       3.115   7.924  20.118  0.00  0.00    +0.000 HD
ENDROOT
BRANCH  10  12
ATOM     12  C1* UNL     1       5.605   4.271  17.492  0.00  0.00    +0.000 C 
ATOM     13  O4* UNL     1       6.796   4.090  18.285  0.00  0.00    +0.000 OA
ATOM     14  C4* UNL     1       7.568   5.318  18.249  0.00  0.00    +0.000 C 
ATOM     15  C3* UNL     1       6.959   6.181  17.148  0.00  0.00    +0.000 C 
ATOM     16  C2* UNL     1       5.500   5.752  17.137  0.00  0.00    +0.000 C 
BRANCH  15  17
ATOM     17  O3* UNL     1       7.513   5.878  15.853  0.00  0.00    +0.000 OA
ATOM     18  H3* UNL     1       8.477   6.049  15.868  0.00  0.00    +0.000 HD
ENDBRANCH  15  17
BRANCH  16  19
ATOM     19  O2* UNL     1       4.906   5.962  15.854  0.00  0.00    +0.000 OA
ATOM     20  H2* UNL     1       5.392   6.711  15.446  0.00  0.00    +0.000 HD
ENDBRANCH  16  19
BRANCH  14  21
ATOM     21  C5* UNL     1       7.517   5.985  19.624  0.00  0.00    +0.000 C 
BRANCH  21  22
ATOM     22  O5* UNL     1       8.313   5.249  20.550  0.00  0.00    +0.000 OA
ATOM     23  H5* UNL     1       8.487   5.865  21.291  0.00  0.00    +0.000 HD
ENDBRANCH  21  22
ENDBRANCH  14  21
ENDBRANCH  10  12
BRANCH   1  24
ATOM     24  N   UNL     1       0.338   3.128  20.251  0.00  0.00    +0.000 N 
ATOM     25  H   UNL     1       0.646   2.204  20.522  0.00  0.00    +0.000 HD
ATOM     26  H   UNL     1      -0.438   3.204  19.604  0.00  0.00    +0.000 HD
ENDBRANCH   1  24
BRANCH   4  27
ATOM     27  N   UNL     1       1.165   7.946  20.799  0.00  0.00    +0.000 NA
ATOM     28  C   UNL     1       1.225   9.149  21.271  0.00  0.00    +0.000 C 
BRANCH  28  29
ATOM     29  C   UNL     1      -0.005   9.908  21.600  0.00  0.00    +0.000 C 
ATOM     30  C   UNL     1      -0.218  11.199  21.266  0.00  0.00    +0.000 C 
BRANCH  30  31
ATOM     31  C   UNL     1       0.750  11.941  20.433  0.00  0.00    +0.000 A 
ATOM     32  C   UNL     1       0.965  11.553  19.103  0.00  0.00    +0.000 A 
ATOM     33  C   UNL     1       1.880  12.241  18.308  0.00  0.00    +0.000 A 
ATOM     34  C   UNL     1       2.588  13.322  18.833  0.00  0.00    +0.000 A 
ATOM     35  C   UNL     1       2.383  13.710  20.157  0.00  0.00    +0.000 A 
ATOM     36  C   UNL     1       1.469  13.024  20.955  0.00  0.00    +0.000 A 
ENDBRANCH  30  31
BRANCH  30  37
ATOM     37  C   UNL     1      -1.483  11.803  21.744  0.00  0.00    +0.000 A 
ATOM     38  C   UNL     1      -2.275  12.552  20.862  0.00  0.00    +0.000 A 
ATOM     39  C   UNL     1      -3.462  13.141  21.302  0.00  0.00    +0.000 A 
ATOM     40  C   UNL     1      -3.871  12.984  22.625  0.00  0.00    +0.000 A 
ATOM     41  C   UNL     1      -3.095  12.238  23.508  0.00  0.00    +0.000 A 
ATOM     42  C   UNL     1      -1.903  11.649  23.069  0.00  0.00    +0.000 A 
ENDBRANCH  30  37
ENDBRANCH  28  29
ENDBRANCH   4  27
TORSDOF 10
ENDMDL
MODEL 6
REMARK VINA RESULT:      -9.0      5.069     10.841
REMARK  Name = 
REMARK  10 active torsions:
REMARK  status: ('A' for Active; 'I' for Inactive)
REMARK    1  A    between atoms: N_1  and  C_2
REMARK    2  A    between atoms: N_5  and  N_6
REMARK    3  A    between atoms: C_7  and  C_8
REMARK    4  A    between atoms: C_9  and  C_10
REMARK    5  A    between atoms: C_9  and  C_16
REMARK    6  A    between atoms: N_27  and  C1*_28
REMARK    7  A    between atoms: C4*_30  and  C5*_31
REMARK    8  A    between atoms: C5*_31  and  O5*_32
REMARK    9  A    between atoms: C3*_33  and  O3*_34
REMARK   10  A    between atoms: C2*_35  and  O2*_36
REMARK                            x       y       z     vdW  Elec       q    Type
REMARK                         _______ _______ _______ _____ _____    ______ ____
ROOT
ATOM      1  C   UNL     1       1.387   4.314  19.977  0.00  0.00    +0.000 A 
ATOM      2  N   UNL     1       1.316   5.554  20.495  0.00  0.00    +0.000 NA
ATOM      3  C   UNL     1       2.236   6.490  20.157  0.00  0.00    +0.000 A 
ATOM      4  N   UNL     1       2.173   7.754  20.783  0.00  0.00    +0.000 N 
ATOM      5  N   UNL     1       3.265   6.305  19.295  0.00  0.00    +0.000 NA
ATOM      6  C   UNL     1       3.319   5.047  18.818  0.00  0.00    +0.000 A 
ATOM      7  C   UNL     1       2.449   4.012  19.119  0.00  0.00    +0.000 A 
ATOM      8  N   UNL     1       2.817   2.845  18.484  0.00  0.00    +0.000 NA
ATOM      9  C   UNL     1       3.873   3.174  17.776  0.00  0.00    +0.000 A 
ATOM     10  N   UNL     1       4.210   4.497  17.934  0.00  0.00    +0.000 N 
ATOM     11  H   UNL     1       2.810   8.390  20.309  0.00  0.00    +0.000 HD
ENDROOT
BRANCH  10  12
ATOM     12  C1* UNL     1       5.267   5.138  17.172  0.00  0.00    +0.000 C 
ATOM     13  O4* UNL     1       4.803   5.541  15.868  0.00  0.00    +0.000 OA
ATOM     14  C4* UNL     1       5.793   5.153  14.883  0.00  0.00    +0.000 C 
ATOM     15  C3* UNL     1       7.045   4.756  15.659  0.00  0.00    +0.000 C 
ATOM     16  C2* UNL     1       6.489   4.243  16.978  0.00  0.00    +0.000 C 
BRANCH  15  17
ATOM     17  O3* UNL     1       7.884   5.891  15.951  0.00  0.00    +0.000 OA
ATOM     18  H3* UNL     1       8.377   6.141  15.144  0.00  0.00    +0.000 HD
ENDBRANCH  15  17
BRANCH  16  19
ATOM     19  O2* UNL     1       7.440   4.387  18.035  0.00  0.00    +0.000 OA
ATOM     20  H2* UNL     1       7.411   5.330  18.303  0.00  0.00    +0.000 HD
ENDBRANCH  16  19
BRANCH  14  21
ATOM     21  C5* UNL     1       5.236   4.011  14.031  0.00  0.00    +0.000 C 
BRANCH  21  22
ATOM     22  O5* UNL     1       6.306   3.297  13.417  0.00  0.00    +0.000 OA
ATOM     23  H5* UNL     1       5.995   2.371  13.347  0.00  0.00    +0.000 HD
ENDBRANCH  21  22
ENDBRANCH  14  21
ENDBRANCH  10  12
BRANCH   1  24
ATOM     24  N   UNL     1       0.413   3.392  20.343  0.00  0.00    +0.000 N 
ATOM     25  H   UNL     1      -0.259   3.251  19.600  0.00  0.00    +0.000 HD
ATOM     26  H   UNL     1       0.065   3.524  21.285  0.00  0.00    +0.000 HD
ENDBRANCH   1  24
BRANCH   4  27
ATOM     27  N   UNL     1       0.946   8.210  21.180  0.00  0.00    +0.000 NA
ATOM     28  C   UNL     1       0.844   9.500  21.208  0.00  0.00    +0.000 C 
BRANCH  28  29
ATOM     29  C   UNL     1      -0.412  10.162  21.636  0.00  0.00    +0.000 C 
ATOM     30  C   UNL     1      -0.715  11.455  21.390  0.00  0.00    +0.000 C 
BRANCH  30  31
ATOM     31  C   UNL     1       0.168  12.301  20.563  0.00  0.00    +0.000 A 
ATOM     32  C   UNL     1       1.018  13.232  21.179  0.00  0.00    +0.000 A 
ATOM     33  C   UNL     1       1.851  14.042  20.410  0.00  0.00    +0.000 A 
ATOM     34  C   UNL     1       1.845  13.930  19.020  0.00  0.00    +0.000 A 
ATOM     35  C   UNL     1       0.999  13.011  18.400  0.00  0.00    +0.000 A 
ATOM     36  C   UNL     1       0.164  12.199  19.166  0.00  0.00    +0.000 A 
ENDBRANCH  30  31
BRANCH  30  37
ATOM     37  C   UNL     1      -1.989  11.951  21.958  0.00  0.00    +0.000 A 
ATOM     38  C   UNL     1      -2.921  12.590  21.126  0.00  0.00    +0.000 A 
ATOM     39  C   UNL     1      -4.120  13.077  21.650  0.00  0.00    +0.000 A 
ATOM     40  C   UNL     1      -4.400  12.929  23.007  0.00  0.00    +0.000 A 
ATOM     41  C   UNL     1      -3.484  12.293  23.842  0.00  0.00    +0.000 A 
ATOM     42  C   UNL     1      -2.280  11.806  23.318  0.00  0.00    +0.000 A 
ENDBRANCH  30  37
ENDBRANCH  28  29
ENDBRANCH   4  27
TORSDOF 10
ENDMDL
MODEL 7
REMARK VINA RESULT:      -9.0      5.032     10.330
REMARK  Name = 
REMARK  10 active torsions:
REMARK  status: ('A' for Active; 'I' for Inactive)
REMARK    1  A    between atoms: N_1  and  C_2
REMARK    2  A    between atoms: N_5  and  N_6
REMARK    3  A    between atoms: C_7  and  C_8
REMARK    4  A    between atoms: C_9  and  C_10
REMARK    5  A    between atoms: C_9  and  C_16
REMARK    6  A    between atoms: N_27  and  C1*_28
REMARK    7  A    between atoms: C4*_30  and  C5*_31
REMARK    8  A    between atoms: C5*_31  and  O5*_32
REMARK    9  A    between atoms: C3*_33  and  O3*_34
REMARK   10  A    between atoms: C2*_35  and  O2*_36
REMARK                            x       y       z     vdW  Elec       q    Type
REMARK                         _______ _______ _______ _____ _____    ______ ____
ROOT
ATOM      1  C   UNL     1       1.428   4.184  19.908  0.00  0.00    +0.000 A 
ATOM      2  N   UNL     1       1.392   5.474  20.289  0.00  0.00    +0.000 NA
ATOM      3  C   UNL     1       2.402   6.314  19.956  0.00  0.00    +0.000 A 
ATOM      4  N   UNL     1       2.367   7.638  20.443  0.00  0.00    +0.000 N 
ATOM      5  N   UNL     1       3.495   5.978  19.227  0.00  0.00    +0.000 NA
ATOM      6  C   UNL     1       3.508   4.676  18.886  0.00  0.00    +0.000 A 
ATOM      7  C   UNL     1       2.544   3.731  19.198  0.00  0.00    +0.000 A 
ATOM      8  N   UNL     1       2.891   2.484  18.723  0.00  0.00    +0.000 NA
ATOM      9  C   UNL     1       4.030   2.674  18.099  0.00  0.00    +0.000 A 
ATOM     10  N   UNL     1       4.440   3.985  18.157  0.00  0.00    +0.000 N 
ATOM     11  H   UNL     1       3.089   8.182  19.976  0.00  0.00    +0.000 HD
ENDROOT
BRANCH  10  12
ATOM     12  C1* UNL     1       5.607   4.478  17.449  0.00  0.00    +0.000 C 
ATOM     13  O4* UNL     1       6.815   4.241  18.199  0.00  0.00    +0.000 OA
ATOM     14  C4* UNL     1       7.619   5.448  18.179  0.00  0.00    +0.000 C 
ATOM     15  C3* UNL     1       7.001   6.362  17.125  0.00  0.00    +0.000 C 
ATOM     16  C2* UNL     1       5.532   5.973  17.145  0.00  0.00    +0.000 C 
BRANCH  15  17
ATOM     17  O3* UNL     1       7.508   6.087  15.805  0.00  0.00    +0.000 OA
ATOM     18  H3* UNL     1       6.775   5.767  15.240  0.00  0.00    +0.000 HD
ENDBRANCH  15  17
BRANCH  16  19
ATOM     19  O2* UNL     1       4.906   6.240  15.888  0.00  0.00    +0.000 OA
ATOM     20  H2* UNL     1       3.978   5.932  15.973  0.00  0.00    +0.000 HD
ENDBRANCH  16  19
BRANCH  14  21
ATOM     21  C5* UNL     1       7.627   6.071  19.576  0.00  0.00    +0.000 C 
BRANCH  21  22
ATOM     22  O5* UNL     1       8.216   5.166  20.507  0.00  0.00    +0.000 OA
ATOM     23  H5* UNL     1       8.327   5.679  21.334  0.00  0.00    +0.000 HD
ENDBRANCH  21  22
ENDBRANCH  14  21
ENDBRANCH  10  12
BRANCH   1  24
ATOM     24  N   UNL     1       0.362   3.365  20.261  0.00  0.00    +0.000 N 
ATOM     25  H   UNL     1      -0.184   3.771  21.009  0.00  0.00    +0.000 HD
ATOM     26  H   UNL     1       0.609   2.385  20.326  0.00  0.00    +0.000 HD
ENDBRANCH   1  24
BRANCH   4  27
ATOM     27  N   UNL     1       1.142   8.205  20.664  0.00  0.00    +0.000 NA
ATOM     28  C   UNL     1       0.902   9.249  19.938  0.00  0.00    +0.000 C 
BRANCH  28  29
ATOM     29  C   UNL     1      -0.371   9.998  20.066  0.00  0.00    +0.000 C 
ATOM     30  C   UNL     1      -0.467  11.344  20.075  0.00  0.00    +0.000 C 
BRANCH  30  31
ATOM     31  C   UNL     1       0.718  12.195  19.849  0.00  0.00    +0.000 A 
ATOM     32  C   UNL     1       1.414  12.725  20.946  0.00  0.00    +0.000 A 
ATOM     33  C   UNL     1       2.530  13.535  20.748  0.00  0.00    +0.000 A 
ATOM     34  C   UNL     1       2.963  13.823  19.454  0.00  0.00    +0.000 A 
ATOM     35  C   UNL     1       2.273  13.304  18.358  0.00  0.00    +0.000 A 
ATOM     36  C   UNL     1       1.156  12.494  18.553  0.00  0.00    +0.000 A 
ENDBRANCH  30  31
BRANCH  30  37
ATOM     37  C   UNL     1      -1.822  11.906  20.280  0.00  0.00    +0.000 A 
ATOM     38  C   UNL     1      -2.187  12.404  21.539  0.00  0.00    +0.000 A 
ATOM     39  C   UNL     1      -3.467  12.923  21.753  0.00  0.00    +0.000 A 
ATOM     40  C   UNL     1      -4.390  12.951  20.710  0.00  0.00    +0.000 A 
ATOM     41  C   UNL     1      -4.038  12.464  19.454  0.00  0.00    +0.000 A 
ATOM     42  C   UNL     1      -2.756  11.941  19.239  0.00  0.00    +0.000 A 
ENDBRANCH  30  37
ENDBRANCH  28  29
ENDBRANCH   4  27
TORSDOF 10
ENDMDL
MODEL 8
REMARK VINA RESULT:      -8.9      1.304      2.227
REMARK  Name = 
REMARK  10 active torsions:
REMARK  status: ('A' for Active; 'I' for Inactive)
REMARK    1  A    between atoms: N_1  and  C_2
REMARK    2  A    between atoms: N_5  and  N_6
REMARK    3  A    between atoms: C_7  and  C_8
REMARK    4  A    between atoms: C_9  and  C_10
REMARK    5  A    between atoms: C_9  and  C_16
REMARK    6  A    between atoms: N_27  and  C1*_28
REMARK    7  A    between atoms: C4*_30  and  C5*_31
REMARK    8  A    between atoms: C5*_31  and  O5*_32
REMARK    9  A    between atoms: C3*_33  and  O3*_34
REMARK   10  A    between atoms: C2*_35  and  O2*_36
REMARK                            x       y       z     vdW  Elec       q    Type
REMARK                         _______ _______ _______ _____ _____    ______ ____
ROOT
ATOM      1  C   UNL     1       0.990   9.297  21.462  0.00  0.00    +0.000 A 
ATOM      2  N   UNL     1       1.243   9.210  20.143  0.00  0.00    +0.000 NA
ATOM      3  C   UNL     1       0.654  10.069  19.276  0.00  0.00    +0.000 A 
ATOM      4  N   UNL     1       0.882   9.893  17.894  0.00  0.00    +0.000 N 
ATOM      5  N   UNL     1      -0.195  11.069  19.615  0.00  0.00    +0.000 NA
ATOM      6  C   UNL     1      -0.443  11.109  20.938  0.00  0.00    +0.000 A 
ATOM      7  C   UNL     1       0.082  10.265  21.903  0.00  0.00    +0.000 A 
ATOM      8  N   UNL     1      -0.412  10.564  23.155  0.00  0.00    +0.000 NA
ATOM      9  C   UNL     1      -1.197  11.598  22.962  0.00  0.00    +0.000 A 
ATOM     10  N   UNL     1      -1.241  11.975  21.640  0.00  0.00    +0.000 N 
ATOM     11  H   UNL     1       0.519  10.701  17.394  0.00  0.00    +0.000 HD
ENDROOT
BRANCH  10  12
ATOM     12  C1* UNL     1      -1.944  13.159  21.180  0.00  0.00    +0.000 C 
ATOM     13  O4* UNL     1      -1.452  13.595  19.897  0.00  0.00    +0.000 OA
ATOM     14  C4* UNL     1      -1.259  15.032  19.937  0.00  0.00    +0.000 C 
ATOM     15  C3* UNL     1      -1.942  15.525  21.210  0.00  0.00    +0.000 C 
ATOM     16  C2* UNL     1      -1.829  14.334  22.149  0.00  0.00    +0.000 C 
BRANCH  15  17
ATOM     17  O3* UNL     1      -3.343  15.789  21.006  0.00  0.00    +0.000 OA
ATOM     18  H3* UNL     1      -3.478  16.755  20.915  0.00  0.00    +0.000 HD
ENDBRANCH  15  17
BRANCH  16  19
ATOM     19  O2* UNL     1      -2.875  14.339  23.122  0.00  0.00    +0.000 OA
ATOM     20  H2* UNL     1      -2.435  14.282  23.998  0.00  0.00    +0.000 HD
ENDBRANCH  16  19
BRANCH  14  21
ATOM     21  C5* UNL     1       0.238  15.341  19.907  0.00  0.00    +0.000 C 
BRANCH  21  22
ATOM     22  O5* UNL     1       0.969  14.163  19.574  0.00  0.00    +0.000 OA
ATOM     23  H5* UNL     1       1.204  13.751  20.431  0.00  0.00    +0.000 HD
ENDBRANCH  21  22
ENDBRANCH  14  21
ENDBRANCH  10  12
BRANCH   1  24
ATOM     24  N   UNL     1       1.628   8.403  22.314  0.00  0.00    +0.000 N 
ATOM     25  H   UNL     1       0.964   7.894  22.882  0.00  0.00    +0.000 HD
ATOM     26  H   UNL     1       2.447   8.792  22.768  0.00  0.00    +0.000 HD
ENDBRANCH   1  24
BRANCH   4  27
ATOM     27  N   UNL     1       2.076   9.348  17.508  0.00  0.00    +0.000 NA
ATOM     28  C   UNL     1       2.227   8.108  17.846  0.00  0.00    +0.000 C 
BRANCH  28  29
ATOM     29  C   UNL     1       3.471   7.370  17.524  0.00  0.00    +0.000 C 
ATOM     30  C   UNL     1       3.738   6.110  17.931  0.00  0.00    +0.000 C 
BRANCH  30  31
ATOM     31  C   UNL     1       2.732   5.316  18.665  0.00  0.00    +0.000 A 
ATOM     32  C   UNL     1       2.002   4.325  17.992  0.00  0.00    +0.000 A 
ATOM     33  C   UNL     1       1.046   3.572  18.671  0.00  0.00    +0.000 A 
ATOM     34  C   UNL     1       0.810   3.801  20.026  0.00  0.00    +0.000 A 
ATOM     35  C   UNL     1       1.528   4.789  20.700  0.00  0.00    +0.000 A 
ATOM     36  C   UNL     1       2.486   5.544  20.025  0.00  0.00    +0.000 A 
ENDBRANCH  30  31
BRANCH  30  37
ATOM     37  C   UNL     1       5.066   5.568  17.564  0.00  0.00    +0.000 A 
ATOM     38  C   UNL     1       6.121   5.622  18.487  0.00  0.00    +0.000 A 
ATOM     39  C   UNL     1       7.383   5.129  18.150  0.00  0.00    +0.000 A 
ATOM     40  C   UNL     1       7.602   4.575  16.890  0.00  0.00    +0.000 A 
ATOM     41  C   UNL     1       6.562   4.512  15.967  0.00  0.00    +0.000 A 
ATOM     42  C   UNL     1       5.296   5.008  16.302  0.00  0.00    +0.000 A 
ENDBRANCH  30  37
ENDBRANCH  28  29
ENDBRANCH   4  27
TORSDOF 10
ENDMDL
MODEL 9
REMARK VINA RESULT:      -8.8      1.684      2.893
REMARK  Name = 
REMARK  10 active torsions:
REMARK  status: ('A' for Active; 'I' for Inactive)
REMARK    1  A    between atoms: N_1  and  C_2
REMARK    2  A    between atoms: N_5  and  N_6
REMARK    3  A    between atoms: C_7  and  C_8
REMARK    4  A    between atoms: C_9  and  C_10
REMARK    5  A    between atoms: C_9  and  C_16
REMARK    6  A    between atoms: N_27  and  C1*_28
REMARK    7  A    between atoms: C4*_30  and  C5*_31
REMARK    8  A    between atoms: C5*_31  and  O5*_32
REMARK    9  A    between atoms: C3*_33  and  O3*_34
REMARK   10  A    between atoms: C2*_35  and  O2*_36
REMARK                            x       y       z     vdW  Elec       q    Type
REMARK                         _______ _______ _______ _____ _____    ______ ____
ROOT
ATOM      1  C   UNL     1       1.210  12.962  18.976  0.00  0.00    +0.000 A 
ATOM      2  N   UNL     1       1.404  11.630  18.962  0.00  0.00    +0.000 NA
ATOM      3  C   UNL     1       0.481  10.800  19.506  0.00  0.00    +0.000 A 
ATOM      4  N   UNL     1       0.759   9.416  19.544  0.00  0.00    +0.000 N 
ATOM      5  N   UNL     1      -0.685  11.187  20.079  0.00  0.00    +0.000 NA
ATOM      6  C   UNL     1      -0.831  12.525  20.097  0.00  0.00    +0.000 A 
ATOM      7  C   UNL     1       0.059  13.460  19.595  0.00  0.00    +0.000 A 
ATOM      8  N   UNL     1      -0.387  14.746  19.813  0.00  0.00    +0.000 NA
ATOM      9  C   UNL     1      -1.550  14.597  20.403  0.00  0.00    +0.000 A 
ATOM     10  N   UNL     1      -1.871  13.272  20.586  0.00  0.00    +0.000 N 
ATOM     11  H   UNL     1      -0.083   8.917  19.819  0.00  0.00    +0.000 HD
ENDROOT
BRANCH  10  12
ATOM     12  C1* UNL     1      -3.152  12.836  21.111  0.00  0.00    +0.000 C 
ATOM     13  O4* UNL     1      -4.198  12.988  20.131  0.00  0.00    +0.000 OA
ATOM     14  C4* UNL     1      -5.350  13.593  20.772  0.00  0.00    +0.000 C 
ATOM     15  C3* UNL     1      -5.089  13.538  22.274  0.00  0.00    +0.000 C 
ATOM     16  C2* UNL     1      -3.573  13.597  22.366  0.00  0.00    +0.000 C 
BRANCH  15  17
ATOM     17  O3* UNL     1      -5.512  12.288  22.852  0.00  0.00    +0.000 OA
ATOM     18  H3* UNL     1      -4.724  11.737  23.039  0.00  0.00    +0.000 HD
ENDBRANCH  15  17
BRANCH  16  19
ATOM     19  O2* UNL     1      -3.099  12.974  23.562  0.00  0.00    +0.000 OA
ATOM     20  H2* UNL     1      -2.625  13.671  24.065  0.00  0.00    +0.000 HD
ENDBRANCH  16  19
BRANCH  14  21
ATOM     21  C5* UNL     1      -5.524  15.021  20.252  0.00  0.00    +0.000 C 
BRANCH  21  22
ATOM     22  O5* UNL     1      -5.901  14.993  18.876  0.00  0.00    +0.000 OA
ATOM     23  H5* UNL     1      -5.463  15.770  18.471  0.00  0.00    +0.000 HD
ENDBRANCH  21  22
ENDBRANCH  14  21
ENDBRANCH  10  12
BRANCH   1  24
ATOM     24  N   UNL     1       2.177  13.773  18.394  0.00  0.00    +0.000 N 
ATOM     25  H   UNL     1       3.016  13.251  18.178  0.00  0.00    +0.000 HD
ATOM     26  H   UNL     1       2.277  14.673  18.848  0.00  0.00    +0.000 HD
ENDBRANCH   1  24
BRANCH   4  27
ATOM     27  N   UNL     1       1.552   8.896  18.557  0.00  0.00    +0.000 NA
ATOM     28  C   UNL     1       2.221   7.847  18.913  0.00  0.00    +0.000 C 
BRANCH  28  29
ATOM     29  C   UNL     1       3.144   7.170  17.971  0.00  0.00    +0.000 C 
ATOM     30  C   UNL     1       3.368   5.839  17.947  0.00  0.00    +0.000 C 
BRANCH  30  31
ATOM     31  C   UNL     1       2.607   4.921  18.817  0.00  0.00    +0.000 A 
ATOM     32  C   UNL     1       2.946   4.806  20.174  0.00  0.00    +0.000 A 
ATOM     33  C   UNL     1       2.240   3.939  21.005  0.00  0.00    +0.000 A 
ATOM     34  C   UNL     1       1.189   3.179  20.491  0.00  0.00    +0.000 A 
ATOM     35  C   UNL     1       0.850   3.284  19.143  0.00  0.00    +0.000 A 
ATOM     36  C   UNL     1       1.554   4.150  18.307  0.00  0.00    +0.000 A 
ENDBRANCH  30  31
BRANCH  30  37
ATOM     37  C   UNL     1       4.379   5.359  16.977  0.00  0.00    +0.000 A 
ATOM     38  C   UNL     1       5.006   6.271  16.115  0.00  0.00    +0.000 A 
ATOM     39  C   UNL     1       5.950   5.831  15.184  0.00  0.00    +0.000 A 
ATOM     40  C   UNL     1       6.278   4.479  15.108  0.00  0.00    +0.000 A 
ATOM     41  C   UNL     1       5.666   3.565  15.962  0.00  0.00    +0.000 A 
ATOM     42  C   UNL     1       4.717   4.004  16.894  0.00  0.00    +0.000 A 
ENDBRANCH  30  37
ENDBRANCH  28  29
ENDBRANCH   4  27
TORSDOF 10
ENDMDL
