MODEL 1
REMARK VINA RESULT:      -8.4      0.000      0.000
REMARK  Name = 
REMARK  2 active torsions:
REMARK  status: ('A' for Active; 'I' for Inactive)
REMARK    1  A    between atoms: C_2  and  C_14
REMARK    2  A    between atoms: N_3  and  C_4
REMARK                            x       y       z     vdW  Elec       q    Type
REMARK                         _______ _______ _______ _____ _____    ______ ____
ROOT
ATOM      1  O   UNL     1       6.011   4.024  18.686  0.00  0.00    +0.000 OA
ATOM      2  C   UNL     1       5.363   4.211  17.660  0.00  0.00    +0.000 C 
ATOM      3  N   UNL     1       3.986   4.243  17.620  0.00  0.00    +0.000 N 
ATOM      4  H   UNL     1       3.538   4.327  16.715  0.00  0.00    +0.000 HD
ENDROOT
BRANCH   3   5
ATOM      5  C   UNL     1       3.103   3.943  18.755  0.00  0.00    +0.000 C 
ATOM      6  C   UNL     1       3.179   5.033  19.853  0.00  0.00    +0.000 C 
ATOM      7  C   UNL     1       2.207   4.712  21.002  0.00  0.00    +0.000 C 
ATOM      8  C   UNL     1       0.772   4.659  20.455  0.00  0.00    +0.000 C 
ATOM      9  C   UNL     1       0.661   3.567  19.378  0.00  0.00    +0.000 C 
ATOM     10  C   UNL     1       1.028   2.208  19.994  0.00  0.00    +0.000 C 
ATOM     11  C   UNL     1       2.467   2.247  20.534  0.00  0.00    +0.000 C 
ATOM     12  C   UNL     1       2.573   3.345  21.605  0.00  0.00    +0.000 C 
ATOM     13  C   UNL     1       3.436   2.565  19.382  0.00  0.00    +0.000 C 
ATOM     14  C   UNL     1       1.640   3.886  18.238  0.00  0.00    +0.000 C 
ENDBRANCH   3   5
BRANCH   2  15
ATOM     15  C   UNL     1       6.097   4.455  16.396  0.00  0.00    +0.000 A 
ATOM     16  C   UNL     1       5.765   3.659  15.288  0.00  0.00    +0.000 A 
ATOM     17  C   UNL     1       6.369   3.888  14.054  0.00  0.00    +0.000 A 
ATOM     18  C   UNL     1       7.293   4.914  13.961  0.00  0.00    +0.000 A 
ATOM     19  N   UNL     1       7.655   5.688  15.003  0.00  0.00    +0.000 NA
ATOM     20  C   UNL     1       7.045   5.448  16.193  0.00  0.00    +0.000 A 
ATOM     21 CL   UNL     1       7.583   6.550  17.404  0.00  0.00    +0.000 Cl
ENDBRANCH   2  15
TORSDOF 2
ENDMDL
MODEL 2
REMARK VINA RESULT:      -8.4      0.946      1.722
REMARK  Name = 
REMARK  2 active torsions:
REMARK  status: ('A' for Active; 'I' for Inactive)
REMARK    1  A    between atoms: C_2  and  C_14
REMARK    2  A    between atoms: N_3  and  C_4
REMARK                            x       y       z     vdW  Elec       q    Type
REMARK                         _______ _______ _______ _____ _____    ______ ____
ROOT
ATOM      1  O   UNL     1       4.091   6.041  17.137  0.00  0.00    +0.000 OA
ATOM      2  C   UNL     1       4.555   4.942  16.850  0.00  0.00    +0.000 C 
ATOM      3  N   UNL     1       4.137   3.761  17.424  0.00  0.00    +0.000 N 
ATOM      4  H   UNL     1       4.632   2.912  17.180  0.00  0.00    +0.000 HD
ENDROOT
BRANCH   3   5
ATOM      5  C   UNL     1       3.178   3.657  18.532  0.00  0.00    +0.000 C 
ATOM      6  C   UNL     1       1.767   4.152  18.126  0.00  0.00    +0.000 C 
ATOM      7  C   UNL     1       0.779   3.983  19.292  0.00  0.00    +0.000 C 
ATOM      8  C   UNL     1       0.690   2.496  19.673  0.00  0.00    +0.000 C 
ATOM      9  C   UNL     1       2.073   1.983  20.104  0.00  0.00    +0.000 C 
ATOM     10  C   UNL     1       2.563   2.796  21.312  0.00  0.00    +0.000 C 
ATOM     11  C   UNL     1       2.666   4.283  20.938  0.00  0.00    +0.000 C 
ATOM     12  C   UNL     1       1.281   4.790  20.501  0.00  0.00    +0.000 C 
ATOM     13  C   UNL     1       3.658   4.449  19.773  0.00  0.00    +0.000 C 
ATOM     14  C   UNL     1       3.061   2.163  18.940  0.00  0.00    +0.000 C 
ENDBRANCH   3   5
BRANCH   2  15
ATOM     15  C   UNL     1       5.598   4.868  15.799  0.00  0.00    +0.000 A 
ATOM     16  C   UNL     1       5.313   4.108  14.654  0.00  0.00    +0.000 A 
ATOM     17  C   UNL     1       6.224   4.058  13.602  0.00  0.00    +0.000 A 
ATOM     18  C   UNL     1       7.402   4.774  13.724  0.00  0.00    +0.000 A 
ATOM     19  N   UNL     1       7.724   5.498  14.814  0.00  0.00    +0.000 NA
ATOM     20  C   UNL     1       6.814   5.536  15.822  0.00  0.00    +0.000 A 
ATOM     21 CL   UNL     1       7.356   6.539  17.115  0.00  0.00    +0.000 Cl
ENDBRANCH   2  15
TORSDOF 2
ENDMDL
MODEL 3
REMARK VINA RESULT:      -8.3      0.984      2.052
REMARK  Name = 
REMARK  2 active torsions:
REMARK  status: ('A' for Active; 'I' for Inactive)
REMARK    1  A    between atoms: C_2  and  C_14
REMARK    2  A    between atoms: N_3  and  C_4
REMARK                            x       y       z     vdW  Elec       q    Type
REMARK                         _______ _______ _______ _____ _____    ______ ____
ROOT
ATOM      1  O   UNL     1       4.096   5.982  17.097  0.00  0.00    +0.000 OA
ATOM      2  C   UNL     1       4.568   4.890  16.792  0.00  0.00    +0.000 C 
ATOM      3  N   UNL     1       4.156   3.697  17.345  0.00  0.00    +0.000 N 
ATOM      4  H   UNL     1       4.657   2.855  17.087  0.00  0.00    +0.000 HD
ENDROOT
BRANCH   3   5
ATOM      5  C   UNL     1       3.195   3.568  18.448  0.00  0.00    +0.000 C 
ATOM      6  C   UNL     1       2.997   2.092  18.875  0.00  0.00    +0.000 C 
ATOM      7  C   UNL     1       2.024   1.998  20.063  0.00  0.00    +0.000 C 
ATOM      8  C   UNL     1       2.595   2.785  21.253  0.00  0.00    +0.000 C 
ATOM      9  C   UNL     1       2.779   4.261  20.865  0.00  0.00    +0.000 C 
ATOM     10  C   UNL     1       1.420   4.853  20.461  0.00  0.00    +0.000 C 
ATOM     11  C   UNL     1       0.845   4.080  19.263  0.00  0.00    +0.000 C 
ATOM     12  C   UNL     1       0.670   2.603  19.655  0.00  0.00    +0.000 C 
ATOM     13  C   UNL     1       1.820   4.179  18.076  0.00  0.00    +0.000 C 
ATOM     14  C   UNL     1       3.744   4.350  19.672  0.00  0.00    +0.000 C 
ENDBRANCH   3   5
BRANCH   2  15
ATOM     15  C   UNL     1       5.614   4.841  15.744  0.00  0.00    +0.000 A 
ATOM     16  C   UNL     1       5.340   4.093  14.588  0.00  0.00    +0.000 A 
ATOM     17  C   UNL     1       6.254   4.067  13.537  0.00  0.00    +0.000 A 
ATOM     18  C   UNL     1       7.424   4.793  13.672  0.00  0.00    +0.000 A 
ATOM     19  N   UNL     1       7.736   5.507  14.772  0.00  0.00    +0.000 NA
ATOM     20  C   UNL     1       6.823   5.522  15.778  0.00  0.00    +0.000 A 
ATOM     21 CL   UNL     1       7.351   6.513  17.086  0.00  0.00    +0.000 Cl
ENDBRANCH   2  15
TORSDOF 2
ENDMDL
MODEL 4
REMARK VINA RESULT:      -7.6      3.977      6.493
REMARK  Name = 
REMARK  2 active torsions:
REMARK  status: ('A' for Active; 'I' for Inactive)
REMARK    1  A    between atoms: C_2  and  C_14
REMARK    2  A    between atoms: N_3  and  C_4
REMARK                            x       y       z     vdW  Elec       q    Type
REMARK                         _______ _______ _______ _____ _____    ______ ____
ROOT
ATOM      1  O   UNL     1       2.570   7.897  18.689  0.00  0.00    +0.000 OA
ATOM      2  C   UNL     1       1.968   7.566  19.707  0.00  0.00    +0.000 C 
ATOM      3  N   UNL     1       1.980   6.287  20.221  0.00  0.00    +0.000 N 
ATOM      4  H   UNL     1       1.391   6.091  21.022  0.00  0.00    +0.000 HD
ENDROOT
BRANCH   3   5
ATOM      5  C   UNL     1       2.603   5.125  19.574  0.00  0.00    +0.000 C 
ATOM      6  C   UNL     1       4.142   5.268  19.482  0.00  0.00    +0.000 C 
ATOM      7  C   UNL     1       4.765   4.014  18.845  0.00  0.00    +0.000 C 
ATOM      8  C   UNL     1       4.433   2.787  19.708  0.00  0.00    +0.000 C 
ATOM      9  C   UNL     1       2.910   2.605  19.798  0.00  0.00    +0.000 C 
ATOM     10  C   UNL     1       2.338   2.411  18.385  0.00  0.00    +0.000 C 
ATOM     11  C   UNL     1       2.654   3.639  17.516  0.00  0.00    +0.000 C 
ATOM     12  C   UNL     1       4.179   3.820  17.436  0.00  0.00    +0.000 C 
ATOM     13  C   UNL     1       2.027   4.891  18.155  0.00  0.00    +0.000 C 
ATOM     14  C   UNL     1       2.290   3.863  20.425  0.00  0.00    +0.000 C 
ENDBRANCH   3   5
BRANCH   2  15
ATOM     15  C   UNL     1       1.215   8.603  20.451  0.00  0.00    +0.000 A 
ATOM     16  C   UNL     1       1.254   8.553  21.853  0.00  0.00    +0.000 A 
ATOM     17  C   UNL     1       0.625   9.541  22.607  0.00  0.00    +0.000 A 
ATOM     18  C   UNL     1      -0.030  10.557  21.935  0.00  0.00    +0.000 A 
ATOM     19  N   UNL     1      -0.110  10.631  20.591  0.00  0.00    +0.000 NA
ATOM     20  C   UNL     1       0.519   9.659  19.880  0.00  0.00    +0.000 A 
ATOM     21 CL   UNL     1       0.362   9.925  18.184  0.00  0.00    +0.000 Cl
ENDBRANCH   2  15
TORSDOF 2
ENDMDL
MODEL 5
REMARK VINA RESULT:      -7.5      3.955      6.424
REMARK  Name = 
REMARK  2 active torsions:
REMARK  status: ('A' for Active; 'I' for Inactive)
REMARK    1  A    between atoms: C_2  and  C_14
REMARK    2  A    between atoms: N_3  and  C_4
REMARK                            x       y       z     vdW  Elec       q    Type
REMARK                         _______ _______ _______ _____ _____    ______ ____
ROOT
ATOM      1  O   UNL     1       2.652   7.829  18.754  0.00  0.00    +0.000 OA
ATOM      2  C   UNL     1       1.999   7.521  19.746  0.00  0.00    +0.000 C 
ATOM      3  N   UNL     1       1.956   6.246  20.269  0.00  0.00    +0.000 N 
ATOM      4  H   UNL     1       1.328   6.071  21.044  0.00  0.00    +0.000 HD
ENDROOT
BRANCH   3   5
ATOM      5  C   UNL     1       2.577   5.064  19.656  0.00  0.00    +0.000 C 
ATOM      6  C   UNL     1       2.254   3.768  20.441  0.00  0.00    +0.000 C 
ATOM      7  C   UNL     1       2.878   2.546  19.745  0.00  0.00    +0.000 C 
ATOM      8  C   UNL     1       2.303   2.420  18.325  0.00  0.00    +0.000 C 
ATOM      9  C   UNL     1       2.629   3.685  17.515  0.00  0.00    +0.000 C 
ATOM     10  C   UNL     1       4.154   3.861  17.440  0.00  0.00    +0.000 C 
ATOM     11  C   UNL     1       4.737   3.999  18.856  0.00  0.00    +0.000 C 
ATOM     12  C   UNL     1       4.402   2.734  19.664  0.00  0.00    +0.000 C 
ATOM     13  C   UNL     1       4.114   5.224  19.547  0.00  0.00    +0.000 C 
ATOM     14  C   UNL     1       2.014   4.904  18.217  0.00  0.00    +0.000 C 
ENDBRANCH   3   5
BRANCH   2  15
ATOM     15  C   UNL     1       1.241   8.582  20.451  0.00  0.00    +0.000 A 
ATOM     16  C   UNL     1       1.257   8.569  21.854  0.00  0.00    +0.000 A 
ATOM     17  C   UNL     1       0.623   9.580  22.572  0.00  0.00    +0.000 A 
ATOM     18  C   UNL     1      -0.015  10.582  21.862  0.00  0.00    +0.000 A 
ATOM     19  N   UNL     1      -0.073  10.622  20.516  0.00  0.00    +0.000 NA
ATOM     20  C   UNL     1       0.561   9.627  19.841  0.00  0.00    +0.000 A 
ATOM     21 CL   UNL     1       0.433   9.849  18.136  0.00  0.00    +0.000 Cl
ENDBRANCH   2  15
TORSDOF 2
ENDMDL
MODEL 6
REMARK VINA RESULT:      -7.5      3.955      6.497
REMARK  Name = 
REMARK  2 active torsions:
REMARK  status: ('A' for Active; 'I' for Inactive)
REMARK    1  A    between atoms: C_2  and  C_14
REMARK    2  A    between atoms: N_3  and  C_4
REMARK                            x       y       z     vdW  Elec       q    Type
REMARK                         _______ _______ _______ _____ _____    ______ ____
ROOT
ATOM      1  O   UNL     1       2.642   7.829  18.738  0.00  0.00    +0.000 OA
ATOM      2  C   UNL     1       1.985   7.513  19.726  0.00  0.00    +0.000 C 
ATOM      3  N   UNL     1       1.920   6.229  20.224  0.00  0.00    +0.000 N 
ATOM      4  H   UNL     1       1.291   6.051  20.998  0.00  0.00    +0.000 HD
ENDROOT
BRANCH   3   5
ATOM      5  C   UNL     1       2.517   5.048  19.587  0.00  0.00    +0.000 C 
ATOM      6  C   UNL     1       2.040   4.876  18.123  0.00  0.00    +0.000 C 
ATOM      7  C   UNL     1       2.721   3.659  17.472  0.00  0.00    +0.000 C 
ATOM      8  C   UNL     1       4.244   3.867  17.475  0.00  0.00    +0.000 C 
ATOM      9  C   UNL     1       4.749   4.018  18.918  0.00  0.00    +0.000 C 
ATOM     10  C   UNL     1       4.401   2.750  19.713  0.00  0.00    +0.000 C 
ATOM     11  C   UNL     1       2.878   2.539  19.727  0.00  0.00    +0.000 C 
ATOM     12  C   UNL     1       2.378   2.396  18.279  0.00  0.00    +0.000 C 
ATOM     13  C   UNL     1       2.201   3.756  20.381  0.00  0.00    +0.000 C 
ATOM     14  C   UNL     1       4.060   5.227  19.569  0.00  0.00    +0.000 C 
ENDBRANCH   3   5
BRANCH   2  15
ATOM     15  C   UNL     1       1.249   8.574  20.454  0.00  0.00    +0.000 A 
ATOM     16  C   UNL     1       1.291   8.548  21.857  0.00  0.00    +0.000 A 
ATOM     17  C   UNL     1       0.678   9.558  22.594  0.00  0.00    +0.000 A 
ATOM     18  C   UNL     1       0.036  10.572  21.905  0.00  0.00    +0.000 A 
ATOM     19  N   UNL     1      -0.045  10.624  20.561  0.00  0.00    +0.000 NA
ATOM     20  C   UNL     1       0.568   9.631  19.865  0.00  0.00    +0.000 A 
ATOM     21 CL   UNL     1       0.411   9.869  18.165  0.00  0.00    +0.000 Cl
ENDBRANCH   2  15
TORSDOF 2
ENDMDL
MODEL 7
REMARK VINA RESULT:      -7.3      2.114      2.829
REMARK  Name = 
REMARK  2 active torsions:
REMARK  status: ('A' for Active; 'I' for Inactive)
REMARK    1  A    between atoms: C_2  and  C_14
REMARK    2  A    between atoms: N_3  and  C_4
REMARK                            x       y       z     vdW  Elec       q    Type
REMARK                         _______ _______ _______ _____ _____    ______ ____
ROOT
ATOM      1  O   UNL     1       5.901   3.778  18.487  0.00  0.00    +0.000 OA
ATOM      2  C   UNL     1       5.460   4.917  18.608  0.00  0.00    +0.000 C 
ATOM      3  N   UNL     1       4.193   5.202  19.073  0.00  0.00    +0.000 N 
ATOM      4  H   UNL     1       3.891   6.169  19.065  0.00  0.00    +0.000 HD
ENDROOT
BRANCH   3   5
ATOM      5  C   UNL     1       3.161   4.201  19.370  0.00  0.00    +0.000 C 
ATOM      6  C   UNL     1       3.668   3.118  20.354  0.00  0.00    +0.000 C 
ATOM      7  C   UNL     1       2.548   2.116  20.681  0.00  0.00    +0.000 C 
ATOM      8  C   UNL     1       1.371   2.862  21.331  0.00  0.00    +0.000 C 
ATOM      9  C   UNL     1       0.830   3.928  20.365  0.00  0.00    +0.000 C 
ATOM     10  C   UNL     1       0.358   3.248  19.070  0.00  0.00    +0.000 C 
ATOM     11  C   UNL     1       1.531   2.509  18.407  0.00  0.00    +0.000 C 
ATOM     12  C   UNL     1       2.073   1.448  19.380  0.00  0.00    +0.000 C 
ATOM     13  C   UNL     1       2.649   3.515  18.079  0.00  0.00    +0.000 C 
ATOM     14  C   UNL     1       1.954   4.922  20.032  0.00  0.00    +0.000 C 
ENDBRANCH   3   5
BRANCH   2  15
ATOM     15  C   UNL     1       6.346   6.057  18.275  0.00  0.00    +0.000 A 
ATOM     16  C   UNL     1       7.485   6.248  19.072  0.00  0.00    +0.000 A 
ATOM     17  C   UNL     1       8.393   7.259  18.765  0.00  0.00    +0.000 A 
ATOM     18  C   UNL     1       8.135   8.056  17.664  0.00  0.00    +0.000 A 
ATOM     19  N   UNL     1       7.043   7.920  16.885  0.00  0.00    +0.000 NA
ATOM     20  C   UNL     1       6.178   6.921  17.202  0.00  0.00    +0.000 A 
ATOM     21 CL   UNL     1       4.866   6.853  16.086  0.00  0.00    +0.000 Cl
ENDBRANCH   2  15
TORSDOF 2
ENDMDL
MODEL 8
REMARK VINA RESULT:      -7.3      2.110      3.110
REMARK  Name = 
REMARK  2 active torsions:
REMARK  status: ('A' for Active; 'I' for Inactive)
REMARK    1  A    between atoms: C_2  and  C_14
REMARK    2  A    between atoms: N_3  and  C_4
REMARK                            x       y       z     vdW  Elec       q    Type
REMARK                         _______ _______ _______ _____ _____    ______ ____
ROOT
ATOM      1  O   UNL     1       5.832   3.773  18.532  0.00  0.00    +0.000 OA
ATOM      2  C   UNL     1       5.407   4.921  18.621  0.00  0.00    +0.000 C 
ATOM      3  N   UNL     1       4.136   5.235  19.054  0.00  0.00    +0.000 N 
ATOM      4  H   UNL     1       3.849   6.206  19.021  0.00  0.00    +0.000 HD
ENDROOT
BRANCH   3   5
ATOM      5  C   UNL     1       3.081   4.256  19.349  0.00  0.00    +0.000 C 
ATOM      6  C   UNL     1       2.604   3.516  18.076  0.00  0.00    +0.000 C 
ATOM      7  C   UNL     1       1.536   2.466  18.429  0.00  0.00    +0.000 C 
ATOM      8  C   UNL     1       2.135   1.438  19.403  0.00  0.00    +0.000 C 
ATOM      9  C   UNL     1       2.596   2.143  20.688  0.00  0.00    +0.000 C 
ATOM     10  C   UNL     1       1.394   2.838  21.346  0.00  0.00    +0.000 C 
ATOM     11  C   UNL     1       0.794   3.876  20.384  0.00  0.00    +0.000 C 
ATOM     12  C   UNL     1       0.341   3.166  19.097  0.00  0.00    +0.000 C 
ATOM     13  C   UNL     1       1.864   4.925  20.036  0.00  0.00    +0.000 C 
ATOM     14  C   UNL     1       3.655   3.198  20.331  0.00  0.00    +0.000 C 
ENDBRANCH   3   5
BRANCH   2  15
ATOM     15  C   UNL     1       6.318   6.040  18.284  0.00  0.00    +0.000 A 
ATOM     16  C   UNL     1       7.451   6.220  19.092  0.00  0.00    +0.000 A 
ATOM     17  C   UNL     1       8.382   7.210  18.783  0.00  0.00    +0.000 A 
ATOM     18  C   UNL     1       8.151   7.997  17.668  0.00  0.00    +0.000 A 
ATOM     19  N   UNL     1       7.066   7.871  16.878  0.00  0.00    +0.000 NA
ATOM     20  C   UNL     1       6.179   6.893  17.198  0.00  0.00    +0.000 A 
ATOM     21 CL   UNL     1       4.879   6.834  16.067  0.00  0.00    +0.000 Cl
ENDBRANCH   2  15
TORSDOF 2
ENDMDL
MODEL 9
REMARK VINA RESULT:      -7.2      2.118      2.596
REMARK  Name = 
REMARK  2 active torsions:
REMARK  status: ('A' for Active; 'I' for Inactive)
REMARK    1  A    between atoms: C_2  and  C_14
REMARK    2  A    between atoms: N_3  and  C_4
REMARK                            x       y       z     vdW  Elec       q    Type
REMARK                         _______ _______ _______ _____ _____    ______ ____
ROOT
ATOM      1  O   UNL     1       5.893   3.818  18.578  0.00  0.00    +0.000 OA
ATOM      2  C   UNL     1       5.470   4.964  18.698  0.00  0.00    +0.000 C 
ATOM      3  N   UNL     1       4.220   5.270  19.193  0.00  0.00    +0.000 N 
ATOM      4  H   UNL     1       3.929   6.241  19.183  0.00  0.00    +0.000 HD
ENDROOT
BRANCH   3   5
ATOM      5  C   UNL     1       3.183   4.285  19.528  0.00  0.00    +0.000 C 
ATOM      6  C   UNL     1       2.122   4.867  20.496  0.00  0.00    +0.000 C 
ATOM      7  C   UNL     1       1.027   3.826  20.786  0.00  0.00    +0.000 C 
ATOM      8  C   UNL     1       0.335   3.435  19.471  0.00  0.00    +0.000 C 
ATOM      9  C   UNL     1       1.361   2.832  18.498  0.00  0.00    +0.000 C 
ATOM     10  C   UNL     1       1.995   1.586  19.137  0.00  0.00    +0.000 C 
ATOM     11  C   UNL     1       2.700   1.969  20.449  0.00  0.00    +0.000 C 
ATOM     12  C   UNL     1       1.670   2.578  21.415  0.00  0.00    +0.000 C 
ATOM     13  C   UNL     1       3.797   3.007  20.153  0.00  0.00    +0.000 C 
ATOM     14  C   UNL     1       2.459   3.869  18.218  0.00  0.00    +0.000 C 
ENDBRANCH   3   5
BRANCH   2  15
ATOM     15  C   UNL     1       6.361   6.090  18.329  0.00  0.00    +0.000 A 
ATOM     16  C   UNL     1       7.505   6.297  19.116  0.00  0.00    +0.000 A 
ATOM     17  C   UNL     1       8.417   7.293  18.777  0.00  0.00    +0.000 A 
ATOM     18  C   UNL     1       8.158   8.060  17.654  0.00  0.00    +0.000 A 
ATOM     19  N   UNL     1       7.063   7.908  16.884  0.00  0.00    +0.000 NA
ATOM     20  C   UNL     1       6.193   6.924  17.233  0.00  0.00    +0.000 A 
ATOM     21 CL   UNL     1       4.877   6.831  16.124  0.00  0.00    +0.000 Cl
ENDBRANCH   2  15
TORSDOF 2
ENDMDL
