MODEL 1
REMARK VINA RESULT:      -8.4      0.000      0.000
REMARK  Name = 
REMARK  3 active torsions:
REMARK  status: ('A' for Active; 'I' for Inactive)
REMARK    1  A    between atoms: C_4  and  C_6
REMARK    2  A    between atoms: N_16  and  C_17
REMARK    3  A    between atoms: C_20  and  N_21
REMARK                            x       y       z     vdW  Elec       q    Type
REMARK                         _______ _______ _______ _____ _____    ______ ____
ROOT
ATOM      1  O   UNL     1       8.315   5.395  19.386  0.00  0.00    +0.000 OA
ATOM      2  C   UNL     1       7.827   6.323  18.745  0.00  0.00    +0.000 C 
ATOM      3  N   UNL     1       8.480   7.536  18.727  0.00  0.00    +0.000 N 
ATOM      4  C   UNL     1       8.070   8.707  18.124  0.00  0.00    +0.000 C 
ATOM      5  O   UNL     1       7.082   8.774  17.391  0.00  0.00    +0.000 OA
ATOM      6  N   UNL     1       6.659   6.278  18.019  0.00  0.00    +0.000 N 
ATOM      7  H   UNL     1       9.317   7.579  19.296  0.00  0.00    +0.000 HD
ATOM      8  H   UNL     1       6.482   7.088  17.428  0.00  0.00    +0.000 HD
ENDROOT
BRANCH   4   9
ATOM      9  C   UNL     1       8.888   9.863  18.404  0.00  0.00    +0.000 A 
ATOM     10  N   UNL     1       9.198  10.833  17.563  0.00  0.00    +0.000 NA
ATOM     11  C   UNL     1      10.002  11.693  18.287  0.00  0.00    +0.000 A 
ATOM     12  C   UNL     1      10.612  12.900  17.912  0.00  0.00    +0.000 A 
ATOM     13  C   UNL     1      11.392  13.570  18.865  0.00  0.00    +0.000 A 
ATOM     14 CL   UNL     1      12.151  15.059  18.443  0.00  0.00    +0.000 Cl
ATOM     15  C   UNL     1      11.570  13.065  20.156  0.00  0.00    +0.000 A 
ATOM     16  C   UNL     1      10.962  11.870  20.547  0.00  0.00    +0.000 A 
ATOM     17  C   UNL     1      10.186  11.225  19.584  0.00  0.00    +0.000 A 
ATOM     18  N   UNL     1       9.452  10.075  19.635  0.00  0.00    +0.000 N 
ATOM     19  H   UNL     1       9.337   9.460  20.429  0.00  0.00    +0.000 HD
ENDBRANCH   4   9
BRANCH   6  20
ATOM     20  C   UNL     1       5.710   5.243  17.959  0.00  0.00    +0.000 A 
ATOM     21  C   UNL     1       5.509   4.452  16.825  0.00  0.00    +0.000 A 
ATOM     22  C   UNL     1       4.586   3.399  16.847  0.00  0.00    +0.000 A 
ATOM     23  C   UNL     1       3.855   3.143  18.011  0.00  0.00    +0.000 A 
ATOM     24  C   UNL     1       4.030   3.939  19.148  0.00  0.00    +0.000 A 
ATOM     25  C   UNL     1       4.967   4.978  19.119  0.00  0.00    +0.000 A 
BRANCH  23  26
ATOM     26  N   UNL     1       2.907   2.021  18.043  0.00  0.00    +0.000 N 
ATOM     27  O   UNL     1       3.266   0.978  18.606  0.00  0.00    +0.000 OA
ATOM     28  O   UNL     1       1.798   2.189  17.514  0.00  0.00    +0.000 OA
ENDBRANCH  23  26
ENDBRANCH   6  20
TORSDOF 3
ENDMDL
MODEL 2
REMARK VINA RESULT:      -8.3      0.279      1.178
REMARK  Name = 
REMARK  3 active torsions:
REMARK  status: ('A' for Active; 'I' for Inactive)
REMARK    1  A    between atoms: C_4  and  C_6
REMARK    2  A    between atoms: N_16  and  C_17
REMARK    3  A    between atoms: C_20  and  N_21
REMARK                            x       y       z     vdW  Elec       q    Type
REMARK                         _______ _______ _______ _____ _____    ______ ____
ROOT
ATOM      1  O   UNL     1       8.389   5.551  19.716  0.00  0.00    +0.000 OA
ATOM      2  C   UNL     1       7.912   6.411  18.980  0.00  0.00    +0.000 C 
ATOM      3  N   UNL     1       8.537   7.636  18.892  0.00  0.00    +0.000 N 
ATOM      4  C   UNL     1       8.130   8.743  18.178  0.00  0.00    +0.000 C 
ATOM      5  O   UNL     1       7.178   8.725  17.397  0.00  0.00    +0.000 OA
ATOM      6  N   UNL     1       6.782   6.277  18.207  0.00  0.00    +0.000 N 
ATOM      7  H   UNL     1       9.345   7.746  19.494  0.00  0.00    +0.000 HD
ATOM      8  H   UNL     1       6.615   7.032  17.545  0.00  0.00    +0.000 HD
ENDROOT
BRANCH   4   9
ATOM      9  C   UNL     1       8.908   9.938  18.400  0.00  0.00    +0.000 A 
ATOM     10  N   UNL     1       8.978  10.993  17.608  0.00  0.00    +0.000 NA
ATOM     11  C   UNL     1       9.851  11.860  18.239  0.00  0.00    +0.000 A 
ATOM     12  C   UNL     1      10.290  13.139  17.866  0.00  0.00    +0.000 A 
ATOM     13  C   UNL     1      11.199  13.797  18.708  0.00  0.00    +0.000 A 
ATOM     14 CL   UNL     1      11.755  15.373  18.286  0.00  0.00    +0.000 Cl
ATOM     15  C   UNL     1      11.664  13.210  19.887  0.00  0.00    +0.000 A 
ATOM     16  C   UNL     1      11.229  11.942  20.277  0.00  0.00    +0.000 A 
ATOM     17  C   UNL     1      10.322  11.310  19.427  0.00  0.00    +0.000 A 
ATOM     18  N   UNL     1       9.692  10.101  19.513  0.00  0.00    +0.000 N 
ATOM     19  H   UNL     1       9.780   9.420  20.254  0.00  0.00    +0.000 HD
ENDBRANCH   4   9
BRANCH   6  20
ATOM     20  C   UNL     1       5.859   5.216  18.188  0.00  0.00    +0.000 A 
ATOM     21  C   UNL     1       5.165   4.784  19.321  0.00  0.00    +0.000 A 
ATOM     22  C   UNL     1       4.216   3.758  19.225  0.00  0.00    +0.000 A 
ATOM     23  C   UNL     1       3.970   3.157  17.987  0.00  0.00    +0.000 A 
ATOM     24  C   UNL     1       4.672   3.565  16.848  0.00  0.00    +0.000 A 
ATOM     25  C   UNL     1       5.605   4.602  16.953  0.00  0.00    +0.000 A 
BRANCH  23  26
ATOM     26  N   UNL     1       2.955   2.099  17.882  0.00  0.00    +0.000 N 
ATOM     27  O   UNL     1       1.946   2.333  17.202  0.00  0.00    +0.000 OA
ATOM     28  O   UNL     1       3.174   1.031  18.472  0.00  0.00    +0.000 OA
ENDBRANCH  23  26
ENDBRANCH   6  20
TORSDOF 3
ENDMDL
MODEL 3
REMARK VINA RESULT:      -7.7      0.726      1.370
REMARK  Name = 
REMARK  3 active torsions:
REMARK  status: ('A' for Active; 'I' for Inactive)
REMARK    1  A    between atoms: C_4  and  C_6
REMARK    2  A    between atoms: N_16  and  C_17
REMARK    3  A    between atoms: C_20  and  N_21
REMARK                            x       y       z     vdW  Elec       q    Type
REMARK                         _______ _______ _______ _____ _____    ______ ____
ROOT
ATOM      1  O   UNL     1       8.400   5.603  19.560  0.00  0.00    +0.000 OA
ATOM      2  C   UNL     1       7.947   6.497  18.849  0.00  0.00    +0.000 C 
ATOM      3  N   UNL     1       8.582   7.719  18.828  0.00  0.00    +0.000 N 
ATOM      4  C   UNL     1       8.200   8.858  18.151  0.00  0.00    +0.000 C 
ATOM      5  O   UNL     1       7.266   8.880  17.347  0.00  0.00    +0.000 OA
ATOM      6  N   UNL     1       6.835   6.403  18.044  0.00  0.00    +0.000 N 
ATOM      7  H   UNL     1       9.375   7.798  19.453  0.00  0.00    +0.000 HD
ATOM      8  H   UNL     1       6.689   7.187  17.410  0.00  0.00    +0.000 HD
ENDROOT
BRANCH   4   9
ATOM      9  C   UNL     1       8.980  10.038  18.442  0.00  0.00    +0.000 A 
ATOM     10  N   UNL     1       8.889  10.798  19.518  0.00  0.00    +0.000 NA
ATOM     11  C   UNL     1       9.824  11.800  19.330  0.00  0.00    +0.000 A 
ATOM     12  C   UNL     1      10.179  12.879  20.153  0.00  0.00    +0.000 A 
ATOM     13  C   UNL     1      11.173  13.758  19.699  0.00  0.00    +0.000 A 
ATOM     14 CL   UNL     1      11.639  15.091  20.688  0.00  0.00    +0.000 Cl
ATOM     15  C   UNL     1      11.801  13.581  18.464  0.00  0.00    +0.000 A 
ATOM     16  C   UNL     1      11.466  12.506  17.637  0.00  0.00    +0.000 A 
ATOM     17  C   UNL     1      10.480  11.643  18.113  0.00  0.00    +0.000 A 
ATOM     18  N   UNL     1       9.938  10.507  17.582  0.00  0.00    +0.000 N 
ATOM     19  H   UNL     1      10.178  10.072  16.702  0.00  0.00    +0.000 HD
ENDBRANCH   4   9
BRANCH   6  20
ATOM     20  C   UNL     1       5.906   5.351  17.958  0.00  0.00    +0.000 A 
ATOM     21  C   UNL     1       5.489   4.794  16.747  0.00  0.00    +0.000 A 
ATOM     22  C   UNL     1       4.604   3.709  16.731  0.00  0.00    +0.000 A 
ATOM     23  C   UNL     1       4.128   3.186  17.937  0.00  0.00    +0.000 A 
ATOM     24  C   UNL     1       4.521   3.746  19.158  0.00  0.00    +0.000 A 
ATOM     25  C   UNL     1       5.419   4.819  19.161  0.00  0.00    +0.000 A 
BRANCH  23  26
ATOM     26  N   UNL     1       3.221   2.030  17.921  0.00  0.00    +0.000 N 
ATOM     27  O   UNL     1       2.170   2.131  17.273  0.00  0.00    +0.000 OA
ATOM     28  O   UNL     1       3.566   1.018  18.549  0.00  0.00    +0.000 OA
ENDBRANCH  23  26
ENDBRANCH   6  20
TORSDOF 3
ENDMDL
MODEL 4
REMARK VINA RESULT:      -7.7      0.651      1.704
REMARK  Name = 
REMARK  3 active torsions:
REMARK  status: ('A' for Active; 'I' for Inactive)
REMARK    1  A    between atoms: C_4  and  C_6
REMARK    2  A    between atoms: N_16  and  C_17
REMARK    3  A    between atoms: C_20  and  N_21
REMARK                            x       y       z     vdW  Elec       q    Type
REMARK                         _______ _______ _______ _____ _____    ______ ____
ROOT
ATOM      1  O   UNL     1       8.434   5.610  19.784  0.00  0.00    +0.000 OA
ATOM      2  C   UNL     1       7.979   6.455  19.017  0.00  0.00    +0.000 C 
ATOM      3  N   UNL     1       8.603   7.680  18.929  0.00  0.00    +0.000 N 
ATOM      4  C   UNL     1       8.217   8.773  18.182  0.00  0.00    +0.000 C 
ATOM      5  O   UNL     1       7.292   8.737  17.370  0.00  0.00    +0.000 OA
ATOM      6  N   UNL     1       6.876   6.302  18.209  0.00  0.00    +0.000 N 
ATOM      7  H   UNL     1       9.390   7.803  19.556  0.00  0.00    +0.000 HD
ATOM      8  H   UNL     1       6.730   7.045  17.528  0.00  0.00    +0.000 HD
ENDROOT
BRANCH   4   9
ATOM      9  C   UNL     1       8.983   9.975  18.409  0.00  0.00    +0.000 A 
ATOM     10  N   UNL     1       9.142  10.604  19.560  0.00  0.00    +0.000 NA
ATOM     11  C   UNL     1       9.939  11.695  19.266  0.00  0.00    +0.000 A 
ATOM     12  C   UNL     1      10.442  12.705  20.100  0.00  0.00    +0.000 A 
ATOM     13  C   UNL     1      11.232  13.708  19.520  0.00  0.00    +0.000 A 
ATOM     14 CL   UNL     1      11.874  14.961  20.516  0.00  0.00    +0.000 Cl
ATOM     15  C   UNL     1      11.518  13.719  18.153  0.00  0.00    +0.000 A 
ATOM     16  C   UNL     1      11.032  12.716  17.311  0.00  0.00    +0.000 A 
ATOM     17  C   UNL     1      10.255  11.726  17.911  0.00  0.00    +0.000 A 
ATOM     18  N   UNL     1       9.653  10.614  17.398  0.00  0.00    +0.000 N 
ATOM     19  H   UNL     1       9.672  10.299  16.438  0.00  0.00    +0.000 HD
ENDBRANCH   4   9
BRANCH   6  20
ATOM     20  C   UNL     1       5.958   5.238  18.177  0.00  0.00    +0.000 A 
ATOM     21  C   UNL     1       5.384   4.687  19.325  0.00  0.00    +0.000 A 
ATOM     22  C   UNL     1       4.433   3.664  19.224  0.00  0.00    +0.000 A 
ATOM     23  C   UNL     1       4.062   3.187  17.963  0.00  0.00    +0.000 A 
ATOM     24  C   UNL     1       4.643   3.714  16.805  0.00  0.00    +0.000 A 
ATOM     25  C   UNL     1       5.580   4.747  16.919  0.00  0.00    +0.000 A 
BRANCH  23  26
ATOM     26  N   UNL     1       3.043   2.133  17.855  0.00  0.00    +0.000 N 
ATOM     27  O   UNL     1       2.045   2.364  17.160  0.00  0.00    +0.000 OA
ATOM     28  O   UNL     1       3.249   1.070  18.459  0.00  0.00    +0.000 OA
ENDBRANCH  23  26
ENDBRANCH   6  20
TORSDOF 3
ENDMDL
MODEL 5
REMARK VINA RESULT:      -7.4      9.037     11.154
REMARK  Name = 
REMARK  3 active torsions:
REMARK  status: ('A' for Active; 'I' for Inactive)
REMARK    1  A    between atoms: C_4  and  C_6
REMARK    2  A    between atoms: N_16  and  C_17
REMARK    3  A    between atoms: C_20  and  N_21
REMARK                            x       y       z     vdW  Elec       q    Type
REMARK                         _______ _______ _______ _____ _____    ______ ____
ROOT
ATOM      1  O   UNL     1       0.308   9.726  23.801  0.00  0.00    +0.000 OA
ATOM      2  C   UNL     1       0.210   9.895  22.588  0.00  0.00    +0.000 C 
ATOM      3  N   UNL     1       0.841   9.012  21.739  0.00  0.00    +0.000 N 
ATOM      4  C   UNL     1       0.903   9.062  20.362  0.00  0.00    +0.000 C 
ATOM      5  O   UNL     1       0.265   9.875  19.691  0.00  0.00    +0.000 OA
ATOM      6  N   UNL     1      -0.486  10.905  21.967  0.00  0.00    +0.000 N 
ATOM      7  H   UNL     1       1.387   8.293  22.200  0.00  0.00    +0.000 HD
ATOM      8  H   UNL     1      -0.588  10.808  20.958  0.00  0.00    +0.000 HD
ENDROOT
BRANCH   4   9
ATOM      9  C   UNL     1       1.767   8.082  19.749  0.00  0.00    +0.000 A 
ATOM     10  N   UNL     1       2.312   8.152  18.547  0.00  0.00    +0.000 NA
ATOM     11  C   UNL     1       3.038   6.983  18.413  0.00  0.00    +0.000 A 
ATOM     12  C   UNL     1       3.832   6.522  17.352  0.00  0.00    +0.000 A 
ATOM     13  C   UNL     1       4.456   5.274  17.488  0.00  0.00    +0.000 A 
ATOM     14 CL   UNL     1       5.446   4.679  16.207  0.00  0.00    +0.000 Cl
ATOM     15  C   UNL     1       4.302   4.497  18.638  0.00  0.00    +0.000 A 
ATOM     16  C   UNL     1       3.522   4.946  19.707  0.00  0.00    +0.000 A 
ATOM     17  C   UNL     1       2.917   6.192  19.552  0.00  0.00    +0.000 A 
ATOM     18  N   UNL     1       2.123   6.923  20.388  0.00  0.00    +0.000 N 
ATOM     19  H   UNL     1       1.824   6.670  21.320  0.00  0.00    +0.000 HD
ENDBRANCH   4   9
BRANCH   6  20
ATOM     20  C   UNL     1      -1.106  12.025  22.551  0.00  0.00    +0.000 A 
ATOM     21  C   UNL     1      -0.530  13.297  22.569  0.00  0.00    +0.000 A 
ATOM     22  C   UNL     1      -1.223  14.383  23.116  0.00  0.00    +0.000 A 
ATOM     23  C   UNL     1      -2.498  14.190  23.655  0.00  0.00    +0.000 A 
ATOM     24  C   UNL     1      -3.080  12.918  23.662  0.00  0.00    +0.000 A 
ATOM     25  C   UNL     1      -2.385  11.844  23.098  0.00  0.00    +0.000 A 
BRANCH  23  26
ATOM     26  N   UNL     1      -3.237  15.335  24.205  0.00  0.00    +0.000 N 
ATOM     27  O   UNL     1      -4.465  15.228  24.322  0.00  0.00    +0.000 OA
ATOM     28  O   UNL     1      -2.585  16.339  24.529  0.00  0.00    +0.000 OA
ENDBRANCH  23  26
ENDBRANCH   6  20
TORSDOF 3
ENDMDL
MODEL 6
REMARK VINA RESULT:      -7.4      8.882     11.114
REMARK  Name = 
REMARK  3 active torsions:
REMARK  status: ('A' for Active; 'I' for Inactive)
REMARK    1  A    between atoms: C_4  and  C_6
REMARK    2  A    between atoms: N_16  and  C_17
REMARK    3  A    between atoms: C_20  and  N_21
REMARK                            x       y       z     vdW  Elec       q    Type
REMARK                         _______ _______ _______ _____ _____    ______ ____
ROOT
ATOM      1  O   UNL     1       0.349   9.678  23.746  0.00  0.00    +0.000 OA
ATOM      2  C   UNL     1       0.260   9.816  22.529  0.00  0.00    +0.000 C 
ATOM      3  N   UNL     1       0.895   8.911  21.707  0.00  0.00    +0.000 N 
ATOM      4  C   UNL     1       0.967   8.926  20.330  0.00  0.00    +0.000 C 
ATOM      5  O   UNL     1       0.336   9.723  19.634  0.00  0.00    +0.000 OA
ATOM      6  N   UNL     1      -0.430  10.812  21.877  0.00  0.00    +0.000 N 
ATOM      7  H   UNL     1       1.437   8.204  22.190  0.00  0.00    +0.000 HD
ATOM      8  H   UNL     1      -0.524  10.689  20.871  0.00  0.00    +0.000 HD
ENDROOT
BRANCH   4   9
ATOM      9  C   UNL     1       1.834   7.930  19.748  0.00  0.00    +0.000 A 
ATOM     10  N   UNL     1       2.401   7.976  18.555  0.00  0.00    +0.000 NA
ATOM     11  C   UNL     1       3.119   6.799  18.452  0.00  0.00    +0.000 A 
ATOM     12  C   UNL     1       3.928   6.315  17.413  0.00  0.00    +0.000 A 
ATOM     13  C   UNL     1       4.540   5.064  17.580  0.00  0.00    +0.000 A 
ATOM     14 CL   UNL     1       5.546   4.441  16.327  0.00  0.00    +0.000 Cl
ATOM     15  C   UNL     1       4.358   4.307  18.740  0.00  0.00    +0.000 A 
ATOM     16  C   UNL     1       3.564   4.779  19.787  0.00  0.00    +0.000 A 
ATOM     17  C   UNL     1       2.972   6.027  19.601  0.00  0.00    +0.000 A 
ATOM     18  N   UNL     1       2.169   6.778  20.411  0.00  0.00    +0.000 N 
ATOM     19  H   UNL     1       1.852   6.543  21.342  0.00  0.00    +0.000 HD
ENDBRANCH   4   9
BRANCH   6  20
ATOM     20  C   UNL     1      -1.051  11.947  22.428  0.00  0.00    +0.000 A 
ATOM     21  C   UNL     1      -2.268  11.898  23.111  0.00  0.00    +0.000 A 
ATOM     22  C   UNL     1      -2.808  13.055  23.687  0.00  0.00    +0.000 A 
ATOM     23  C   UNL     1      -2.126  14.269  23.567  0.00  0.00    +0.000 A 
ATOM     24  C   UNL     1      -0.916  14.339  22.869  0.00  0.00    +0.000 A 
ATOM     25  C   UNL     1      -0.379  13.173  22.313  0.00  0.00    +0.000 A 
BRANCH  23  26
ATOM     26  N   UNL     1      -2.679  15.478  24.194  0.00  0.00    +0.000 N 
ATOM     27  O   UNL     1      -3.516  15.329  25.095  0.00  0.00    +0.000 OA
ATOM     28  O   UNL     1      -2.267  16.576  23.791  0.00  0.00    +0.000 OA
ENDBRANCH  23  26
ENDBRANCH   6  20
TORSDOF 3
ENDMDL
MODEL 7
REMARK VINA RESULT:      -7.3      9.382     11.663
REMARK  Name = 
REMARK  3 active torsions:
REMARK  status: ('A' for Active; 'I' for Inactive)
REMARK    1  A    between atoms: C_4  and  C_6
REMARK    2  A    between atoms: N_16  and  C_17
REMARK    3  A    between atoms: C_20  and  N_21
REMARK                            x       y       z     vdW  Elec       q    Type
REMARK                         _______ _______ _______ _____ _____    ______ ____
ROOT
ATOM      1  O   UNL     1      -1.308  11.513  19.751  0.00  0.00    +0.000 OA
ATOM      2  C   UNL     1      -0.575  11.002  20.593  0.00  0.00    +0.000 C 
ATOM      3  N   UNL     1       0.206   9.926  20.231  0.00  0.00    +0.000 N 
ATOM      4  C   UNL     1       1.041   9.180  21.036  0.00  0.00    +0.000 C 
ATOM      5  O   UNL     1       1.294   9.481  22.203  0.00  0.00    +0.000 OA
ATOM      6  N   UNL     1      -0.444  11.403  21.903  0.00  0.00    +0.000 N 
ATOM      7  H   UNL     1       0.077   9.606  19.278  0.00  0.00    +0.000 HD
ATOM      8  H   UNL     1       0.317  10.966  22.418  0.00  0.00    +0.000 HD
ENDROOT
BRANCH   4   9
ATOM      9  C   UNL     1       1.616   8.012  20.412  0.00  0.00    +0.000 A 
ATOM     10  N   UNL     1       2.135   7.939  19.199  0.00  0.00    +0.000 NA
ATOM     11  C   UNL     1       2.537   6.624  19.058  0.00  0.00    +0.000 A 
ATOM     12  C   UNL     1       3.166   5.975  17.985  0.00  0.00    +0.000 A 
ATOM     13  C   UNL     1       3.456   4.610  18.116  0.00  0.00    +0.000 A 
ATOM     14 CL   UNL     1       4.235   3.781  16.821  0.00  0.00    +0.000 Cl
ATOM     15  C   UNL     1       3.134   3.899  19.275  0.00  0.00    +0.000 A 
ATOM     16  C   UNL     1       2.516   4.532  20.356  0.00  0.00    +0.000 A 
ATOM     17  C   UNL     1       2.243   5.891  20.204  0.00  0.00    +0.000 A 
ATOM     18  N   UNL     1       1.679   6.801  21.051  0.00  0.00    +0.000 N 
ATOM     19  H   UNL     1       1.346   6.633  21.991  0.00  0.00    +0.000 HD
ENDBRANCH   4   9
BRANCH   6  20
ATOM     20  C   UNL     1      -1.198  12.364  22.599  0.00  0.00    +0.000 A 
ATOM     21  C   UNL     1      -0.783  13.686  22.771  0.00  0.00    +0.000 A 
ATOM     22  C   UNL     1      -1.605  14.611  23.427  0.00  0.00    +0.000 A 
ATOM     23  C   UNL     1      -2.849  14.203  23.920  0.00  0.00    +0.000 A 
ATOM     24  C   UNL     1      -3.270  12.877  23.773  0.00  0.00    +0.000 A 
ATOM     25  C   UNL     1      -2.446  11.967  23.102  0.00  0.00    +0.000 A 
BRANCH  23  26
ATOM     26  N   UNL     1      -3.723  15.179  24.583  0.00  0.00    +0.000 N 
ATOM     27  O   UNL     1      -4.884  15.293  24.164  0.00  0.00    +0.000 OA
ATOM     28  O   UNL     1      -3.252  15.824  25.531  0.00  0.00    +0.000 OA
ENDBRANCH  23  26
ENDBRANCH   6  20
TORSDOF 3
ENDMDL
MODEL 8
REMARK VINA RESULT:      -7.3      7.541      8.784
REMARK  Name = 
REMARK  3 active torsions:
REMARK  status: ('A' for Active; 'I' for Inactive)
REMARK    1  A    between atoms: C_4  and  C_6
REMARK    2  A    between atoms: N_16  and  C_17
REMARK    3  A    between atoms: C_20  and  N_21
REMARK                            x       y       z     vdW  Elec       q    Type
REMARK                         _______ _______ _______ _____ _____    ______ ____
ROOT
ATOM      1  O   UNL     1       1.917   8.983  17.069  0.00  0.00    +0.000 OA
ATOM      2  C   UNL     1       1.877   8.633  18.245  0.00  0.00    +0.000 C 
ATOM      3  N   UNL     1       1.140   9.380  19.139  0.00  0.00    +0.000 N 
ATOM      4  C   UNL     1       1.018   9.190  20.499  0.00  0.00    +0.000 C 
ATOM      5  O   UNL     1       1.477   8.208  21.084  0.00  0.00    +0.000 OA
ATOM      6  N   UNL     1       2.509   7.536  18.784  0.00  0.00    +0.000 N 
ATOM      7  H   UNL     1       0.710  10.210  18.747  0.00  0.00    +0.000 HD
ATOM      8  H   UNL     1       2.245   7.308  19.741  0.00  0.00    +0.000 HD
ENDROOT
BRANCH   4   9
ATOM      9  C   UNL     1       0.300  10.226  21.203  0.00  0.00    +0.000 A 
ATOM     10  N   UNL     1      -0.775  10.071  21.955  0.00  0.00    +0.000 NA
ATOM     11  C   UNL     1      -1.093  11.342  22.395  0.00  0.00    +0.000 A 
ATOM     12  C   UNL     1      -2.128  11.781  23.234  0.00  0.00    +0.000 A 
ATOM     13  C   UNL     1      -2.217  13.153  23.511  0.00  0.00    +0.000 A 
ATOM     14 CL   UNL     1      -3.471  13.729  24.544  0.00  0.00    +0.000 Cl
ATOM     15  C   UNL     1      -1.311  14.071  22.973  0.00  0.00    +0.000 A 
ATOM     16  C   UNL     1      -0.270  13.649  22.144  0.00  0.00    +0.000 A 
ATOM     17  C   UNL     1      -0.198  12.280  21.888  0.00  0.00    +0.000 A 
ATOM     18  N   UNL     1       0.684  11.541  21.153  0.00  0.00    +0.000 N 
ATOM     19  H   UNL     1       1.486  11.883  20.641  0.00  0.00    +0.000 HD
ENDBRANCH   4   9
BRANCH   6  20
ATOM     20  C   UNL     1       3.433   6.672  18.170  0.00  0.00    +0.000 A 
ATOM     21  C   UNL     1       3.143   5.346  17.843  0.00  0.00    +0.000 A 
ATOM     22  C   UNL     1       4.088   4.554  17.180  0.00  0.00    +0.000 A 
ATOM     23  C   UNL     1       5.335   5.094  16.850  0.00  0.00    +0.000 A 
ATOM     24  C   UNL     1       5.647   6.415  17.188  0.00  0.00    +0.000 A 
ATOM     25  C   UNL     1       4.689   7.201  17.836  0.00  0.00    +0.000 A 
BRANCH  23  26
ATOM     26  N   UNL     1       6.316   4.271  16.130  0.00  0.00    +0.000 N 
ATOM     27  O   UNL     1       5.895   3.294  15.495  0.00  0.00    +0.000 OA
ATOM     28  O   UNL     1       7.507   4.609  16.193  0.00  0.00    +0.000 OA
ENDBRANCH  23  26
ENDBRANCH   6  20
TORSDOF 3
ENDMDL
MODEL 9
REMARK VINA RESULT:      -7.3      7.544     11.136
REMARK  Name = 
REMARK  3 active torsions:
REMARK  status: ('A' for Active; 'I' for Inactive)
REMARK    1  A    between atoms: C_4  and  C_6
REMARK    2  A    between atoms: N_16  and  C_17
REMARK    3  A    between atoms: C_20  and  N_21
REMARK                            x       y       z     vdW  Elec       q    Type
REMARK                         _______ _______ _______ _____ _____    ______ ____
ROOT
ATOM      1  O   UNL     1       0.072  11.136  20.618  0.00  0.00    +0.000 OA
ATOM      2  C   UNL     1       0.759  10.783  19.664  0.00  0.00    +0.000 C 
ATOM      3  N   UNL     1       1.081   9.450  19.532  0.00  0.00    +0.000 N 
ATOM      4  C   UNL     1       1.884   8.866  18.575  0.00  0.00    +0.000 C 
ATOM      5  O   UNL     1       2.329   9.482  17.605  0.00  0.00    +0.000 OA
ATOM      6  N   UNL     1       1.257  11.604  18.679  0.00  0.00    +0.000 N 
ATOM      7  H   UNL     1       0.748   8.855  20.281  0.00  0.00    +0.000 HD
ATOM      8  H   UNL     1       1.677  11.125  17.884  0.00  0.00    +0.000 HD
ENDROOT
BRANCH   4   9
ATOM      9  C   UNL     1       2.166   7.465  18.780  0.00  0.00    +0.000 A 
ATOM     10  N   UNL     1       2.483   6.579  17.852  0.00  0.00    +0.000 NA
ATOM     11  C   UNL     1       2.645   5.387  18.533  0.00  0.00    +0.000 A 
ATOM     12  C   UNL     1       2.996   4.112  18.064  0.00  0.00    +0.000 A 
ATOM     13  C   UNL     1       3.081   3.066  18.994  0.00  0.00    +0.000 A 
ATOM     14 CL   UNL     1       3.518   1.488  18.456  0.00  0.00    +0.000 Cl
ATOM     15  C   UNL     1       2.824   3.269  20.353  0.00  0.00    +0.000 A 
ATOM     16  C   UNL     1       2.482   4.534  20.836  0.00  0.00    +0.000 A 
ATOM     17  C   UNL     1       2.410   5.559  19.894  0.00  0.00    +0.000 A 
ATOM     18  N   UNL     1       2.129   6.889  20.023  0.00  0.00    +0.000 N 
ATOM     19  H   UNL     1       1.916   7.386  20.876  0.00  0.00    +0.000 HD
ENDBRANCH   4   9
BRANCH   6  20
ATOM     20  C   UNL     1       1.222  13.008  18.613  0.00  0.00    +0.000 A 
ATOM     21  C   UNL     1       0.036  13.745  18.618  0.00  0.00    +0.000 A 
ATOM     22  C   UNL     1       0.069  15.145  18.608  0.00  0.00    +0.000 A 
ATOM     23  C   UNL     1       1.300  15.808  18.584  0.00  0.00    +0.000 A 
ATOM     24  C   UNL     1       2.496  15.083  18.558  0.00  0.00    +0.000 A 
ATOM     25  C   UNL     1       2.450  13.686  18.585  0.00  0.00    +0.000 A 
BRANCH  23  26
ATOM     26  N   UNL     1       1.335  17.277  18.601  0.00  0.00    +0.000 N 
ATOM     27  O   UNL     1       1.931  17.851  17.678  0.00  0.00    +0.000 OA
ATOM     28  O   UNL     1       0.756  17.857  19.532  0.00  0.00    +0.000 OA
ENDBRANCH  23  26
ENDBRANCH   6  20
TORSDOF 3
ENDMDL
