MODEL 1
REMARK VINA RESULT:      -8.2      0.000      0.000
REMARK  Name = 
REMARK  9 active torsions:
REMARK  status: ('A' for Active; 'I' for Inactive)
REMARK    1  A    between atoms: C_1  and  C_2
REMARK    2  A    between atoms: C_2  and  C_3
REMARK    3  A    between atoms: C_3  and  C_4
REMARK    4  A    between atoms: N_6  and  C_7
REMARK    5  A    between atoms: N_17  and  N_18
REMARK    6  A    between atoms: C_19  and  C_21
REMARK    7  A    between atoms: C_21  and  O_22
REMARK    8  A    between atoms: O_22  and  C_23
REMARK    9  A    between atoms: C_28  and  C_29
REMARK                            x       y       z     vdW  Elec       q    Type
REMARK                         _______ _______ _______ _____ _____    ______ ____
ROOT
ATOM      1  C   UNL     1       1.673   5.200  17.892  0.00  0.00    +0.000 C 
ATOM      2  C   UNL     1       2.709   6.030  18.612  0.00  0.00    +0.000 C 
ATOM      3  N   UNL     1       3.227   5.786  19.781  0.00  0.00    +0.000 NA
ENDROOT
BRANCH   3   4
ATOM      4  N   UNL     1       2.744   4.754  20.536  0.00  0.00    +0.000 N 
ATOM      5  C   UNL     1       3.265   3.482  20.583  0.00  0.00    +0.000 C 
ATOM      6  O   UNL     1       3.046   2.790  21.583  0.00  0.00    +0.000 OA
ATOM      7  H   UNL     1       2.447   5.031  21.471  0.00  0.00    +0.000 HD
BRANCH   5   8
ATOM      8  C   UNL     1       4.069   2.945  19.418  0.00  0.00    +0.000 C 
BRANCH   8   9
ATOM      9  O   UNL     1       5.295   3.675  19.330  0.00  0.00    +0.000 OA
BRANCH   9  10
ATOM     10  C   UNL     1       5.632   4.226  18.126  0.00  0.00    +0.000 A 
ATOM     11  C   UNL     1       5.065   3.823  16.914  0.00  0.00    +0.000 A 
ATOM     12  C   UNL     1       5.317   4.525  15.746  0.00  0.00    +0.000 A 
ATOM     13  C   UNL     1       6.186   5.618  15.770  0.00  0.00    +0.000 A 
ATOM     14  C   UNL     1       6.841   5.955  16.950  0.00  0.00    +0.000 A 
ATOM     15  C   UNL     1       6.594   5.254  18.141  0.00  0.00    +0.000 A 
ATOM     16  C   UNL     1       7.365   5.628  19.379  0.00  0.00    +0.000 C 
ENDBRANCH   9  10
ENDBRANCH   8   9
ENDBRANCH   5   8
ENDBRANCH   3   4
BRANCH   2  17
ATOM     17  C   UNL     1       3.187   7.274  17.900  0.00  0.00    +0.000 C 
BRANCH  17  18
ATOM     18  C   UNL     1       2.333   8.489  18.135  0.00  0.00    +0.000 C 
ATOM     19  O   UNL     1       2.263   9.380  17.293  0.00  0.00    +0.000 OA
ATOM     20  N   UNL     1       1.695   8.500  19.364  0.00  0.00    +0.000 N 
ATOM     21  H   UNL     1       2.141   7.990  20.117  0.00  0.00    +0.000 HD
BRANCH  20  22
ATOM     22  C   UNL     1       0.735   9.470  19.719  0.00  0.00    +0.000 A 
ATOM     23  C   UNL     1      -0.170   9.983  18.784  0.00  0.00    +0.000 A 
ATOM     24  C   UNL     1      -1.123  10.930  19.169  0.00  0.00    +0.000 A 
ATOM     25  C   UNL     1      -1.141  11.397  20.481  0.00  0.00    +0.000 A 
ATOM     26  C   UNL     1      -0.244  10.879  21.420  0.00  0.00    +0.000 A 
ATOM     27  C   UNL     1       0.677   9.897  21.046  0.00  0.00    +0.000 A 
ATOM     28  O   UNL     1      -0.182  11.308  22.720  0.00  0.00    +0.000 OA
ATOM     29  C   UNL     1      -1.337  12.073  23.083  0.00  0.00    +0.000 C 
ATOM     30  C   UNL     1      -1.724  13.053  21.987  0.00  0.00    +0.000 C 
ATOM     31  O   UNL     1      -2.063  12.366  20.778  0.00  0.00    +0.000 OA
ENDBRANCH  20  22
ENDBRANCH  17  18
ENDBRANCH   2  17
TORSDOF 7
ENDMDL
MODEL 2
REMARK VINA RESULT:      -8.1      2.507      4.389
REMARK  Name = 
REMARK  9 active torsions:
REMARK  status: ('A' for Active; 'I' for Inactive)
REMARK    1  A    between atoms: C_1  and  C_2
REMARK    2  A    between atoms: C_2  and  C_3
REMARK    3  A    between atoms: C_3  and  C_4
REMARK    4  A    between atoms: N_6  and  C_7
REMARK    5  A    between atoms: N_17  and  N_18
REMARK    6  A    between atoms: C_19  and  C_21
REMARK    7  A    between atoms: C_21  and  O_22
REMARK    8  A    between atoms: O_22  and  C_23
REMARK    9  A    between atoms: C_28  and  C_29
REMARK                            x       y       z     vdW  Elec       q    Type
REMARK                         _______ _______ _______ _____ _____    ______ ____
ROOT
ATOM      1  C   UNL     1       4.754   2.129  19.999  0.00  0.00    +0.000 C 
ATOM      2  C   UNL     1       4.183   3.083  18.977  0.00  0.00    +0.000 C 
ATOM      3  N   UNL     1       4.855   3.871  18.187  0.00  0.00    +0.000 NA
ENDROOT
BRANCH   3   4
ATOM      4  N   UNL     1       6.210   3.979  18.328  0.00  0.00    +0.000 N 
ATOM      5  C   UNL     1       6.997   4.972  17.792  0.00  0.00    +0.000 C 
ATOM      6  O   UNL     1       8.084   5.219  18.325  0.00  0.00    +0.000 OA
ATOM      7  H   UNL     1       6.547   3.751  19.263  0.00  0.00    +0.000 HD
BRANCH   5   8
ATOM      8  C   UNL     1       6.538   5.724  16.560  0.00  0.00    +0.000 C 
BRANCH   8   9
ATOM      9  O   UNL     1       7.464   5.479  15.500  0.00  0.00    +0.000 OA
BRANCH   9  10
ATOM     10  C   UNL     1       7.022   4.788  14.407  0.00  0.00    +0.000 A 
ATOM     11  C   UNL     1       5.966   3.874  14.453  0.00  0.00    +0.000 A 
ATOM     12  C   UNL     1       5.451   3.327  13.288  0.00  0.00    +0.000 A 
ATOM     13  C   UNL     1       6.023   3.656  12.058  0.00  0.00    +0.000 A 
ATOM     14  C   UNL     1       7.145   4.476  12.014  0.00  0.00    +0.000 A 
ATOM     15  C   UNL     1       7.677   5.038  13.185  0.00  0.00    +0.000 A 
ATOM     16  C   UNL     1       8.921   5.881  13.088  0.00  0.00    +0.000 C 
ENDBRANCH   9  10
ENDBRANCH   8   9
ENDBRANCH   5   8
ENDBRANCH   3   4
BRANCH   2  17
ATOM     17  C   UNL     1       2.678   3.128  18.865  0.00  0.00    +0.000 C 
BRANCH  17  18
ATOM     18  C   UNL     1       2.108   4.512  18.718  0.00  0.00    +0.000 C 
ATOM     19  O   UNL     1       1.242   4.749  17.880  0.00  0.00    +0.000 OA
ATOM     20  N   UNL     1       2.671   5.445  19.571  0.00  0.00    +0.000 N 
ATOM     21  H   UNL     1       3.623   5.274  19.876  0.00  0.00    +0.000 HD
BRANCH  20  22
ATOM     22  C   UNL     1       2.179   6.760  19.698  0.00  0.00    +0.000 A 
ATOM     23  C   UNL     1       1.452   7.166  20.824  0.00  0.00    +0.000 A 
ATOM     24  C   UNL     1       0.992   8.481  20.931  0.00  0.00    +0.000 A 
ATOM     25  C   UNL     1       1.221   9.380  19.892  0.00  0.00    +0.000 A 
ATOM     26  C   UNL     1       1.955   8.980  18.771  0.00  0.00    +0.000 A 
ATOM     27  C   UNL     1       2.456   7.679  18.685  0.00  0.00    +0.000 A 
ATOM     28  O   UNL     1       2.195   9.798  17.697  0.00  0.00    +0.000 OA
ATOM     29  C   UNL     1       1.917  11.169  18.000  0.00  0.00    +0.000 C 
ATOM     30  C   UNL     1       0.620  11.317  18.779  0.00  0.00    +0.000 C 
ATOM     31  O   UNL     1       0.693  10.637  20.036  0.00  0.00    +0.000 OA
ENDBRANCH  20  22
ENDBRANCH  17  18
ENDBRANCH   2  17
TORSDOF 7
ENDMDL
MODEL 3
REMARK VINA RESULT:      -7.7      0.997      1.786
REMARK  Name = 
REMARK  9 active torsions:
REMARK  status: ('A' for Active; 'I' for Inactive)
REMARK    1  A    between atoms: C_1  and  C_2
REMARK    2  A    between atoms: C_2  and  C_3
REMARK    3  A    between atoms: C_3  and  C_4
REMARK    4  A    between atoms: N_6  and  C_7
REMARK    5  A    between atoms: N_17  and  N_18
REMARK    6  A    between atoms: C_19  and  C_21
REMARK    7  A    between atoms: C_21  and  O_22
REMARK    8  A    between atoms: O_22  and  C_23
REMARK    9  A    between atoms: C_28  and  C_29
REMARK                            x       y       z     vdW  Elec       q    Type
REMARK                         _______ _______ _______ _____ _____    ______ ____
ROOT
ATOM      1  C   UNL     1       1.677   5.308  17.813  0.00  0.00    +0.000 C 
ATOM      2  C   UNL     1       2.750   6.023  18.600  0.00  0.00    +0.000 C 
ATOM      3  N   UNL     1       3.231   5.670  19.758  0.00  0.00    +0.000 NA
ENDROOT
BRANCH   3   4
ATOM      4  N   UNL     1       2.671   4.625  20.436  0.00  0.00    +0.000 N 
ATOM      5  C   UNL     1       3.174   3.346  20.497  0.00  0.00    +0.000 C 
ATOM      6  O   UNL     1       2.857   2.630  21.453  0.00  0.00    +0.000 OA
ATOM      7  H   UNL     1       2.291   4.880  21.347  0.00  0.00    +0.000 HD
BRANCH   5   8
ATOM      8  C   UNL     1       4.078   2.830  19.396  0.00  0.00    +0.000 C 
BRANCH   8   9
ATOM      9  O   UNL     1       5.255   3.639  19.352  0.00  0.00    +0.000 OA
BRANCH   9  10
ATOM     10  C   UNL     1       5.612   4.193  18.155  0.00  0.00    +0.000 A 
ATOM     11  C   UNL     1       5.035   3.822  16.937  0.00  0.00    +0.000 A 
ATOM     12  C   UNL     1       5.312   4.528  15.778  0.00  0.00    +0.000 A 
ATOM     13  C   UNL     1       6.214   5.593  15.815  0.00  0.00    +0.000 A 
ATOM     14  C   UNL     1       6.877   5.896  16.999  0.00  0.00    +0.000 A 
ATOM     15  C   UNL     1       6.606   5.190  18.182  0.00  0.00    +0.000 A 
ATOM     16  C   UNL     1       7.385   5.527  19.426  0.00  0.00    +0.000 C 
ENDBRANCH   9  10
ENDBRANCH   8   9
ENDBRANCH   5   8
ENDBRANCH   3   4
BRANCH   2  17
ATOM     17  C   UNL     1       3.317   7.276  17.978  0.00  0.00    +0.000 C 
BRANCH  17  18
ATOM     18  C   UNL     1       2.407   8.471  18.053  0.00  0.00    +0.000 C 
ATOM     19  O   UNL     1       2.312   9.248  17.107  0.00  0.00    +0.000 OA
ATOM     20  N   UNL     1       1.751   8.604  19.265  0.00  0.00    +0.000 N 
ATOM     21  H   UNL     1       2.208   8.212  20.080  0.00  0.00    +0.000 HD
BRANCH  20  22
ATOM     22  C   UNL     1       0.745   9.566  19.488  0.00  0.00    +0.000 A 
ATOM     23  C   UNL     1       0.809  10.461  20.563  0.00  0.00    +0.000 A 
ATOM     24  C   UNL     1      -0.194  11.416  20.748  0.00  0.00    +0.000 A 
ATOM     25  C   UNL     1      -1.286  11.447  19.884  0.00  0.00    +0.000 A 
ATOM     26  C   UNL     1      -1.349  10.561  18.804  0.00  0.00    +0.000 A 
ATOM     27  C   UNL     1      -0.321   9.637  18.591  0.00  0.00    +0.000 A 
ATOM     28  O   UNL     1      -2.403  10.512  17.930  0.00  0.00    +0.000 OA
ATOM     29  C   UNL     1      -3.239  11.669  18.040  0.00  0.00    +0.000 C 
ATOM     30  C   UNL     1      -3.487  12.043  19.492  0.00  0.00    +0.000 C 
ATOM     31  O   UNL     1      -2.261  12.370  20.156  0.00  0.00    +0.000 OA
ENDBRANCH  20  22
ENDBRANCH  17  18
ENDBRANCH   2  17
TORSDOF 7
ENDMDL
MODEL 4
REMARK VINA RESULT:      -7.7      1.770      3.355
REMARK  Name = 
REMARK  9 active torsions:
REMARK  status: ('A' for Active; 'I' for Inactive)
REMARK    1  A    between atoms: C_1  and  C_2
REMARK    2  A    between atoms: C_2  and  C_3
REMARK    3  A    between atoms: C_3  and  C_4
REMARK    4  A    between atoms: N_6  and  C_7
REMARK    5  A    between atoms: N_17  and  N_18
REMARK    6  A    between atoms: C_19  and  C_21
REMARK    7  A    between atoms: C_21  and  O_22
REMARK    8  A    between atoms: O_22  and  C_23
REMARK    9  A    between atoms: C_28  and  C_29
REMARK                            x       y       z     vdW  Elec       q    Type
REMARK                         _______ _______ _______ _____ _____    ______ ____
ROOT
ATOM      1  C   UNL     1       2.353   7.203  19.811  0.00  0.00    +0.000 C 
ATOM      2  C   UNL     1       2.699   7.372  18.350  0.00  0.00    +0.000 C 
ATOM      3  N   UNL     1       3.681   6.802  17.713  0.00  0.00    +0.000 NA
ENDROOT
BRANCH   3   4
ATOM      4  N   UNL     1       4.595   6.056  18.401  0.00  0.00    +0.000 N 
ATOM      5  C   UNL     1       5.059   4.815  18.033  0.00  0.00    +0.000 C 
ATOM      6  O   UNL     1       6.159   4.444  18.456  0.00  0.00    +0.000 OA
ATOM      7  H   UNL     1       5.365   6.601  18.788  0.00  0.00    +0.000 HD
BRANCH   5   8
ATOM      8  C   UNL     1       4.220   3.921  17.142  0.00  0.00    +0.000 C 
BRANCH   8   9
ATOM      9  O   UNL     1       3.771   2.801  17.908  0.00  0.00    +0.000 OA
BRANCH   9  10
ATOM     10  C   UNL     1       2.940   3.036  18.966  0.00  0.00    +0.000 A 
ATOM     11  C   UNL     1       1.726   3.719  18.851  0.00  0.00    +0.000 A 
ATOM     12  C   UNL     1       0.845   3.785  19.919  0.00  0.00    +0.000 A 
ATOM     13  C   UNL     1       1.194   3.203  21.139  0.00  0.00    +0.000 A 
ATOM     14  C   UNL     1       2.446   2.621  21.295  0.00  0.00    +0.000 A 
ATOM     15  C   UNL     1       3.349   2.545  20.222  0.00  0.00    +0.000 A 
ATOM     16  C   UNL     1       4.710   1.946  20.456  0.00  0.00    +0.000 C 
ENDBRANCH   9  10
ENDBRANCH   8   9
ENDBRANCH   5   8
ENDBRANCH   3   4
BRANCH   2  17
ATOM     17  C   UNL     1       1.815   8.302  17.553  0.00  0.00    +0.000 C 
BRANCH  17  18
ATOM     18  C   UNL     1       1.577   9.637  18.201  0.00  0.00    +0.000 C 
ATOM     19  O   UNL     1       2.406  10.538  18.107  0.00  0.00    +0.000 OA
ATOM     20  N   UNL     1       0.390   9.716  18.909  0.00  0.00    +0.000 N 
ATOM     21  H   UNL     1       0.022   8.850  19.287  0.00  0.00    +0.000 HD
BRANCH  20  22
ATOM     22  C   UNL     1      -0.093  10.919  19.463  0.00  0.00    +0.000 A 
ATOM     23  C   UNL     1      -0.586  11.952  18.658  0.00  0.00    +0.000 A 
ATOM     24  C   UNL     1      -1.075  13.127  19.237  0.00  0.00    +0.000 A 
ATOM     25  C   UNL     1      -1.029  13.286  20.619  0.00  0.00    +0.000 A 
ATOM     26  C   UNL     1      -0.546  12.251  21.427  0.00  0.00    +0.000 A 
ATOM     27  C   UNL     1      -0.102  11.058  20.852  0.00  0.00    +0.000 A 
ATOM     28  O   UNL     1      -0.444  12.345  22.791  0.00  0.00    +0.000 OA
ATOM     29  C   UNL     1      -1.190  13.454  23.305  0.00  0.00    +0.000 C 
ATOM     30  C   UNL     1      -1.001  14.698  22.452  0.00  0.00    +0.000 C 
ATOM     31  O   UNL     1      -1.472  14.484  21.117  0.00  0.00    +0.000 OA
ENDBRANCH  20  22
ENDBRANCH  17  18
ENDBRANCH   2  17
TORSDOF 7
ENDMDL
MODEL 5
REMARK VINA RESULT:      -7.7      2.552      8.945
REMARK  Name = 
REMARK  9 active torsions:
REMARK  status: ('A' for Active; 'I' for Inactive)
REMARK    1  A    between atoms: C_1  and  C_2
REMARK    2  A    between atoms: C_2  and  C_3
REMARK    3  A    between atoms: C_3  and  C_4
REMARK    4  A    between atoms: N_6  and  C_7
REMARK    5  A    between atoms: N_17  and  N_18
REMARK    6  A    between atoms: C_19  and  C_21
REMARK    7  A    between atoms: C_21  and  O_22
REMARK    8  A    between atoms: O_22  and  C_23
REMARK    9  A    between atoms: C_28  and  C_29
REMARK                            x       y       z     vdW  Elec       q    Type
REMARK                         _______ _______ _______ _____ _____    ______ ____
ROOT
ATOM      1  C   UNL     1       1.274   3.804  20.984  0.00  0.00    +0.000 C 
ATOM      2  C   UNL     1       1.789   4.482  19.737  0.00  0.00    +0.000 C 
ATOM      3  N   UNL     1       2.202   5.713  19.634  0.00  0.00    +0.000 NA
ENDROOT
BRANCH   3   4
ATOM      4  N   UNL     1       2.074   6.563  20.696  0.00  0.00    +0.000 N 
ATOM      5  C   UNL     1       1.564   7.839  20.646  0.00  0.00    +0.000 C 
ATOM      6  O   UNL     1       1.096   8.331  21.678  0.00  0.00    +0.000 OA
ATOM      7  H   UNL     1       1.759   6.108  21.553  0.00  0.00    +0.000 HD
BRANCH   5   8
ATOM      8  C   UNL     1       1.602   8.623  19.350  0.00  0.00    +0.000 C 
BRANCH   8   9
ATOM      9  O   UNL     1       1.236   9.978  19.622  0.00  0.00    +0.000 OA
BRANCH   9  10
ATOM     10  C   UNL     1       0.232  10.535  18.882  0.00  0.00    +0.000 A 
ATOM     11  C   UNL     1      -0.719   9.780  18.190  0.00  0.00    +0.000 A 
ATOM     12  C   UNL     1      -1.811  10.391  17.593  0.00  0.00    +0.000 A 
ATOM     13  C   UNL     1      -1.938  11.780  17.642  0.00  0.00    +0.000 A 
ATOM     14  C   UNL     1      -0.937  12.546  18.230  0.00  0.00    +0.000 A 
ATOM     15  C   UNL     1       0.174  11.942  18.840  0.00  0.00    +0.000 A 
ATOM     16  C   UNL     1       1.251  12.818  19.421  0.00  0.00    +0.000 C 
ENDBRANCH   9  10
ENDBRANCH   8   9
ENDBRANCH   5   8
ENDBRANCH   3   4
BRANCH   2  17
ATOM     17  C   UNL     1       1.823   3.644  18.481  0.00  0.00    +0.000 C 
BRANCH  17  18
ATOM     18  C   UNL     1       3.167   3.591  17.808  0.00  0.00    +0.000 C 
ATOM     19  O   UNL     1       3.806   2.544  17.761  0.00  0.00    +0.000 OA
ATOM     20  N   UNL     1       3.592   4.809  17.304  0.00  0.00    +0.000 N 
ATOM     21  H   UNL     1       3.240   5.643  17.759  0.00  0.00    +0.000 HD
BRANCH  20  22
ATOM     22  C   UNL     1       4.749   4.945  16.509  0.00  0.00    +0.000 A 
ATOM     23  C   UNL     1       5.878   5.633  16.968  0.00  0.00    +0.000 A 
ATOM     24  C   UNL     1       7.017   5.737  16.164  0.00  0.00    +0.000 A 
ATOM     25  C   UNL     1       7.010   5.190  14.884  0.00  0.00    +0.000 A 
ATOM     26  C   UNL     1       5.887   4.494  14.426  0.00  0.00    +0.000 A 
ATOM     27  C   UNL     1       4.766   4.349  15.247  0.00  0.00    +0.000 A 
ATOM     28  O   UNL     1       5.796   3.955  13.169  0.00  0.00    +0.000 OA
ATOM     29  C   UNL     1       7.073   3.886  12.526  0.00  0.00    +0.000 C 
ATOM     30  C   UNL     1       7.875   5.160  12.738  0.00  0.00    +0.000 C 
ATOM     31  O   UNL     1       8.138   5.377  14.128  0.00  0.00    +0.000 OA
ENDBRANCH  20  22
ENDBRANCH  17  18
ENDBRANCH   2  17
TORSDOF 7
ENDMDL
MODEL 6
REMARK VINA RESULT:      -7.7      1.845      2.052
REMARK  Name = 
REMARK  9 active torsions:
REMARK  status: ('A' for Active; 'I' for Inactive)
REMARK    1  A    between atoms: C_1  and  C_2
REMARK    2  A    between atoms: C_2  and  C_3
REMARK    3  A    between atoms: C_3  and  C_4
REMARK    4  A    between atoms: N_6  and  C_7
REMARK    5  A    between atoms: N_17  and  N_18
REMARK    6  A    between atoms: C_19  and  C_21
REMARK    7  A    between atoms: C_21  and  O_22
REMARK    8  A    between atoms: O_22  and  C_23
REMARK    9  A    between atoms: C_28  and  C_29
REMARK                            x       y       z     vdW  Elec       q    Type
REMARK                         _______ _______ _______ _____ _____    ______ ____
ROOT
ATOM      1  C   UNL     1       1.596   4.868  17.931  0.00  0.00    +0.000 C 
ATOM      2  C   UNL     1       2.567   5.720  18.713  0.00  0.00    +0.000 C 
ATOM      3  N   UNL     1       3.157   5.401  19.830  0.00  0.00    +0.000 NA
ENDROOT
BRANCH   3   4
ATOM      4  N   UNL     1       2.819   4.242  20.470  0.00  0.00    +0.000 N 
ATOM      5  C   UNL     1       3.505   3.053  20.393  0.00  0.00    +0.000 C 
ATOM      6  O   UNL     1       3.385   2.238  21.315  0.00  0.00    +0.000 OA
ATOM      7  H   UNL     1       2.490   4.379  21.425  0.00  0.00    +0.000 HD
BRANCH   5   8
ATOM      8  C   UNL     1       4.372   2.750  19.188  0.00  0.00    +0.000 C 
BRANCH   8   9
ATOM      9  O   UNL     1       5.490   3.640  19.191  0.00  0.00    +0.000 OA
BRANCH   9  10
ATOM     10  C   UNL     1       5.761   4.338  18.048  0.00  0.00    +0.000 A 
ATOM     11  C   UNL     1       5.199   4.024  16.807  0.00  0.00    +0.000 A 
ATOM     12  C   UNL     1       5.375   4.862  15.717  0.00  0.00    +0.000 A 
ATOM     13  C   UNL     1       6.162   6.008  15.846  0.00  0.00    +0.000 A 
ATOM     14  C   UNL     1       6.816   6.266  17.046  0.00  0.00    +0.000 A 
ATOM     15  C   UNL     1       6.646   5.428  18.159  0.00  0.00    +0.000 A 
ATOM     16  C   UNL     1       7.413   5.726  19.419  0.00  0.00    +0.000 C 
ENDBRANCH   9  10
ENDBRANCH   8   9
ENDBRANCH   5   8
ENDBRANCH   3   4
BRANCH   2  17
ATOM     17  C   UNL     1       2.880   7.082  18.141  0.00  0.00    +0.000 C 
BRANCH  17  18
ATOM     18  C   UNL     1       2.088   8.206  18.750  0.00  0.00    +0.000 C 
ATOM     19  O   UNL     1       1.870   8.239  19.958  0.00  0.00    +0.000 OA
ATOM     20  N   UNL     1       1.628   9.133  17.831  0.00  0.00    +0.000 N 
ATOM     21  H   UNL     1       1.473   8.804  16.885  0.00  0.00    +0.000 HD
BRANCH  20  22
ATOM     22  C   UNL     1       0.997  10.336  18.208  0.00  0.00    +0.000 A 
ATOM     23  C   UNL     1      -0.387  10.408  18.408  0.00  0.00    +0.000 A 
ATOM     24  C   UNL     1      -0.982  11.610  18.800  0.00  0.00    +0.000 A 
ATOM     25  C   UNL     1      -0.199  12.752  18.948  0.00  0.00    +0.000 A 
ATOM     26  C   UNL     1       1.184  12.682  18.758  0.00  0.00    +0.000 A 
ATOM     27  C   UNL     1       1.786  11.468  18.413  0.00  0.00    +0.000 A 
ATOM     28  O   UNL     1       2.015  13.767  18.857  0.00  0.00    +0.000 OA
ATOM     29  C   UNL     1       1.371  14.873  19.499  0.00  0.00    +0.000 C 
ATOM     30  C   UNL     1      -0.051  15.061  18.995  0.00  0.00    +0.000 C 
ATOM     31  O   UNL     1      -0.854  13.910  19.278  0.00  0.00    +0.000 OA
ENDBRANCH  20  22
ENDBRANCH  17  18
ENDBRANCH   2  17
TORSDOF 7
ENDMDL
MODEL 7
REMARK VINA RESULT:      -7.7      2.521      4.071
REMARK  Name = 
REMARK  9 active torsions:
REMARK  status: ('A' for Active; 'I' for Inactive)
REMARK    1  A    between atoms: C_1  and  C_2
REMARK    2  A    between atoms: C_2  and  C_3
REMARK    3  A    between atoms: C_3  and  C_4
REMARK    4  A    between atoms: N_6  and  C_7
REMARK    5  A    between atoms: N_17  and  N_18
REMARK    6  A    between atoms: C_19  and  C_21
REMARK    7  A    between atoms: C_21  and  O_22
REMARK    8  A    between atoms: O_22  and  C_23
REMARK    9  A    between atoms: C_28  and  C_29
REMARK                            x       y       z     vdW  Elec       q    Type
REMARK                         _______ _______ _______ _____ _____    ______ ____
ROOT
ATOM      1  C   UNL     1       4.127   1.711  18.903  0.00  0.00    +0.000 C 
ATOM      2  C   UNL     1       3.700   3.042  18.332  0.00  0.00    +0.000 C 
ATOM      3  N   UNL     1       4.470   3.932  17.774  0.00  0.00    +0.000 NA
ENDROOT
BRANCH   3   4
ATOM      4  N   UNL     1       5.825   3.757  17.778  0.00  0.00    +0.000 N 
ATOM      5  C   UNL     1       6.758   4.700  17.416  0.00  0.00    +0.000 C 
ATOM      6  O   UNL     1       7.905   4.601  17.863  0.00  0.00    +0.000 OA
ATOM      7  H   UNL     1       6.171   3.234  18.582  0.00  0.00    +0.000 HD
BRANCH   5   8
ATOM      8  C   UNL     1       6.378   5.821  16.470  0.00  0.00    +0.000 C 
BRANCH   8   9
ATOM      9  O   UNL     1       7.247   5.779  15.336  0.00  0.00    +0.000 OA
BRANCH   9  10
ATOM     10  C   UNL     1       6.909   4.959  14.296  0.00  0.00    +0.000 A 
ATOM     11  C   UNL     1       5.836   4.064  14.343  0.00  0.00    +0.000 A 
ATOM     12  C   UNL     1       5.435   3.379  13.208  0.00  0.00    +0.000 A 
ATOM     13  C   UNL     1       6.139   3.546  12.014  0.00  0.00    +0.000 A 
ATOM     14  C   UNL     1       7.275   4.347  11.988  0.00  0.00    +0.000 A 
ATOM     15  C   UNL     1       7.693   5.049  13.130  0.00  0.00    +0.000 A 
ATOM     16  C   UNL     1       8.956   5.865  13.060  0.00  0.00    +0.000 C 
ENDBRANCH   9  10
ENDBRANCH   8   9
ENDBRANCH   5   8
ENDBRANCH   3   4
BRANCH   2  17
ATOM     17  C   UNL     1       2.230   3.373  18.424  0.00  0.00    +0.000 C 
BRANCH  17  18
ATOM     18  C   UNL     1       1.897   4.806  18.113  0.00  0.00    +0.000 C 
ATOM     19  O   UNL     1       1.163   5.091  17.171  0.00  0.00    +0.000 OA
ATOM     20  N   UNL     1       2.512   5.721  18.951  0.00  0.00    +0.000 N 
ATOM     21  H   UNL     1       3.391   5.442  19.369  0.00  0.00    +0.000 HD
BRANCH  20  22
ATOM     22  C   UNL     1       2.217   7.100  18.926  0.00  0.00    +0.000 A 
ATOM     23  C   UNL     1       2.544   7.900  17.825  0.00  0.00    +0.000 A 
ATOM     24  C   UNL     1       2.222   9.260  17.821  0.00  0.00    +0.000 A 
ATOM     25  C   UNL     1       1.615   9.830  18.937  0.00  0.00    +0.000 A 
ATOM     26  C   UNL     1       1.279   9.031  20.034  0.00  0.00    +0.000 A 
ATOM     27  C   UNL     1       1.556   7.661  20.019  0.00  0.00    +0.000 A 
ATOM     28  O   UNL     1       0.706   9.523  21.178  0.00  0.00    +0.000 OA
ATOM     29  C   UNL     1       0.189  10.845  20.987  0.00  0.00    +0.000 C 
ATOM     30  C   UNL     1       1.156  11.714  20.199  0.00  0.00    +0.000 C 
ATOM     31  O   UNL     1       1.379  11.179  18.889  0.00  0.00    +0.000 OA
ENDBRANCH  20  22
ENDBRANCH  17  18
ENDBRANCH   2  17
TORSDOF 7
ENDMDL
MODEL 8
REMARK VINA RESULT:      -7.6      2.278      8.906
REMARK  Name = 
REMARK  9 active torsions:
REMARK  status: ('A' for Active; 'I' for Inactive)
REMARK    1  A    between atoms: C_1  and  C_2
REMARK    2  A    between atoms: C_2  and  C_3
REMARK    3  A    between atoms: C_3  and  C_4
REMARK    4  A    between atoms: N_6  and  C_7
REMARK    5  A    between atoms: N_17  and  N_18
REMARK    6  A    between atoms: C_19  and  C_21
REMARK    7  A    between atoms: C_21  and  O_22
REMARK    8  A    between atoms: O_22  and  C_23
REMARK    9  A    between atoms: C_28  and  C_29
REMARK                            x       y       z     vdW  Elec       q    Type
REMARK                         _______ _______ _______ _____ _____    ______ ____
ROOT
ATOM      1  C   UNL     1       2.343   4.157  21.723  0.00  0.00    +0.000 C 
ATOM      2  C   UNL     1       1.818   4.698  20.414  0.00  0.00    +0.000 C 
ATOM      3  N   UNL     1       1.604   5.948  20.118  0.00  0.00    +0.000 NA
ENDROOT
BRANCH   3   4
ATOM      4  N   UNL     1       1.737   6.906  21.083  0.00  0.00    +0.000 N 
ATOM      5  C   UNL     1       1.474   8.247  20.924  0.00  0.00    +0.000 C 
ATOM      6  O   UNL     1       1.203   8.920  21.925  0.00  0.00    +0.000 OA
ATOM      7  H   UNL     1       1.422   6.609  22.006  0.00  0.00    +0.000 HD
BRANCH   5   8
ATOM      8  C   UNL     1       1.538   8.878  19.548  0.00  0.00    +0.000 C 
BRANCH   8   9
ATOM      9  O   UNL     1       0.983  10.192  19.619  0.00  0.00    +0.000 OA
BRANCH   9  10
ATOM     10  C   UNL     1      -0.176  10.439  18.938  0.00  0.00    +0.000 A 
ATOM     11  C   UNL     1      -0.524   9.783  17.753  0.00  0.00    +0.000 A 
ATOM     12  C   UNL     1      -1.781   9.948  17.195  0.00  0.00    +0.000 A 
ATOM     13  C   UNL     1      -2.696  10.815  17.795  0.00  0.00    +0.000 A 
ATOM     14  C   UNL     1      -2.318  11.556  18.909  0.00  0.00    +0.000 A 
ATOM     15  C   UNL     1      -1.048  11.399  19.487  0.00  0.00    +0.000 A 
ATOM     16  C   UNL     1      -0.673  12.259  20.664  0.00  0.00    +0.000 C 
ENDBRANCH   9  10
ENDBRANCH   8   9
ENDBRANCH   5   8
ENDBRANCH   3   4
BRANCH   2  17
ATOM     17  C   UNL     1       1.508   3.680  19.342  0.00  0.00    +0.000 C 
BRANCH  17  18
ATOM     18  C   UNL     1       2.536   3.600  18.248  0.00  0.00    +0.000 C 
ATOM     19  O   UNL     1       2.272   3.063  17.175  0.00  0.00    +0.000 OA
ATOM     20  N   UNL     1       3.763   4.143  18.588  0.00  0.00    +0.000 N 
ATOM     21  H   UNL     1       4.009   4.144  19.571  0.00  0.00    +0.000 HD
BRANCH  20  22
ATOM     22  C   UNL     1       4.813   4.303  17.660  0.00  0.00    +0.000 A 
ATOM     23  C   UNL     1       6.098   4.682  18.063  0.00  0.00    +0.000 A 
ATOM     24  C   UNL     1       7.123   4.814  17.122  0.00  0.00    +0.000 A 
ATOM     25  C   UNL     1       6.852   4.611  15.772  0.00  0.00    +0.000 A 
ATOM     26  C   UNL     1       5.571   4.223  15.367  0.00  0.00    +0.000 A 
ATOM     27  C   UNL     1       4.558   4.043  16.312  0.00  0.00    +0.000 A 
ATOM     28  O   UNL     1       5.221   4.032  14.055  0.00  0.00    +0.000 OA
ATOM     29  C   UNL     1       6.370   3.939  13.206  0.00  0.00    +0.000 C 
ATOM     30  C   UNL     1       7.411   4.989  13.559  0.00  0.00    +0.000 C 
ATOM     31  O   UNL     1       7.888   4.813  14.898  0.00  0.00    +0.000 OA
ENDBRANCH  20  22
ENDBRANCH  17  18
ENDBRANCH   2  17
TORSDOF 7
ENDMDL
MODEL 9
REMARK VINA RESULT:      -7.6      5.834      8.625
REMARK  Name = 
REMARK  9 active torsions:
REMARK  status: ('A' for Active; 'I' for Inactive)
REMARK    1  A    between atoms: C_1  and  C_2
REMARK    2  A    between atoms: C_2  and  C_3
REMARK    3  A    between atoms: C_3  and  C_4
REMARK    4  A    between atoms: N_6  and  C_7
REMARK    5  A    between atoms: N_17  and  N_18
REMARK    6  A    between atoms: C_19  and  C_21
REMARK    7  A    between atoms: C_21  and  O_22
REMARK    8  A    between atoms: O_22  and  C_23
REMARK    9  A    between atoms: C_28  and  C_29
REMARK                            x       y       z     vdW  Elec       q    Type
REMARK                         _______ _______ _______ _____ _____    ______ ____
ROOT
ATOM      1  C   UNL     1       8.051   6.234  18.951  0.00  0.00    +0.000 C 
ATOM      2  C   UNL     1       7.836   7.353  17.961  0.00  0.00    +0.000 C 
ATOM      3  N   UNL     1       8.277   8.575  18.060  0.00  0.00    +0.000 NA
ENDROOT
BRANCH   3   4
ATOM      4  N   UNL     1       8.905   8.980  19.204  0.00  0.00    +0.000 N 
ATOM      5  C   UNL     1       9.273  10.271  19.504  0.00  0.00    +0.000 C 
ATOM      6  O   UNL     1       9.416  10.586  20.690  0.00  0.00    +0.000 OA
ATOM      7  H   UNL     1       8.558   8.525  20.048  0.00  0.00    +0.000 HD
BRANCH   5   8
ATOM      8  C   UNL     1       9.517  11.270  18.391  0.00  0.00    +0.000 C 
BRANCH   8   9
ATOM      9  O   UNL     1      10.846  11.780  18.515  0.00  0.00    +0.000 OA
BRANCH   9  10
ATOM     10  C   UNL     1      11.002  13.101  18.827  0.00  0.00    +0.000 A 
ATOM     11  C   UNL     1      10.775  13.619  20.105  0.00  0.00    +0.000 A 
ATOM     12  C   UNL     1      11.108  14.930  20.408  0.00  0.00    +0.000 A 
ATOM     13  C   UNL     1      11.631  15.758  19.413  0.00  0.00    +0.000 A 
ATOM     14  C   UNL     1      11.754  15.283  18.112  0.00  0.00    +0.000 A 
ATOM     15  C   UNL     1      11.423  13.957  17.790  0.00  0.00    +0.000 A 
ATOM     16  C   UNL     1      11.530  13.507  16.358  0.00  0.00    +0.000 C 
ENDBRANCH   9  10
ENDBRANCH   8   9
ENDBRANCH   5   8
ENDBRANCH   3   4
BRANCH   2  17
ATOM     17  C   UNL     1       7.022   7.019  16.734  0.00  0.00    +0.000 C 
BRANCH  17  18
ATOM     18  C   UNL     1       5.954   5.985  16.962  0.00  0.00    +0.000 C 
ATOM     19  O   UNL     1       6.023   4.882  16.427  0.00  0.00    +0.000 OA
ATOM     20  N   UNL     1       4.920   6.413  17.777  0.00  0.00    +0.000 N 
ATOM     21  H   UNL     1       4.731   7.408  17.793  0.00  0.00    +0.000 HD
BRANCH  20  22
ATOM     22  C   UNL     1       3.901   5.553  18.235  0.00  0.00    +0.000 A 
ATOM     23  C   UNL     1       2.775   5.269  17.455  0.00  0.00    +0.000 A 
ATOM     24  C   UNL     1       1.789   4.398  17.928  0.00  0.00    +0.000 A 
ATOM     25  C   UNL     1       1.909   3.846  19.201  0.00  0.00    +0.000 A 
ATOM     26  C   UNL     1       3.038   4.121  19.979  0.00  0.00    +0.000 A 
ATOM     27  C   UNL     1       4.046   4.954  19.487  0.00  0.00    +0.000 A 
ATOM     28  O   UNL     1       3.212   3.639  21.250  0.00  0.00    +0.000 OA
ATOM     29  C   UNL     1       2.301   2.575  21.545  0.00  0.00    +0.000 C 
ATOM     30  C   UNL     1       0.898   2.887  21.048  0.00  0.00    +0.000 C 
ATOM     31  O   UNL     1       0.880   3.046  19.625  0.00  0.00    +0.000 OA
ENDBRANCH  20  22
ENDBRANCH  17  18
ENDBRANCH   2  17
TORSDOF 7
ENDMDL
