MODEL 1
REMARK VINA RESULT:      -7.6      0.000      0.000
REMARK  Name = 
REMARK  7 active torsions:
REMARK  status: ('A' for Active; 'I' for Inactive)
REMARK    1  A    between atoms: C_2  and  O_3
REMARK    2  A    between atoms: C_2  and  C_4
REMARK    3  A    between atoms: C_7  and  C_8
REMARK    4  A    between atoms: N_9  and  O_10
REMARK    5  A    between atoms: O_10  and  C_11
REMARK    6  A    between atoms: C_15  and  C_16
REMARK    7  A    between atoms: C_16  and  O_18
REMARK                            x       y       z     vdW  Elec       q    Type
REMARK                         _______ _______ _______ _____ _____    ______ ____
ROOT
ATOM      1  C   UNL     1       5.241   5.184  16.510  0.00  0.00    +0.000 C 
ATOM      2  N   UNL     1       6.338   4.523  16.327  0.00  0.00    +0.000 NA
ENDROOT
BRANCH   1   6
ATOM      3  C   UNL     1       1.989   3.492  18.682  0.00  0.00    +0.000 A 
ATOM      4  C   UNL     1       3.039   2.673  18.239  0.00  0.00    +0.000 A 
ATOM      5  C   UNL     1       4.130   3.232  17.564  0.00  0.00    +0.000 A 
ATOM      6  C   UNL     1       4.155   4.606  17.321  0.00  0.00    +0.000 A 
ATOM      7  C   UNL     1       3.133   5.432  17.799  0.00  0.00    +0.000 A 
ATOM      8  C   UNL     1       2.062   4.877  18.496  0.00  0.00    +0.000 A 
BRANCH   3  10
ATOM      9  O   UNL     1       0.077   2.082  18.791  0.00  0.00    +0.000 OA
ATOM     10  C   UNL     1       0.823   2.861  19.356  0.00  0.00    +0.000 C 
BRANCH  10  11
ATOM     11  O   UNL     1       0.643   3.276  20.626  0.00  0.00    +0.000 OA
ATOM     12  H   UNL     1      -0.045   3.949  20.758  0.00  0.00    +0.000 HD
ENDBRANCH  10  11
ENDBRANCH   3  10
ENDBRANCH   1   6
BRANCH   2  13
ATOM     13  O   UNL     1       7.234   5.297  15.579  0.00  0.00    +0.000 OA
BRANCH  13  14
ATOM     14  C   UNL     1       7.173   4.933  14.251  0.00  0.00    +0.000 A 
ATOM     15  C   UNL     1       8.015   5.634  13.385  0.00  0.00    +0.000 A 
ATOM     16  C   UNL     1       7.993   5.364  12.016  0.00  0.00    +0.000 A 
ATOM     17  C   UNL     1       7.139   4.381  11.516  0.00  0.00    +0.000 A 
ATOM     18  C   UNL     1       6.317   3.647  12.383  0.00  0.00    +0.000 A 
ATOM     19  C   UNL     1       6.336   3.923  13.757  0.00  0.00    +0.000 A 
BRANCH  18  20
ATOM     20  C   UNL     1       5.400   2.647  11.777  0.00  0.00    +0.000 C 
ATOM     21  O   UNL     1       4.282   2.939  11.387  0.00  0.00    +0.000 OA
BRANCH  20  22
ATOM     22  O   UNL     1       5.912   1.404  11.660  0.00  0.00    +0.000 OA
ATOM     23  H   UNL     1       6.866   1.324  11.836  0.00  0.00    +0.000 HD
ENDBRANCH  20  22
ENDBRANCH  18  20
ENDBRANCH  13  14
ENDBRANCH   2  13
TORSDOF 7
ENDMDL
MODEL 2
REMARK VINA RESULT:      -7.5      0.981      1.549
REMARK  Name = 
REMARK  7 active torsions:
REMARK  status: ('A' for Active; 'I' for Inactive)
REMARK    1  A    between atoms: C_2  and  O_3
REMARK    2  A    between atoms: C_2  and  C_4
REMARK    3  A    between atoms: C_7  and  C_8
REMARK    4  A    between atoms: N_9  and  O_10
REMARK    5  A    between atoms: O_10  and  C_11
REMARK    6  A    between atoms: C_15  and  C_16
REMARK    7  A    between atoms: C_16  and  O_18
REMARK                            x       y       z     vdW  Elec       q    Type
REMARK                         _______ _______ _______ _____ _____    ______ ____
ROOT
ATOM      1  C   UNL     1       5.336   5.282  17.256  0.00  0.00    +0.000 C 
ATOM      2  N   UNL     1       5.875   4.579  16.313  0.00  0.00    +0.000 NA
ENDROOT
BRANCH   1   6
ATOM      3  C   UNL     1       2.576   3.639  20.055  0.00  0.00    +0.000 A 
ATOM      4  C   UNL     1       2.146   4.599  19.126  0.00  0.00    +0.000 A 
ATOM      5  C   UNL     1       3.039   5.108  18.177  0.00  0.00    +0.000 A 
ATOM      6  C   UNL     1       4.362   4.666  18.174  0.00  0.00    +0.000 A 
ATOM      7  C   UNL     1       4.785   3.678  19.070  0.00  0.00    +0.000 A 
ATOM      8  C   UNL     1       3.887   3.151  19.995  0.00  0.00    +0.000 A 
BRANCH   3  10
ATOM      9  O   UNL     1       1.949   2.876  22.218  0.00  0.00    +0.000 OA
ATOM     10  C   UNL     1       1.615   3.151  21.080  0.00  0.00    +0.000 C 
BRANCH  10  11
ATOM     11  O   UNL     1       0.361   2.993  20.614  0.00  0.00    +0.000 OA
ATOM     12  H   UNL     1      -0.116   3.811  20.396  0.00  0.00    +0.000 HD
ENDBRANCH  10  11
ENDBRANCH   3  10
ENDBRANCH   1   6
BRANCH   2  13
ATOM     13  O   UNL     1       6.804   5.361  15.616  0.00  0.00    +0.000 OA
BRANCH  13  14
ATOM     14  C   UNL     1       6.891   4.934  14.308  0.00  0.00    +0.000 A 
ATOM     15  C   UNL     1       7.854   5.566  13.520  0.00  0.00    +0.000 A 
ATOM     16  C   UNL     1       7.987   5.230  12.172  0.00  0.00    +0.000 A 
ATOM     17  C   UNL     1       7.166   4.248  11.618  0.00  0.00    +0.000 A 
ATOM     18  C   UNL     1       6.222   3.582  12.410  0.00  0.00    +0.000 A 
ATOM     19  C   UNL     1       6.085   3.926  13.762  0.00  0.00    +0.000 A 
BRANCH  18  20
ATOM     20  C   UNL     1       5.350   2.580  11.744  0.00  0.00    +0.000 C 
ATOM     21  O   UNL     1       4.244   2.861  11.311  0.00  0.00    +0.000 OA
BRANCH  20  22
ATOM     22  O   UNL     1       5.888   1.349  11.622  0.00  0.00    +0.000 OA
ATOM     23  H   UNL     1       6.161   1.097  10.722  0.00  0.00    +0.000 HD
ENDBRANCH  20  22
ENDBRANCH  18  20
ENDBRANCH  13  14
ENDBRANCH   2  13
TORSDOF 7
ENDMDL
MODEL 3
REMARK VINA RESULT:      -7.5      0.927      1.127
REMARK  Name = 
REMARK  7 active torsions:
REMARK  status: ('A' for Active; 'I' for Inactive)
REMARK    1  A    between atoms: C_2  and  O_3
REMARK    2  A    between atoms: C_2  and  C_4
REMARK    3  A    between atoms: C_7  and  C_8
REMARK    4  A    between atoms: N_9  and  O_10
REMARK    5  A    between atoms: O_10  and  C_11
REMARK    6  A    between atoms: C_15  and  C_16
REMARK    7  A    between atoms: C_16  and  O_18
REMARK                            x       y       z     vdW  Elec       q    Type
REMARK                         _______ _______ _______ _____ _____    ______ ____
ROOT
ATOM      1  C   UNL     1       5.871   4.546  17.626  0.00  0.00    +0.000 C 
ATOM      2  N   UNL     1       5.764   4.815  16.364  0.00  0.00    +0.000 NA
ENDROOT
BRANCH   1   6
ATOM      3  C   UNL     1       2.354   3.426  19.755  0.00  0.00    +0.000 A 
ATOM      4  C   UNL     1       3.579   2.810  20.050  0.00  0.00    +0.000 A 
ATOM      5  C   UNL     1       4.745   3.206  19.384  0.00  0.00    +0.000 A 
ATOM      6  C   UNL     1       4.673   4.206  18.414  0.00  0.00    +0.000 A 
ATOM      7  C   UNL     1       3.462   4.853  18.146  0.00  0.00    +0.000 A 
ATOM      8  C   UNL     1       2.309   4.477  18.831  0.00  0.00    +0.000 A 
BRANCH   3  10
ATOM      9  O   UNL     1       1.084   2.745  21.646  0.00  0.00    +0.000 OA
ATOM     10  C   UNL     1       1.126   2.951  20.447  0.00  0.00    +0.000 C 
BRANCH  10  11
ATOM     11  O   UNL     1       0.091   2.722  19.615  0.00  0.00    +0.000 OA
ATOM     12  H   UNL     1       0.292   2.773  18.666  0.00  0.00    +0.000 HD
ENDBRANCH  10  11
ENDBRANCH   3  10
ENDBRANCH   1   6
BRANCH   2  13
ATOM     13  O   UNL     1       7.035   5.047  15.825  0.00  0.00    +0.000 OA
BRANCH  13  14
ATOM     14  C   UNL     1       7.031   4.767  14.475  0.00  0.00    +0.000 A 
ATOM     15  C   UNL     1       7.919   5.508  13.693  0.00  0.00    +0.000 A 
ATOM     16  C   UNL     1       7.956   5.324  12.310  0.00  0.00    +0.000 A 
ATOM     17  C   UNL     1       7.115   4.386  11.713  0.00  0.00    +0.000 A 
ATOM     18  C   UNL     1       6.247   3.610  12.494  0.00  0.00    +0.000 A 
ATOM     19  C   UNL     1       6.206   3.801  13.882  0.00  0.00    +0.000 A 
BRANCH  18  20
ATOM     20  C   UNL     1       5.347   2.662  11.787  0.00  0.00    +0.000 C 
ATOM     21  O   UNL     1       4.240   2.985  11.391  0.00  0.00    +0.000 OA
BRANCH  20  22
ATOM     22  O   UNL     1       5.863   1.432  11.587  0.00  0.00    +0.000 OA
ATOM     23  H   UNL     1       5.700   1.046  10.707  0.00  0.00    +0.000 HD
ENDBRANCH  20  22
ENDBRANCH  18  20
ENDBRANCH  13  14
ENDBRANCH   2  13
TORSDOF 7
ENDMDL
MODEL 4
REMARK VINA RESULT:      -7.4      0.708      1.389
REMARK  Name = 
REMARK  7 active torsions:
REMARK  status: ('A' for Active; 'I' for Inactive)
REMARK    1  A    between atoms: C_2  and  O_3
REMARK    2  A    between atoms: C_2  and  C_4
REMARK    3  A    between atoms: C_7  and  C_8
REMARK    4  A    between atoms: N_9  and  O_10
REMARK    5  A    between atoms: O_10  and  C_11
REMARK    6  A    between atoms: C_15  and  C_16
REMARK    7  A    between atoms: C_16  and  O_18
REMARK                            x       y       z     vdW  Elec       q    Type
REMARK                         _______ _______ _______ _____ _____    ______ ____
ROOT
ATOM      1  C   UNL     1       5.323   5.130  16.916  0.00  0.00    +0.000 C 
ATOM      2  N   UNL     1       6.180   4.277  16.452  0.00  0.00    +0.000 NA
ENDROOT
BRANCH   1   6
ATOM      3  C   UNL     1       2.094   3.615  19.246  0.00  0.00    +0.000 A 
ATOM      4  C   UNL     1       2.996   4.531  19.808  0.00  0.00    +0.000 A 
ATOM      5  C   UNL     1       4.031   5.065  19.033  0.00  0.00    +0.000 A 
ATOM      6  C   UNL     1       4.168   4.664  17.704  0.00  0.00    +0.000 A 
ATOM      7  C   UNL     1       3.247   3.784  17.126  0.00  0.00    +0.000 A 
ATOM      8  C   UNL     1       2.199   3.277  17.892  0.00  0.00    +0.000 A 
BRANCH   3  10
ATOM      9  O   UNL     1       1.104   3.017  21.324  0.00  0.00    +0.000 OA
ATOM     10  C   UNL     1       1.031   3.032  20.109  0.00  0.00    +0.000 C 
BRANCH  10  11
ATOM     11  O   UNL     1       0.016   2.479  19.416  0.00  0.00    +0.000 OA
ATOM     12  H   UNL     1      -0.830   2.411  19.888  0.00  0.00    +0.000 HD
ENDBRANCH  10  11
ENDBRANCH   3  10
ENDBRANCH   1   6
BRANCH   2  13
ATOM     13  O   UNL     1       7.211   4.958  15.795  0.00  0.00    +0.000 OA
BRANCH  13  14
ATOM     14  C   UNL     1       7.135   4.728  14.438  0.00  0.00    +0.000 A 
ATOM     15  C   UNL     1       7.956   5.523  13.634  0.00  0.00    +0.000 A 
ATOM     16  C   UNL     1       7.917   5.390  12.246  0.00  0.00    +0.000 A 
ATOM     17  C   UNL     1       7.067   4.451  11.662  0.00  0.00    +0.000 A 
ATOM     18  C   UNL     1       6.268   3.623  12.462  0.00  0.00    +0.000 A 
ATOM     19  C   UNL     1       6.303   3.761  13.856  0.00  0.00    +0.000 A 
BRANCH  18  20
ATOM     20  C   UNL     1       5.353   2.676  11.772  0.00  0.00    +0.000 C 
ATOM     21  O   UNL     1       5.679   1.531  11.507  0.00  0.00    +0.000 OA
BRANCH  20  22
ATOM     22  O   UNL     1       4.128   3.168  11.496  0.00  0.00    +0.000 OA
ATOM     23  H   UNL     1       3.434   2.956  12.146  0.00  0.00    +0.000 HD
ENDBRANCH  20  22
ENDBRANCH  18  20
ENDBRANCH  13  14
ENDBRANCH   2  13
TORSDOF 7
ENDMDL
MODEL 5
REMARK VINA RESULT:      -7.4      4.400      9.301
REMARK  Name = 
REMARK  7 active torsions:
REMARK  status: ('A' for Active; 'I' for Inactive)
REMARK    1  A    between atoms: C_2  and  O_3
REMARK    2  A    between atoms: C_2  and  C_4
REMARK    3  A    between atoms: C_7  and  C_8
REMARK    4  A    between atoms: N_9  and  O_10
REMARK    5  A    between atoms: O_10  and  C_11
REMARK    6  A    between atoms: C_15  and  C_16
REMARK    7  A    between atoms: C_16  and  O_18
REMARK                            x       y       z     vdW  Elec       q    Type
REMARK                         _______ _______ _______ _____ _____    ______ ____
ROOT
ATOM      1  C   UNL     1       3.395   5.775  18.763  0.00  0.00    +0.000 C 
ATOM      2  N   UNL     1       2.781   6.906  18.901  0.00  0.00    +0.000 NA
ENDROOT
BRANCH   1   6
ATOM      3  C   UNL     1       5.775   4.988  15.318  0.00  0.00    +0.000 A 
ATOM      4  C   UNL     1       5.318   3.926  16.113  0.00  0.00    +0.000 A 
ATOM      5  C   UNL     1       4.499   4.177  17.219  0.00  0.00    +0.000 A 
ATOM      6  C   UNL     1       4.158   5.493  17.534  0.00  0.00    +0.000 A 
ATOM      7  C   UNL     1       4.575   6.551  16.720  0.00  0.00    +0.000 A 
ATOM      8  C   UNL     1       5.365   6.296  15.602  0.00  0.00    +0.000 A 
BRANCH   3  10
ATOM      9  O   UNL     1       6.463   3.799  13.377  0.00  0.00    +0.000 OA
ATOM     10  C   UNL     1       6.680   4.692  14.175  0.00  0.00    +0.000 C 
BRANCH  10  11
ATOM     11  O   UNL     1       7.782   5.468  14.143  0.00  0.00    +0.000 OA
ATOM     12  H   UNL     1       7.627   6.425  14.210  0.00  0.00    +0.000 HD
ENDBRANCH  10  11
ENDBRANCH   3  10
ENDBRANCH   1   6
BRANCH   2  13
ATOM     13  O   UNL     1       2.182   6.963  20.166  0.00  0.00    +0.000 OA
BRANCH  13  14
ATOM     14  C   UNL     1       1.524   8.165  20.319  0.00  0.00    +0.000 A 
ATOM     15  C   UNL     1       1.437   8.967  19.180  0.00  0.00    +0.000 A 
ATOM     16  C   UNL     1       0.826  10.219  19.248  0.00  0.00    +0.000 A 
ATOM     17  C   UNL     1       0.287  10.662  20.456  0.00  0.00    +0.000 A 
ATOM     18  C   UNL     1       0.336   9.848  21.596  0.00  0.00    +0.000 A 
ATOM     19  C   UNL     1       0.955   8.594  21.527  0.00  0.00    +0.000 A 
BRANCH  18  20
ATOM     20  C   UNL     1      -0.218  10.402  22.859  0.00  0.00    +0.000 C 
ATOM     21  O   UNL     1      -0.592  11.559  22.957  0.00  0.00    +0.000 OA
BRANCH  20  22
ATOM     22  O   UNL     1      -0.309   9.519  23.875  0.00  0.00    +0.000 OA
ATOM     23  H   UNL     1      -0.203   8.583  23.629  0.00  0.00    +0.000 HD
ENDBRANCH  20  22
ENDBRANCH  18  20
ENDBRANCH  13  14
ENDBRANCH   2  13
TORSDOF 7
ENDMDL
MODEL 6
REMARK VINA RESULT:      -7.3      0.430      1.040
REMARK  Name = 
REMARK  7 active torsions:
REMARK  status: ('A' for Active; 'I' for Inactive)
REMARK    1  A    between atoms: C_2  and  O_3
REMARK    2  A    between atoms: C_2  and  C_4
REMARK    3  A    between atoms: C_7  and  C_8
REMARK    4  A    between atoms: N_9  and  O_10
REMARK    5  A    between atoms: O_10  and  C_11
REMARK    6  A    between atoms: C_15  and  C_16
REMARK    7  A    between atoms: C_16  and  O_18
REMARK                            x       y       z     vdW  Elec       q    Type
REMARK                         _______ _______ _______ _____ _____    ______ ____
ROOT
ATOM      1  C   UNL     1       5.162   5.135  16.667  0.00  0.00    +0.000 C 
ATOM      2  N   UNL     1       6.165   4.355  16.419  0.00  0.00    +0.000 NA
ENDROOT
BRANCH   1   6
ATOM      3  C   UNL     1       1.909   3.553  18.919  0.00  0.00    +0.000 A 
ATOM      4  C   UNL     1       2.419   4.825  19.220  0.00  0.00    +0.000 A 
ATOM      5  C   UNL     1       3.457   5.367  18.455  0.00  0.00    +0.000 A 
ATOM      6  C   UNL     1       3.992   4.623  17.402  0.00  0.00    +0.000 A 
ATOM      7  C   UNL     1       3.460   3.373  17.071  0.00  0.00    +0.000 A 
ATOM      8  C   UNL     1       2.406   2.848  17.816  0.00  0.00    +0.000 A 
BRANCH   3  10
ATOM      9  O   UNL     1      -0.056   2.284  19.343  0.00  0.00    +0.000 OA
ATOM     10  C   UNL     1       0.836   2.987  19.780  0.00  0.00    +0.000 C 
BRANCH  10  11
ATOM     11  O   UNL     1       0.919   3.370  21.069  0.00  0.00    +0.000 OA
ATOM     12  H   UNL     1       0.198   3.936  21.389  0.00  0.00    +0.000 HD
ENDBRANCH  10  11
ENDBRANCH   3  10
ENDBRANCH   1   6
BRANCH   2  13
ATOM     13  O   UNL     1       7.172   5.079  15.768  0.00  0.00    +0.000 OA
BRANCH  13  14
ATOM     14  C   UNL     1       7.142   4.813  14.416  0.00  0.00    +0.000 A 
ATOM     15  C   UNL     1       7.979   5.596  13.618  0.00  0.00    +0.000 A 
ATOM     16  C   UNL     1       7.985   5.427  12.233  0.00  0.00    +0.000 A 
ATOM     17  C   UNL     1       7.165   4.463  11.648  0.00  0.00    +0.000 A 
ATOM     18  C   UNL     1       6.349   3.647  12.444  0.00  0.00    +0.000 A 
ATOM     19  C   UNL     1       6.339   3.822  13.834  0.00  0.00    +0.000 A 
BRANCH  18  20
ATOM     20  C   UNL     1       5.468   2.671  11.750  0.00  0.00    +0.000 C 
ATOM     21  O   UNL     1       4.349   2.963  11.363  0.00  0.00    +0.000 OA
BRANCH  20  22
ATOM     22  O   UNL     1       6.014   1.454  11.551  0.00  0.00    +0.000 OA
ATOM     23  H   UNL     1       6.552   1.108  12.285  0.00  0.00    +0.000 HD
ENDBRANCH  20  22
ENDBRANCH  18  20
ENDBRANCH  13  14
ENDBRANCH   2  13
TORSDOF 7
ENDMDL
MODEL 7
REMARK VINA RESULT:      -7.2      4.195      5.651
REMARK  Name = 
REMARK  7 active torsions:
REMARK  status: ('A' for Active; 'I' for Inactive)
REMARK    1  A    between atoms: C_2  and  O_3
REMARK    2  A    between atoms: C_2  and  C_4
REMARK    3  A    between atoms: C_7  and  C_8
REMARK    4  A    between atoms: N_9  and  O_10
REMARK    5  A    between atoms: O_10  and  C_11
REMARK    6  A    between atoms: C_15  and  C_16
REMARK    7  A    between atoms: C_16  and  O_18
REMARK                            x       y       z     vdW  Elec       q    Type
REMARK                         _______ _______ _______ _____ _____    ______ ____
ROOT
ATOM      1  C   UNL     1       2.982   6.310  19.055  0.00  0.00    +0.000 C 
ATOM      2  N   UNL     1       2.872   5.483  18.065  0.00  0.00    +0.000 NA
ENDROOT
BRANCH   1   6
ATOM      3  C   UNL     1       1.012  10.088  19.083  0.00  0.00    +0.000 A 
ATOM      4  C   UNL     1       1.608   9.616  17.903  0.00  0.00    +0.000 A 
ATOM      5  C   UNL     1       2.218   8.356  17.878  0.00  0.00    +0.000 A 
ATOM      6  C   UNL     1       2.242   7.584  19.040  0.00  0.00    +0.000 A 
ATOM      7  C   UNL     1       1.612   8.031  20.206  0.00  0.00    +0.000 A 
ATOM      8  C   UNL     1       0.981   9.273  20.220  0.00  0.00    +0.000 A 
BRANCH   3  10
ATOM      9  O   UNL     1       0.609  12.251  19.984  0.00  0.00    +0.000 OA
ATOM     10  C   UNL     1       0.413  11.449  19.089  0.00  0.00    +0.000 C 
BRANCH  10  11
ATOM     11  O   UNL     1      -0.404  11.685  18.044  0.00  0.00    +0.000 OA
ATOM     12  H   UNL     1      -0.812  10.901  17.640  0.00  0.00    +0.000 HD
ENDBRANCH  10  11
ENDBRANCH   3  10
ENDBRANCH   1   6
BRANCH   2  13
ATOM     13  O   UNL     1       3.616   4.328  18.333  0.00  0.00    +0.000 OA
BRANCH  13  14
ATOM     14  C   UNL     1       4.862   4.427  17.752  0.00  0.00    +0.000 A 
ATOM     15  C   UNL     1       5.936   4.601  18.628  0.00  0.00    +0.000 A 
ATOM     16  C   UNL     1       7.229   4.753  18.128  0.00  0.00    +0.000 A 
ATOM     17  C   UNL     1       7.451   4.715  16.752  0.00  0.00    +0.000 A 
ATOM     18  C   UNL     1       6.385   4.503  15.867  0.00  0.00    +0.000 A 
ATOM     19  C   UNL     1       5.085   4.356  16.369  0.00  0.00    +0.000 A 
BRANCH  18  20
ATOM     20  C   UNL     1       6.687   4.518  14.412  0.00  0.00    +0.000 C 
ATOM     21  O   UNL     1       6.080   3.826  13.612  0.00  0.00    +0.000 OA
BRANCH  20  22
ATOM     22  O   UNL     1       7.654   5.382  14.041  0.00  0.00    +0.000 OA
ATOM     23  H   UNL     1       7.371   6.306  13.924  0.00  0.00    +0.000 HD
ENDBRANCH  20  22
ENDBRANCH  18  20
ENDBRANCH  13  14
ENDBRANCH   2  13
TORSDOF 7
ENDMDL
MODEL 8
REMARK VINA RESULT:      -7.2      3.791      5.313
REMARK  Name = 
REMARK  7 active torsions:
REMARK  status: ('A' for Active; 'I' for Inactive)
REMARK    1  A    between atoms: C_2  and  O_3
REMARK    2  A    between atoms: C_2  and  C_4
REMARK    3  A    between atoms: C_7  and  C_8
REMARK    4  A    between atoms: N_9  and  O_10
REMARK    5  A    between atoms: O_10  and  C_11
REMARK    6  A    between atoms: C_15  and  C_16
REMARK    7  A    between atoms: C_16  and  O_18
REMARK                            x       y       z     vdW  Elec       q    Type
REMARK                         _______ _______ _______ _____ _____    ______ ____
ROOT
ATOM      1  C   UNL     1       2.732   5.808  18.153  0.00  0.00    +0.000 C 
ATOM      2  N   UNL     1       2.976   4.768  18.883  0.00  0.00    +0.000 NA
ENDROOT
BRANCH   1   6
ATOM      3  C   UNL     1       1.151   9.351  19.915  0.00  0.00    +0.000 A 
ATOM      4  C   UNL     1       1.440   8.236  20.717  0.00  0.00    +0.000 A 
ATOM      5  C   UNL     1       2.000   7.087  20.149  0.00  0.00    +0.000 A 
ATOM      6  C   UNL     1       2.253   7.054  18.777  0.00  0.00    +0.000 A 
ATOM      7  C   UNL     1       2.007   8.177  17.981  0.00  0.00    +0.000 A 
ATOM      8  C   UNL     1       1.476   9.330  18.553  0.00  0.00    +0.000 A 
BRANCH   3  10
ATOM      9  O   UNL     1       1.094  11.255  21.337  0.00  0.00    +0.000 OA
ATOM     10  C   UNL     1       0.514  10.540  20.540  0.00  0.00    +0.000 C 
BRANCH  10  11
ATOM     11  O   UNL     1      -0.774  10.714  20.183  0.00  0.00    +0.000 OA
ATOM     12  H   UNL     1      -1.156  11.584  20.388  0.00  0.00    +0.000 HD
ENDBRANCH  10  11
ENDBRANCH   3  10
ENDBRANCH   1   6
BRANCH   2  13
ATOM     13  O   UNL     1       3.473   3.735  18.078  0.00  0.00    +0.000 OA
BRANCH  13  14
ATOM     14  C   UNL     1       4.739   4.054  17.634  0.00  0.00    +0.000 A 
ATOM     15  C   UNL     1       5.664   4.403  18.620  0.00  0.00    +0.000 A 
ATOM     16  C   UNL     1       6.959   4.781  18.264  0.00  0.00    +0.000 A 
ATOM     17  C   UNL     1       7.332   4.795  16.920  0.00  0.00    +0.000 A 
ATOM     18  C   UNL     1       6.422   4.410  15.926  0.00  0.00    +0.000 A 
ATOM     19  C   UNL     1       5.120   4.036  16.286  0.00  0.00    +0.000 A 
BRANCH  18  20
ATOM     20  C   UNL     1       6.873   4.491  14.512  0.00  0.00    +0.000 C 
ATOM     21  O   UNL     1       7.640   5.354  14.120  0.00  0.00    +0.000 OA
BRANCH  20  22
ATOM     22  O   UNL     1       6.398   3.518  13.708  0.00  0.00    +0.000 OA
ATOM     23  H   UNL     1       5.474   3.623  13.421  0.00  0.00    +0.000 HD
ENDBRANCH  20  22
ENDBRANCH  18  20
ENDBRANCH  13  14
ENDBRANCH   2  13
TORSDOF 7
ENDMDL
MODEL 9
REMARK VINA RESULT:      -7.1      4.013      5.452
REMARK  Name = 
REMARK  7 active torsions:
REMARK  status: ('A' for Active; 'I' for Inactive)
REMARK    1  A    between atoms: C_2  and  O_3
REMARK    2  A    between atoms: C_2  and  C_4
REMARK    3  A    between atoms: C_7  and  C_8
REMARK    4  A    between atoms: N_9  and  O_10
REMARK    5  A    between atoms: O_10  and  C_11
REMARK    6  A    between atoms: C_15  and  C_16
REMARK    7  A    between atoms: C_16  and  O_18
REMARK                            x       y       z     vdW  Elec       q    Type
REMARK                         _______ _______ _______ _____ _____    ______ ____
ROOT
ATOM      1  C   UNL     1       2.575   6.068  18.249  0.00  0.00    +0.000 C 
ATOM      2  N   UNL     1       3.246   5.242  18.986  0.00  0.00    +0.000 NA
ENDROOT
BRANCH   1   6
ATOM      3  C   UNL     1       1.078   9.743  19.799  0.00  0.00    +0.000 A 
ATOM      4  C   UNL     1       1.268   8.646  20.653  0.00  0.00    +0.000 A 
ATOM      5  C   UNL     1       1.801   7.451  20.156  0.00  0.00    +0.000 A 
ATOM      6  C   UNL     1       2.125   7.357  18.803  0.00  0.00    +0.000 A 
ATOM      7  C   UNL     1       1.978   8.460  17.956  0.00  0.00    +0.000 A 
ATOM      8  C   UNL     1       1.474   9.657  18.459  0.00  0.00    +0.000 A 
BRANCH   3  10
ATOM      9  O   UNL     1      -0.633  11.380  20.011  0.00  0.00    +0.000 OA
ATOM     10  C   UNL     1       0.468  10.983  20.348  0.00  0.00    +0.000 C 
BRANCH  10  11
ATOM     11  O   UNL     1       1.269  11.647  21.205  0.00  0.00    +0.000 OA
ATOM     12  H   UNL     1       1.392  12.593  21.022  0.00  0.00    +0.000 HD
ENDBRANCH  10  11
ENDBRANCH   3  10
ENDBRANCH   1   6
BRANCH   2  13
ATOM     13  O   UNL     1       3.610   4.123  18.227  0.00  0.00    +0.000 OA
BRANCH  13  14
ATOM     14  C   UNL     1       4.865   4.310  17.687  0.00  0.00    +0.000 A 
ATOM     15  C   UNL     1       5.891   4.569  18.598  0.00  0.00    +0.000 A 
ATOM     16  C   UNL     1       7.187   4.812  18.143  0.00  0.00    +0.000 A 
ATOM     17  C   UNL     1       7.459   4.781  16.775  0.00  0.00    +0.000 A 
ATOM     18  C   UNL     1       6.443   4.485  15.856  0.00  0.00    +0.000 A 
ATOM     19  C   UNL     1       5.140   4.247  16.315  0.00  0.00    +0.000 A 
BRANCH  18  20
ATOM     20  C   UNL     1       6.794   4.513  14.412  0.00  0.00    +0.000 C 
ATOM     21  O   UNL     1       6.282   3.759  13.601  0.00  0.00    +0.000 OA
BRANCH  20  22
ATOM     22  O   UNL     1       7.690   5.459  14.063  0.00  0.00    +0.000 OA
ATOM     23  H   UNL     1       8.490   5.134  13.613  0.00  0.00    +0.000 HD
ENDBRANCH  20  22
ENDBRANCH  18  20
ENDBRANCH  13  14
ENDBRANCH   2  13
TORSDOF 7
ENDMDL
