MODEL 1
REMARK VINA RESULT:      -8.1      0.000      0.000
REMARK  Name = 
REMARK  4 active torsions:
REMARK  status: ('A' for Active; 'I' for Inactive)
REMARK    1  A    between atoms: O_1  and  C_2
REMARK    2  A    between atoms: N_5  and  C_6
REMARK    3  A    between atoms: C_6  and  C_7
REMARK    4  A    between atoms: C_15  and  N_16
REMARK                            x       y       z     vdW  Elec       q    Type
REMARK                         _______ _______ _______ _____ _____    ______ ____
ROOT
ATOM      1  C   UNL     1       0.888  10.671  18.736  0.00  0.00    +0.000 C 
ATOM      2  C   UNL     1       1.325   9.662  17.683  0.00  0.00    +0.000 C 
ATOM      3  C   UNL     1       2.318   8.679  18.283  0.00  0.00    +0.000 C 
ATOM      4  N   UNL     1       1.651   7.873  19.306  0.00  0.00    +0.000 NA
ATOM      5  C   UNL     1       1.151   8.709  20.412  0.00  0.00    +0.000 C 
ATOM      6  C   UNL     1       0.371  10.009  20.042  0.00  0.00    +0.000 C 
ENDROOT
BRANCH   6   7
ATOM      7  N   UNL     1       0.365  10.897  21.247  0.00  0.00    +0.000 NA
ATOM      8  C   UNL     1      -0.852  10.802  22.057  0.00  0.00    +0.000 C 
ATOM      9  C   UNL     1      -1.005  12.014  22.996  0.00  0.00    +0.000 C 
ATOM     10  C   UNL     1      -1.200  13.311  22.170  0.00  0.00    +0.000 C 
ATOM     11  C   UNL     1      -0.806  14.581  22.930  0.00  0.00    +0.000 C 
ATOM     12  C   UNL     1      -1.842  15.395  23.184  0.00  0.00    +0.000 C 
ATOM     13  C   UNL     1      -3.042  14.713  22.742  0.00  0.00    +0.000 A 
ATOM     14  C   UNL     1      -4.356  14.990  23.071  0.00  0.00    +0.000 A 
ATOM     15  C   UNL     1      -5.345  14.082  22.703  0.00  0.00    +0.000 A 
ATOM     16  C   UNL     1      -5.017  12.951  21.946  0.00  0.00    +0.000 A 
ATOM     17  C   UNL     1      -3.694  12.698  21.574  0.00  0.00    +0.000 A 
ATOM     18  C   UNL     1      -2.700  13.556  22.031  0.00  0.00    +0.000 A 
ATOM     19  C   UNL     1      -0.379  13.274  20.872  0.00  0.00    +0.000 C 
ATOM     20  C   UNL     1       0.786  12.282  21.009  0.00  0.00    +0.000 C 
ENDBRANCH   6   7
BRANCH   1  21
ATOM     21  O   UNL     1      -0.118  11.518  18.165  0.00  0.00    +0.000 OA
ATOM     22  H   UNL     1      -0.131  11.359  17.206  0.00  0.00    +0.000 HD
ENDBRANCH   1  21
BRANCH   4  23
ATOM     23  C   UNL     1       2.588   6.852  19.808  0.00  0.00    +0.000 C 
BRANCH  23  24
ATOM     24  C   UNL     1       2.123   5.437  19.527  0.00  0.00    +0.000 A 
ATOM     25  C   UNL     1       2.182   4.927  18.218  0.00  0.00    +0.000 A 
ATOM     26  C   UNL     1       1.649   3.681  17.920  0.00  0.00    +0.000 A 
ATOM     27  C   UNL     1       1.062   2.932  18.935  0.00  0.00    +0.000 A 
ATOM     28  F   UNL     1       0.516   1.747  18.634  0.00  0.00    +0.000 F 
ATOM     29  C   UNL     1       0.999   3.408  20.234  0.00  0.00    +0.000 A 
ATOM     30  C   UNL     1       1.543   4.656  20.545  0.00  0.00    +0.000 A 
ENDBRANCH  23  24
ENDBRANCH   4  23
TORSDOF 4
ENDMDL
MODEL 2
REMARK VINA RESULT:      -8.0      3.052      4.247
REMARK  Name = 
REMARK  4 active torsions:
REMARK  status: ('A' for Active; 'I' for Inactive)
REMARK    1  A    between atoms: O_1  and  C_2
REMARK    2  A    between atoms: N_5  and  C_6
REMARK    3  A    between atoms: C_6  and  C_7
REMARK    4  A    between atoms: C_15  and  N_16
REMARK                            x       y       z     vdW  Elec       q    Type
REMARK                         _______ _______ _______ _____ _____    ______ ____
ROOT
ATOM      1  C   UNL     1       0.589   9.808  20.770  0.00  0.00    +0.000 C 
ATOM      2  C   UNL     1       1.312   8.719  21.550  0.00  0.00    +0.000 C 
ATOM      3  C   UNL     1       1.401   7.451  20.716  0.00  0.00    +0.000 C 
ATOM      4  N   UNL     1       2.253   7.692  19.550  0.00  0.00    +0.000 NA
ATOM      5  C   UNL     1       1.694   8.741  18.680  0.00  0.00    +0.000 C 
ATOM      6  C   UNL     1       1.189  10.053  19.359  0.00  0.00    +0.000 C 
ENDROOT
BRANCH   6   7
ATOM      7  N   UNL     1       0.283  10.748  18.393  0.00  0.00    +0.000 NA
ATOM      8  C   UNL     1      -0.253  12.021  18.881  0.00  0.00    +0.000 C 
ATOM      9  C   UNL     1      -1.489  12.464  18.074  0.00  0.00    +0.000 C 
ATOM     10  C   UNL     1      -2.651  11.460  18.280  0.00  0.00    +0.000 C 
ATOM     11  C   UNL     1      -3.677  11.477  17.142  0.00  0.00    +0.000 C 
ATOM     12  C   UNL     1      -4.888  11.913  17.521  0.00  0.00    +0.000 C 
ATOM     13  C   UNL     1      -4.776  12.348  18.898  0.00  0.00    +0.000 A 
ATOM     14  C   UNL     1      -5.641  13.153  19.616  0.00  0.00    +0.000 A 
ATOM     15  C   UNL     1      -5.240  13.622  20.865  0.00  0.00    +0.000 A 
ATOM     16  C   UNL     1      -4.015  13.217  21.410  0.00  0.00    +0.000 A 
ATOM     17  C   UNL     1      -3.164  12.365  20.702  0.00  0.00    +0.000 A 
ATOM     18  C   UNL     1      -3.526  11.982  19.415  0.00  0.00    +0.000 A 
ATOM     19  C   UNL     1      -2.128  10.021  18.411  0.00  0.00    +0.000 C 
ATOM     20  C   UNL     1      -0.739   9.901  17.768  0.00  0.00    +0.000 C 
ENDBRANCH   6   7
BRANCH   1  21
ATOM     21  O   UNL     1       0.610  11.014  21.545  0.00  0.00    +0.000 OA
ATOM     22  H   UNL     1       0.349  10.787  22.454  0.00  0.00    +0.000 HD
ENDBRANCH   1  21
BRANCH   4  23
ATOM     23  C   UNL     1       2.422   6.432  18.803  0.00  0.00    +0.000 C 
BRANCH  23  24
ATOM     24  C   UNL     1       3.871   6.132  18.477  0.00  0.00    +0.000 A 
ATOM     25  C   UNL     1       4.655   5.397  19.382  0.00  0.00    +0.000 A 
ATOM     26  C   UNL     1       6.014   5.216  19.158  0.00  0.00    +0.000 A 
ATOM     27  C   UNL     1       6.592   5.763  18.017  0.00  0.00    +0.000 A 
ATOM     28  F   UNL     1       7.910   5.617  17.825  0.00  0.00    +0.000 F 
ATOM     29  C   UNL     1       5.840   6.484  17.105  0.00  0.00    +0.000 A 
ATOM     30  C   UNL     1       4.471   6.661  17.317  0.00  0.00    +0.000 A 
ENDBRANCH  23  24
ENDBRANCH   4  23
TORSDOF 4
ENDMDL
MODEL 3
REMARK VINA RESULT:      -7.6      0.935      1.197
REMARK  Name = 
REMARK  4 active torsions:
REMARK  status: ('A' for Active; 'I' for Inactive)
REMARK    1  A    between atoms: O_1  and  C_2
REMARK    2  A    between atoms: N_5  and  C_6
REMARK    3  A    between atoms: C_6  and  C_7
REMARK    4  A    between atoms: C_15  and  N_16
REMARK                            x       y       z     vdW  Elec       q    Type
REMARK                         _______ _______ _______ _____ _____    ______ ____
ROOT
ATOM      1  C   UNL     1       0.982  10.260  18.638  0.00  0.00    +0.000 C 
ATOM      2  C   UNL     1       1.433   9.239  17.603  0.00  0.00    +0.000 C 
ATOM      3  C   UNL     1       2.496   8.328  18.196  0.00  0.00    +0.000 C 
ATOM      4  N   UNL     1       1.909   7.525  19.270  0.00  0.00    +0.000 NA
ATOM      5  C   UNL     1       1.408   8.373  20.366  0.00  0.00    +0.000 C 
ATOM      6  C   UNL     1       0.548   9.618  19.984  0.00  0.00    +0.000 C 
ENDROOT
BRANCH   6   7
ATOM      7  N   UNL     1       0.540  10.545  21.159  0.00  0.00    +0.000 NA
ATOM      8  C   UNL     1      -0.713  10.542  21.918  0.00  0.00    +0.000 C 
ATOM      9  C   UNL     1      -0.839  11.792  22.810  0.00  0.00    +0.000 C 
ATOM     10  C   UNL     1      -0.930  13.068  21.936  0.00  0.00    +0.000 C 
ATOM     11  C   UNL     1      -0.500  14.341  22.672  0.00  0.00    +0.000 C 
ATOM     12  C   UNL     1      -1.501  15.216  22.855  0.00  0.00    +0.000 C 
ATOM     13  C   UNL     1      -2.716  14.583  22.384  0.00  0.00    +0.000 A 
ATOM     14  C   UNL     1      -4.025  14.940  22.647  0.00  0.00    +0.000 A 
ATOM     15  C   UNL     1      -5.046  14.073  22.266  0.00  0.00    +0.000 A 
ATOM     16  C   UNL     1      -4.748  12.901  21.560  0.00  0.00    +0.000 A 
ATOM     17  C   UNL     1      -3.427  12.566  21.253  0.00  0.00    +0.000 A 
ATOM     18  C   UNL     1      -2.407  13.387  21.725  0.00  0.00    +0.000 A 
ATOM     19  C   UNL     1      -0.059  12.944  20.677  0.00  0.00    +0.000 C 
ATOM     20  C   UNL     1       1.044  11.898  20.895  0.00  0.00    +0.000 C 
ENDBRANCH   6   7
BRANCH   1  21
ATOM     21  O   UNL     1      -0.087  11.035  18.079  0.00  0.00    +0.000 OA
ATOM     22  H   UNL     1      -0.740  10.416  17.711  0.00  0.00    +0.000 HD
ENDBRANCH   1  21
BRANCH   4  23
ATOM     23  C   UNL     1       2.916   6.571  19.769  0.00  0.00    +0.000 C 
BRANCH  23  24
ATOM     24  C   UNL     1       2.892   5.250  19.026  0.00  0.00    +0.000 A 
ATOM     25  C   UNL     1       1.668   4.600  18.792  0.00  0.00    +0.000 A 
ATOM     26  C   UNL     1       1.636   3.334  18.222  0.00  0.00    +0.000 A 
ATOM     27  C   UNL     1       2.833   2.716  17.873  0.00  0.00    +0.000 A 
ATOM     28  F   UNL     1       2.798   1.481  17.358  0.00  0.00    +0.000 F 
ATOM     29  C   UNL     1       4.052   3.339  18.085  0.00  0.00    +0.000 A 
ATOM     30  C   UNL     1       4.092   4.617  18.647  0.00  0.00    +0.000 A 
ENDBRANCH  23  24
ENDBRANCH   4  23
TORSDOF 4
ENDMDL
MODEL 4
REMARK VINA RESULT:      -7.5      2.861      4.507
REMARK  Name = 
REMARK  4 active torsions:
REMARK  status: ('A' for Active; 'I' for Inactive)
REMARK    1  A    between atoms: O_1  and  C_2
REMARK    2  A    between atoms: N_5  and  C_6
REMARK    3  A    between atoms: C_6  and  C_7
REMARK    4  A    between atoms: C_15  and  N_16
REMARK                            x       y       z     vdW  Elec       q    Type
REMARK                         _______ _______ _______ _____ _____    ______ ____
ROOT
ATOM      1  C   UNL     1       0.548   9.370  21.484  0.00  0.00    +0.000 C 
ATOM      2  C   UNL     1       1.286   8.049  21.647  0.00  0.00    +0.000 C 
ATOM      3  C   UNL     1       1.342   7.315  20.317  0.00  0.00    +0.000 C 
ATOM      4  N   UNL     1       2.162   8.077  19.373  0.00  0.00    +0.000 NA
ATOM      5  C   UNL     1       1.585   9.406  19.107  0.00  0.00    +0.000 C 
ATOM      6  C   UNL     1       1.109  10.248  20.331  0.00  0.00    +0.000 C 
ENDROOT
BRANCH   6   7
ATOM      7  N   UNL     1       0.180  11.306  19.826  0.00  0.00    +0.000 NA
ATOM      8  C   UNL     1       0.602  11.926  18.568  0.00  0.00    +0.000 C 
ATOM      9  C   UNL     1      -0.114  13.269  18.329  0.00  0.00    +0.000 C 
ATOM     10  C   UNL     1       0.296  14.296  19.414  0.00  0.00    +0.000 C 
ATOM     11  C   UNL     1      -0.731  15.417  19.609  0.00  0.00    +0.000 C 
ATOM     12  C   UNL     1      -0.274  16.628  19.255  0.00  0.00    +0.000 C 
ATOM     13  C   UNL     1       1.041  16.438  18.676  0.00  0.00    +0.000 A 
ATOM     14  C   UNL     1       1.766  17.315  17.891  0.00  0.00    +0.000 A 
ATOM     15  C   UNL     1       2.921  16.855  17.264  0.00  0.00    +0.000 A 
ATOM     16  C   UNL     1       3.376  15.550  17.493  0.00  0.00    +0.000 A 
ATOM     17  C   UNL     1       2.666  14.681  18.326  0.00  0.00    +0.000 A 
ATOM     18  C   UNL     1       1.461  15.116  18.867  0.00  0.00    +0.000 A 
ATOM     19  C   UNL     1       0.503  13.616  20.775  0.00  0.00    +0.000 C 
ATOM     20  C   UNL     1      -0.262  12.285  20.825  0.00  0.00    +0.000 C 
ENDBRANCH   6   7
BRANCH   1  21
ATOM     21  O   UNL     1       0.599  10.078  22.730  0.00  0.00    +0.000 OA
ATOM     22  H   UNL     1      -0.214   9.872  23.221  0.00  0.00    +0.000 HD
ENDBRANCH   1  21
BRANCH   4  23
ATOM     23  C   UNL     1       2.301   7.309  18.121  0.00  0.00    +0.000 C 
BRANCH  23  24
ATOM     24  C   UNL     1       2.675   5.860  18.359  0.00  0.00    +0.000 A 
ATOM     25  C   UNL     1       3.920   5.542  18.928  0.00  0.00    +0.000 A 
ATOM     26  C   UNL     1       4.330   4.220  19.042  0.00  0.00    +0.000 A 
ATOM     27  C   UNL     1       3.486   3.207  18.595  0.00  0.00    +0.000 A 
ATOM     28  F   UNL     1       3.902   1.936  18.674  0.00  0.00    +0.000 F 
ATOM     29  C   UNL     1       2.250   3.493  18.040  0.00  0.00    +0.000 A 
ATOM     30  C   UNL     1       1.826   4.820  17.932  0.00  0.00    +0.000 A 
ENDBRANCH  23  24
ENDBRANCH   4  23
TORSDOF 4
ENDMDL
MODEL 5
REMARK VINA RESULT:      -7.4      3.294      4.873
REMARK  Name = 
REMARK  4 active torsions:
REMARK  status: ('A' for Active; 'I' for Inactive)
REMARK    1  A    between atoms: O_1  and  C_2
REMARK    2  A    between atoms: N_5  and  C_6
REMARK    3  A    between atoms: C_6  and  C_7
REMARK    4  A    between atoms: C_15  and  N_16
REMARK                            x       y       z     vdW  Elec       q    Type
REMARK                         _______ _______ _______ _____ _____    ______ ____
ROOT
ATOM      1  C   UNL     1       0.314   9.597  21.653  0.00  0.00    +0.000 C 
ATOM      2  C   UNL     1       1.028   8.269  21.860  0.00  0.00    +0.000 C 
ATOM      3  C   UNL     1       1.112   7.511  20.545  0.00  0.00    +0.000 C 
ATOM      4  N   UNL     1       1.969   8.244  19.612  0.00  0.00    +0.000 NA
ATOM      5  C   UNL     1       1.420   9.576  19.306  0.00  0.00    +0.000 C 
ATOM      6  C   UNL     1       0.920  10.446  20.502  0.00  0.00    +0.000 C 
ENDROOT
BRANCH   6   7
ATOM      7  N   UNL     1       0.022  11.508  19.951  0.00  0.00    +0.000 NA
ATOM      8  C   UNL     1       0.463  12.065  18.671  0.00  0.00    +0.000 C 
ATOM      9  C   UNL     1      -0.216  13.416  18.375  0.00  0.00    +0.000 C 
ATOM     10  C   UNL     1       0.221  14.475  19.419  0.00  0.00    +0.000 C 
ATOM     11  C   UNL     1      -0.776  15.630  19.565  0.00  0.00    +0.000 C 
ATOM     12  C   UNL     1      -0.285  16.813  19.164  0.00  0.00    +0.000 C 
ATOM     13  C   UNL     1       1.025  16.564  18.597  0.00  0.00    +0.000 A 
ATOM     14  C   UNL     1       1.776  17.388  17.779  0.00  0.00    +0.000 A 
ATOM     15  C   UNL     1       2.919  16.871  17.175  0.00  0.00    +0.000 A 
ATOM     16  C   UNL     1       3.337  15.565  17.458  0.00  0.00    +0.000 A 
ATOM     17  C   UNL     1       2.602  14.750  18.323  0.00  0.00    +0.000 A 
ATOM     18  C   UNL     1       1.409  15.239  18.843  0.00  0.00    +0.000 A 
ATOM     19  C   UNL     1       0.406  13.845  20.808  0.00  0.00    +0.000 C 
ATOM     20  C   UNL     1      -0.395  12.538  20.909  0.00  0.00    +0.000 C 
ENDBRANCH   6   7
BRANCH   1  21
ATOM     21  O   UNL     1       0.339  10.326  22.887  0.00  0.00    +0.000 OA
ATOM     22  H   UNL     1       0.998   9.906  23.466  0.00  0.00    +0.000 HD
ENDBRANCH   1  21
BRANCH   4  23
ATOM     23  C   UNL     1       2.133   7.452  18.379  0.00  0.00    +0.000 C 
BRANCH  23  24
ATOM     24  C   UNL     1       3.451   6.706  18.331  0.00  0.00    +0.000 A 
ATOM     25  C   UNL     1       4.337   6.916  17.260  0.00  0.00    +0.000 A 
ATOM     26  C   UNL     1       5.491   6.154  17.135  0.00  0.00    +0.000 A 
ATOM     27  C   UNL     1       5.769   5.182  18.092  0.00  0.00    +0.000 A 
ATOM     28  F   UNL     1       6.864   4.425  17.946  0.00  0.00    +0.000 F 
ATOM     29  C   UNL     1       4.917   4.961  19.161  0.00  0.00    +0.000 A 
ATOM     30  C   UNL     1       3.760   5.731  19.300  0.00  0.00    +0.000 A 
ENDBRANCH  23  24
ENDBRANCH   4  23
TORSDOF 4
ENDMDL
MODEL 6
REMARK VINA RESULT:      -7.4      4.391      8.547
REMARK  Name = 
REMARK  4 active torsions:
REMARK  status: ('A' for Active; 'I' for Inactive)
REMARK    1  A    between atoms: O_1  and  C_2
REMARK    2  A    between atoms: N_5  and  C_6
REMARK    3  A    between atoms: C_6  and  C_7
REMARK    4  A    between atoms: C_15  and  N_16
REMARK                            x       y       z     vdW  Elec       q    Type
REMARK                         _______ _______ _______ _____ _____    ______ ____
ROOT
ATOM      1  C   UNL     1      -1.213  15.769  23.107  0.00  0.00    +0.000 C 
ATOM      2  C   UNL     1      -2.337  16.522  23.804  0.00  0.00    +0.000 C 
ATOM      3  C   UNL     1      -3.508  16.710  22.853  0.00  0.00    +0.000 C 
ATOM      4  N   UNL     1      -4.089  15.405  22.530  0.00  0.00    +0.000 NA
ATOM      5  C   UNL     1      -3.115  14.535  21.847  0.00  0.00    +0.000 C 
ATOM      6  C   UNL     1      -1.679  14.440  22.451  0.00  0.00    +0.000 C 
ENDROOT
BRANCH   6   7
ATOM      7  N   UNL     1      -0.772  13.900  21.392  0.00  0.00    +0.000 NA
ATOM      8  C   UNL     1      -1.287  14.044  20.028  0.00  0.00    +0.000 C 
ATOM      9  C   UNL     1      -0.562  13.106  19.045  0.00  0.00    +0.000 C 
ATOM     10  C   UNL     1      -0.851  11.626  19.404  0.00  0.00    +0.000 C 
ATOM     11  C   UNL     1       0.215  10.656  18.886  0.00  0.00    +0.000 C 
ATOM     12  C   UNL     1      -0.241   9.810  17.950  0.00  0.00    +0.000 C 
ATOM     13  C   UNL     1      -1.605  10.196  17.651  0.00  0.00    +0.000 A 
ATOM     14  C   UNL     1      -2.375   9.848  16.556  0.00  0.00    +0.000 A 
ATOM     15  C   UNL     1      -3.590  10.497  16.357  0.00  0.00    +0.000 A 
ATOM     16  C   UNL     1      -4.055  11.428  17.295  0.00  0.00    +0.000 A 
ATOM     17  C   UNL     1      -3.297  11.743  18.426  0.00  0.00    +0.000 A 
ATOM     18  C   UNL     1      -2.039  11.165  18.565  0.00  0.00    +0.000 A 
ATOM     19  C   UNL     1      -0.956  11.432  20.924  0.00  0.00    +0.000 C 
ATOM     20  C   UNL     1      -0.222  12.565  21.656  0.00  0.00    +0.000 C 
ENDBRANCH   6   7
BRANCH   1  21
ATOM     21  O   UNL     1      -0.169  15.525  24.059  0.00  0.00    +0.000 OA
ATOM     22  H   UNL     1       0.129  16.385  24.399  0.00  0.00    +0.000 HD
ENDBRANCH   1  21
BRANCH   4  23
ATOM     23  C   UNL     1      -5.288  15.601  21.694  0.00  0.00    +0.000 C 
BRANCH  23  24
ATOM     24  C   UNL     1      -6.066  14.319  21.472  0.00  0.00    +0.000 A 
ATOM     25  C   UNL     1      -6.680  13.676  22.560  0.00  0.00    +0.000 A 
ATOM     26  C   UNL     1      -7.292  12.440  22.398  0.00  0.00    +0.000 A 
ATOM     27  C   UNL     1      -7.302  11.847  21.139  0.00  0.00    +0.000 A 
ATOM     28  F   UNL     1      -7.862  10.639  20.997  0.00  0.00    +0.000 F 
ATOM     29  C   UNL     1      -6.712  12.465  20.049  0.00  0.00    +0.000 A 
ATOM     30  C   UNL     1      -6.103  13.713  20.202  0.00  0.00    +0.000 A 
ENDBRANCH  23  24
ENDBRANCH   4  23
TORSDOF 4
ENDMDL
MODEL 7
REMARK VINA RESULT:      -7.3      3.791      5.187
REMARK  Name = 
REMARK  4 active torsions:
REMARK  status: ('A' for Active; 'I' for Inactive)
REMARK    1  A    between atoms: O_1  and  C_2
REMARK    2  A    between atoms: N_5  and  C_6
REMARK    3  A    between atoms: C_6  and  C_7
REMARK    4  A    between atoms: C_15  and  N_16
REMARK                            x       y       z     vdW  Elec       q    Type
REMARK                         _______ _______ _______ _____ _____    ______ ____
ROOT
ATOM      1  C   UNL     1      -0.610   9.944  22.661  0.00  0.00    +0.000 C 
ATOM      2  C   UNL     1      -0.021   9.037  21.589  0.00  0.00    +0.000 C 
ATOM      3  C   UNL     1      -0.366   9.571  20.208  0.00  0.00    +0.000 C 
ATOM      4  N   UNL     1       0.298  10.859  20.002  0.00  0.00    +0.000 NA
ATOM      5  C   UNL     1      -0.159  11.864  20.977  0.00  0.00    +0.000 C 
ATOM      6  C   UNL     1      -0.230  11.439  22.477  0.00  0.00    +0.000 C 
ENDROOT
BRANCH   6   7
ATOM      7  N   UNL     1      -1.115  12.413  23.188  0.00  0.00    +0.000 NA
ATOM      8  C   UNL     1      -2.485  11.940  23.396  0.00  0.00    +0.000 C 
ATOM      9  C   UNL     1      -3.446  13.102  23.711  0.00  0.00    +0.000 C 
ATOM     10  C   UNL     1      -3.555  14.053  22.492  0.00  0.00    +0.000 C 
ATOM     11  C   UNL     1      -4.000  15.471  22.865  0.00  0.00    +0.000 C 
ATOM     12  C   UNL     1      -5.203  15.800  22.371  0.00  0.00    +0.000 C 
ATOM     13  C   UNL     1      -5.743  14.618  21.730  0.00  0.00    +0.000 A 
ATOM     14  C   UNL     1      -7.052  14.363  21.365  0.00  0.00    +0.000 A 
ATOM     15  C   UNL     1      -7.394  13.078  20.952  0.00  0.00    +0.000 A 
ATOM     16  C   UNL     1      -6.409  12.089  20.835  0.00  0.00    +0.000 A 
ATOM     17  C   UNL     1      -5.078  12.363  21.159  0.00  0.00    +0.000 A 
ATOM     18  C   UNL     1      -4.763  13.620  21.667  0.00  0.00    +0.000 A 
ATOM     19  C   UNL     1      -2.213  14.168  21.753  0.00  0.00    +0.000 C 
ATOM     20  C   UNL     1      -1.057  13.793  22.692  0.00  0.00    +0.000 C 
ENDBRANCH   6   7
BRANCH   1  21
ATOM     21  O   UNL     1      -0.184   9.468  23.945  0.00  0.00    +0.000 OA
ATOM     22  H   UNL     1      -0.096  10.237  24.532  0.00  0.00    +0.000 HD
ENDBRANCH   1  21
BRANCH   4  23
ATOM     23  C   UNL     1       0.047  11.320  18.623  0.00  0.00    +0.000 C 
BRANCH  23  24
ATOM     24  C   UNL     1      -1.398  11.147  18.200  0.00  0.00    +0.000 A 
ATOM     25  C   UNL     1      -2.364  12.083  18.607  0.00  0.00    +0.000 A 
ATOM     26  C   UNL     1      -3.710  11.877  18.332  0.00  0.00    +0.000 A 
ATOM     27  C   UNL     1      -4.094  10.734  17.636  0.00  0.00    +0.000 A 
ATOM     28  F   UNL     1      -5.396  10.523  17.407  0.00  0.00    +0.000 F 
ATOM     29  C   UNL     1      -3.160   9.801  17.217  0.00  0.00    +0.000 A 
ATOM     30  C   UNL     1      -1.804  10.006  17.480  0.00  0.00    +0.000 A 
ENDBRANCH  23  24
ENDBRANCH   4  23
TORSDOF 4
ENDMDL
MODEL 8
REMARK VINA RESULT:      -7.3      2.222      3.374
REMARK  Name = 
REMARK  4 active torsions:
REMARK  status: ('A' for Active; 'I' for Inactive)
REMARK    1  A    between atoms: O_1  and  C_2
REMARK    2  A    between atoms: N_5  and  C_6
REMARK    3  A    between atoms: C_6  and  C_7
REMARK    4  A    between atoms: C_15  and  N_16
REMARK                            x       y       z     vdW  Elec       q    Type
REMARK                         _______ _______ _______ _____ _____    ______ ____
ROOT
ATOM      1  C   UNL     1       0.288   9.329  20.522  0.00  0.00    +0.000 C 
ATOM      2  C   UNL     1       1.117   8.251  21.207  0.00  0.00    +0.000 C 
ATOM      3  C   UNL     1       1.582   7.224  20.187  0.00  0.00    +0.000 C 
ATOM      4  N   UNL     1       2.509   7.855  19.246  0.00  0.00    +0.000 NA
ATOM      5  C   UNL     1       1.859   8.942  18.494  0.00  0.00    +0.000 C 
ATOM      6  C   UNL     1       1.002   9.969  19.300  0.00  0.00    +0.000 C 
ENDROOT
BRANCH   6   7
ATOM      7  N   UNL     1       0.104  10.673  18.333  0.00  0.00    +0.000 NA
ATOM      8  C   UNL     1      -0.393  11.967  18.807  0.00  0.00    +0.000 C 
ATOM      9  C   UNL     1      -1.625  12.430  18.007  0.00  0.00    +0.000 C 
ATOM     10  C   UNL     1      -2.812  11.461  18.241  0.00  0.00    +0.000 C 
ATOM     11  C   UNL     1      -3.850  11.488  17.114  0.00  0.00    +0.000 C 
ATOM     12  C   UNL     1      -5.044  11.962  17.500  0.00  0.00    +0.000 C 
ATOM     13  C   UNL     1      -4.905  12.415  18.869  0.00  0.00    +0.000 A 
ATOM     14  C   UNL     1      -5.740  13.253  19.584  0.00  0.00    +0.000 A 
ATOM     15  C   UNL     1      -5.313  13.731  20.820  0.00  0.00    +0.000 A 
ATOM     16  C   UNL     1      -4.093  13.302  21.358  0.00  0.00    +0.000 A 
ATOM     17  C   UNL     1      -3.273  12.416  20.655  0.00  0.00    +0.000 A 
ATOM     18  C   UNL     1      -3.660  12.024  19.377  0.00  0.00    +0.000 A 
ATOM     19  C   UNL     1      -2.326  10.011  18.389  0.00  0.00    +0.000 C 
ATOM     20  C   UNL     1      -0.947   9.844  17.733  0.00  0.00    +0.000 C 
ENDBRANCH   6   7
BRANCH   1  21
ATOM     21  O   UNL     1      -0.050  10.329  21.492  0.00  0.00    +0.000 OA
ATOM     22  H   UNL     1      -0.587   9.904  22.181  0.00  0.00    +0.000 HD
ENDBRANCH   1  21
BRANCH   4  23
ATOM     23  C   UNL     1       3.038   6.830  18.326  0.00  0.00    +0.000 C 
BRANCH  23  24
ATOM     24  C   UNL     1       2.674   5.420  18.745  0.00  0.00    +0.000 A 
ATOM     25  C   UNL     1       1.788   4.663  17.960  0.00  0.00    +0.000 A 
ATOM     26  C   UNL     1       1.350   3.417  18.389  0.00  0.00    +0.000 A 
ATOM     27  C   UNL     1       1.806   2.918  19.605  0.00  0.00    +0.000 A 
ATOM     28  F   UNL     1       1.350   1.734  20.031  0.00  0.00    +0.000 F 
ATOM     29  C   UNL     1       2.686   3.642  20.394  0.00  0.00    +0.000 A 
ATOM     30  C   UNL     1       3.141   4.890  19.964  0.00  0.00    +0.000 A 
ENDBRANCH  23  24
ENDBRANCH   4  23
TORSDOF 4
ENDMDL
MODEL 9
REMARK VINA RESULT:      -7.3      1.770      2.136
REMARK  Name = 
REMARK  4 active torsions:
REMARK  status: ('A' for Active; 'I' for Inactive)
REMARK    1  A    between atoms: O_1  and  C_2
REMARK    2  A    between atoms: N_5  and  C_6
REMARK    3  A    between atoms: C_6  and  C_7
REMARK    4  A    between atoms: C_15  and  N_16
REMARK                            x       y       z     vdW  Elec       q    Type
REMARK                         _______ _______ _______ _____ _____    ______ ____
ROOT
ATOM      1  C   UNL     1       1.116  10.060  18.559  0.00  0.00    +0.000 C 
ATOM      2  C   UNL     1       1.586   9.044  17.527  0.00  0.00    +0.000 C 
ATOM      3  C   UNL     1       2.635   8.128  18.136  0.00  0.00    +0.000 C 
ATOM      4  N   UNL     1       2.023   7.319  19.192  0.00  0.00    +0.000 NA
ATOM      5  C   UNL     1       1.501   8.161  20.283  0.00  0.00    +0.000 C 
ATOM      6  C   UNL     1       0.653   9.411  19.892  0.00  0.00    +0.000 C 
ENDROOT
BRANCH   6   7
ATOM      7  N   UNL     1       0.622  10.330  21.071  0.00  0.00    +0.000 NA
ATOM      8  C   UNL     1      -0.650  10.335  21.797  0.00  0.00    +0.000 C 
ATOM      9  C   UNL     1      -0.788  11.580  22.694  0.00  0.00    +0.000 C 
ATOM     10  C   UNL     1      -0.844  12.862  21.825  0.00  0.00    +0.000 C 
ATOM     11  C   UNL     1      -0.421  14.127  22.581  0.00  0.00    +0.000 C 
ATOM     12  C   UNL     1      -1.418  15.010  22.743  0.00  0.00    +0.000 C 
ATOM     13  C   UNL     1      -2.626  14.393  22.236  0.00  0.00    +0.000 A 
ATOM     14  C   UNL     1      -3.938  14.761  22.465  0.00  0.00    +0.000 A 
ATOM     15  C   UNL     1      -4.957  13.907  22.051  0.00  0.00    +0.000 A 
ATOM     16  C   UNL     1      -4.652  12.736  21.346  0.00  0.00    +0.000 A 
ATOM     17  C   UNL     1      -3.326  12.390  21.073  0.00  0.00    +0.000 A 
ATOM     18  C   UNL     1      -2.311  13.197  21.577  0.00  0.00    +0.000 A 
ATOM     19  C   UNL     1       0.059  12.738  20.589  0.00  0.00    +0.000 C 
ATOM     20  C   UNL     1       1.146  11.680  20.830  0.00  0.00    +0.000 C 
ENDBRANCH   6   7
BRANCH   1  21
ATOM     21  O   UNL     1       0.061  10.841  17.982  0.00  0.00    +0.000 OA
ATOM     22  H   UNL     1      -0.664  10.235  17.752  0.00  0.00    +0.000 HD
ENDBRANCH   1  21
BRANCH   4  23
ATOM     23  C   UNL     1       3.018   6.359  19.706  0.00  0.00    +0.000 C 
BRANCH  23  24
ATOM     24  C   UNL     1       3.724   5.597  18.602  0.00  0.00    +0.000 A 
ATOM     25  C   UNL     1       3.082   4.514  17.978  0.00  0.00    +0.000 A 
ATOM     26  C   UNL     1       3.756   3.730  17.051  0.00  0.00    +0.000 A 
ATOM     27  C   UNL     1       5.077   4.035  16.737  0.00  0.00    +0.000 A 
ATOM     28  F   UNL     1       5.734   3.253  15.871  0.00  0.00    +0.000 F 
ATOM     29  C   UNL     1       5.729   5.102  17.332  0.00  0.00    +0.000 A 
ATOM     30  C   UNL     1       5.054   5.903  18.256  0.00  0.00    +0.000 A 
ENDBRANCH  23  24
ENDBRANCH   4  23
TORSDOF 4
ENDMDL
