MODEL 1
REMARK VINA RESULT:      -8.8      0.000      0.000
REMARK  Name = 
REMARK  3 active torsions:
REMARK  status: ('A' for Active; 'I' for Inactive)
REMARK    1  A    between atoms: C_1  and  N_2
REMARK    2  A    between atoms: C_7  and  S_8
REMARK    3  A    between atoms: S_8  and  C_11
REMARK                            x       y       z     vdW  Elec       q    Type
REMARK                         _______ _______ _______ _____ _____    ______ ____
ROOT
ATOM      1  C   UNL     1       4.461   5.958  16.721  0.00  0.00    +0.000 C 
ATOM      2  N   UNL     1       3.638   6.067  17.903  0.00  0.00    +0.000 N 
ATOM      3  C   UNL     1       3.424   5.095  18.835  0.00  0.00    +0.000 A 
ATOM      4  C   UNL     1       2.499   5.550  19.756  0.00  0.00    +0.000 A 
ATOM      5  C   UNL     1       2.217   6.901  19.436  0.00  0.00    +0.000 A 
ATOM      6  C   UNL     1       1.432   7.896  20.044  0.00  0.00    +0.000 A 
ATOM      7  C   UNL     1       1.406   9.179  19.482  0.00  0.00    +0.000 A 
ATOM      8  C   UNL     1       2.147   9.486  18.339  0.00  0.00    +0.000 A 
ATOM      9  C   UNL     1       2.915   8.499  17.709  0.00  0.00    +0.000 A 
ATOM     10  C   UNL     1       2.947   7.214  18.278  0.00  0.00    +0.000 A 
ATOM     11  C   UNL     1       2.041   4.682  20.892  0.00  0.00    +0.000 C 
ATOM     12  C   UNL     1       0.932   3.711  20.528  0.00  0.00    +0.000 C 
ATOM     13  C   UNL     1       1.701   2.404  20.310  0.00  0.00    +0.000 C 
ATOM     14  C   UNL     1       3.174   2.799  19.928  0.00  0.00    +0.000 C 
ATOM     15  C   UNL     1       4.064   3.741  18.968  0.00  0.00    +0.000 C 
ATOM     16  N   UNL     1       3.137   3.716  21.128  0.00  0.00    +0.000 NA
ATOM     17  H   UNL     1       4.007   4.233  21.246  0.00  0.00    +0.000 HD
ENDROOT
BRANCH   7  18
ATOM     18  S   UNL     1       0.469  10.438  20.309  0.00  0.00    +0.000 S 
ATOM     19  O   UNL     1      -0.575   9.796  21.081  0.00  0.00    +0.000 OA
ATOM     20  O   UNL     1       1.386  11.396  20.895  0.00  0.00    +0.000 OA
BRANCH  18  21
ATOM     21  C   UNL     1      -0.373  11.327  19.093  0.00  0.00    +0.000 A 
ATOM     22  C   UNL     1      -0.134  12.626  18.691  0.00  0.00    +0.000 A 
ATOM     23  N   UNL     1      -1.003  12.912  17.671  0.00  0.00    +0.000 N 
ATOM     24  C   UNL     1      -1.797  11.821  17.400  0.00  0.00    +0.000 A 
ATOM     25  C   UNL     1      -2.792  11.654  16.429  0.00  0.00    +0.000 A 
ATOM     26  C   UNL     1      -3.447  10.421  16.376  0.00  0.00    +0.000 A 
ATOM     27  C   UNL     1      -3.132   9.403  17.272  0.00  0.00    +0.000 A 
ATOM     28  C   UNL     1      -2.135   9.585  18.239  0.00  0.00    +0.000 A 
ATOM     29  C   UNL     1      -1.441  10.812  18.300  0.00  0.00    +0.000 A 
ATOM     30  H   UNL     1      -1.052  13.791  17.172  0.00  0.00    +0.000 HD
ENDBRANCH  18  21
ENDBRANCH   7  18
TORSDOF 2
ENDMDL
MODEL 2
REMARK VINA RESULT:      -8.4      2.109      3.958
REMARK  Name = 
REMARK  3 active torsions:
REMARK  status: ('A' for Active; 'I' for Inactive)
REMARK    1  A    between atoms: C_1  and  N_2
REMARK    2  A    between atoms: C_7  and  S_8
REMARK    3  A    between atoms: S_8  and  C_11
REMARK                            x       y       z     vdW  Elec       q    Type
REMARK                         _______ _______ _______ _____ _____    ______ ____
ROOT
ATOM      1  C   UNL     1       3.275   2.394  18.486  0.00  0.00    +0.000 C 
ATOM      2  N   UNL     1       3.435   3.827  18.394  0.00  0.00    +0.000 N 
ATOM      3  C   UNL     1       4.255   4.498  17.536  0.00  0.00    +0.000 A 
ATOM      4  C   UNL     1       4.202   5.849  17.826  0.00  0.00    +0.000 A 
ATOM      5  C   UNL     1       3.223   6.023  18.834  0.00  0.00    +0.000 A 
ATOM      6  C   UNL     1       2.677   7.153  19.468  0.00  0.00    +0.000 A 
ATOM      7  C   UNL     1       1.660   6.977  20.415  0.00  0.00    +0.000 A 
ATOM      8  C   UNL     1       1.179   5.706  20.735  0.00  0.00    +0.000 A 
ATOM      9  C   UNL     1       1.728   4.569  20.129  0.00  0.00    +0.000 A 
ATOM     10  C   UNL     1       2.743   4.747  19.173  0.00  0.00    +0.000 A 
ATOM     11  C   UNL     1       5.027   6.841  17.060  0.00  0.00    +0.000 C 
ATOM     12  C   UNL     1       6.457   6.976  17.551  0.00  0.00    +0.000 C 
ATOM     13  C   UNL     1       7.228   6.104  16.554  0.00  0.00    +0.000 C 
ATOM     14  C   UNL     1       6.209   5.050  15.986  0.00  0.00    +0.000 C 
ATOM     15  C   UNL     1       5.084   3.971  16.398  0.00  0.00    +0.000 C 
ATOM     16  N   UNL     1       5.284   6.219  15.741  0.00  0.00    +0.000 NA
ATOM     17  H   UNL     1       4.394   5.930  15.339  0.00  0.00    +0.000 HD
ENDROOT
BRANCH   7  18
ATOM     18  S   UNL     1       0.935   8.421  21.146  0.00  0.00    +0.000 S 
ATOM     19  O   UNL     1      -0.418   8.099  21.548  0.00  0.00    +0.000 OA
ATOM     20  O   UNL     1       1.892   9.015  22.060  0.00  0.00    +0.000 OA
BRANCH  18  21
ATOM     21  C   UNL     1       0.750   9.590  19.890  0.00  0.00    +0.000 A 
ATOM     22  C   UNL     1       1.145   9.472  18.573  0.00  0.00    +0.000 A 
ATOM     23  N   UNL     1       0.761  10.613  17.920  0.00  0.00    +0.000 N 
ATOM     24  C   UNL     1       0.119  11.467  18.787  0.00  0.00    +0.000 A 
ATOM     25  C   UNL     1      -0.462  12.719  18.549  0.00  0.00    +0.000 A 
ATOM     26  C   UNL     1      -1.057  13.374  19.630  0.00  0.00    +0.000 A 
ATOM     27  C   UNL     1      -1.055  12.808  20.901  0.00  0.00    +0.000 A 
ATOM     28  C   UNL     1      -0.469  11.556  21.125  0.00  0.00    +0.000 A 
ATOM     29  C   UNL     1       0.119  10.861  20.047  0.00  0.00    +0.000 A 
ATOM     30  H   UNL     1       0.911  10.804  16.937  0.00  0.00    +0.000 HD
ENDBRANCH  18  21
ENDBRANCH   7  18
TORSDOF 2
ENDMDL
MODEL 3
REMARK VINA RESULT:      -8.3      1.418      1.680
REMARK  Name = 
REMARK  3 active torsions:
REMARK  status: ('A' for Active; 'I' for Inactive)
REMARK    1  A    between atoms: C_1  and  N_2
REMARK    2  A    between atoms: C_7  and  S_8
REMARK    3  A    between atoms: S_8  and  C_11
REMARK                            x       y       z     vdW  Elec       q    Type
REMARK                         _______ _______ _______ _____ _____    ______ ____
ROOT
ATOM      1  C   UNL     1       4.715   5.650  16.864  0.00  0.00    +0.000 C 
ATOM      2  N   UNL     1       3.783   5.881  17.945  0.00  0.00    +0.000 N 
ATOM      3  C   UNL     1       3.447   4.998  18.928  0.00  0.00    +0.000 A 
ATOM      4  C   UNL     1       2.451   5.552  19.710  0.00  0.00    +0.000 A 
ATOM      5  C   UNL     1       2.245   6.876  19.251  0.00  0.00    +0.000 A 
ATOM      6  C   UNL     1       1.437   7.938  19.692  0.00  0.00    +0.000 A 
ATOM      7  C   UNL     1       1.508   9.169  19.026  0.00  0.00    +0.000 A 
ATOM      8  C   UNL     1       2.367   9.358  17.942  0.00  0.00    +0.000 A 
ATOM      9  C   UNL     1       3.161   8.303  17.477  0.00  0.00    +0.000 A 
ATOM     10  C   UNL     1       3.096   7.071  18.150  0.00  0.00    +0.000 A 
ATOM     11  C   UNL     1       1.855   4.796  20.862  0.00  0.00    +0.000 C 
ATOM     12  C   UNL     1       0.758   3.824  20.469  0.00  0.00    +0.000 C 
ATOM     13  C   UNL     1       1.501   2.485  20.439  0.00  0.00    +0.000 C 
ATOM     14  C   UNL     1       3.018   2.811  20.177  0.00  0.00    +0.000 C 
ATOM     15  C   UNL     1       4.027   3.645  19.237  0.00  0.00    +0.000 C 
ATOM     16  N   UNL     1       2.892   3.828  21.286  0.00  0.00    +0.000 NA
ATOM     17  H   UNL     1       3.762   4.332  21.449  0.00  0.00    +0.000 HD
ENDROOT
BRANCH   7  18
ATOM     18  S   UNL     1       0.534  10.516  19.646  0.00  0.00    +0.000 S 
ATOM     19  O   UNL     1       0.103  10.186  20.988  0.00  0.00    +0.000 OA
ATOM     20  O   UNL     1       1.206  11.762  19.333  0.00  0.00    +0.000 OA
BRANCH  18  21
ATOM     21  C   UNL     1      -0.921  10.561  18.720  0.00  0.00    +0.000 A 
ATOM     22  C   UNL     1      -1.187   9.884  17.547  0.00  0.00    +0.000 A 
ATOM     23  N   UNL     1      -2.476  10.173  17.183  0.00  0.00    +0.000 N 
ATOM     24  C   UNL     1      -3.052  11.021  18.101  0.00  0.00    +0.000 A 
ATOM     25  C   UNL     1      -4.349  11.548  18.145  0.00  0.00    +0.000 A 
ATOM     26  C   UNL     1      -4.669  12.396  19.210  0.00  0.00    +0.000 A 
ATOM     27  C   UNL     1      -3.724  12.716  20.180  0.00  0.00    +0.000 A 
ATOM     28  C   UNL     1      -2.430  12.183  20.121  0.00  0.00    +0.000 A 
ATOM     29  C   UNL     1      -2.087  11.306  19.071  0.00  0.00    +0.000 A 
ATOM     30  H   UNL     1      -2.950   9.810  16.366  0.00  0.00    +0.000 HD
ENDBRANCH  18  21
ENDBRANCH   7  18
TORSDOF 2
ENDMDL
MODEL 4
REMARK VINA RESULT:      -8.3      1.276      1.534
REMARK  Name = 
REMARK  3 active torsions:
REMARK  status: ('A' for Active; 'I' for Inactive)
REMARK    1  A    between atoms: C_1  and  N_2
REMARK    2  A    between atoms: C_7  and  S_8
REMARK    3  A    between atoms: S_8  and  C_11
REMARK                            x       y       z     vdW  Elec       q    Type
REMARK                         _______ _______ _______ _____ _____    ______ ____
ROOT
ATOM      1  C   UNL     1       4.501   6.032  16.469  0.00  0.00    +0.000 C 
ATOM      2  N   UNL     1       3.774   5.763  17.689  0.00  0.00    +0.000 N 
ATOM      3  C   UNL     1       3.680   4.563  18.329  0.00  0.00    +0.000 A 
ATOM      4  C   UNL     1       2.816   4.690  19.400  0.00  0.00    +0.000 A 
ATOM      5  C   UNL     1       2.451   6.056  19.485  0.00  0.00    +0.000 A 
ATOM      6  C   UNL     1       1.678   6.796  20.396  0.00  0.00    +0.000 A 
ATOM      7  C   UNL     1       1.551   8.180  20.214  0.00  0.00    +0.000 A 
ATOM      8  C   UNL     1       2.180   8.832  19.152  0.00  0.00    +0.000 A 
ATOM      9  C   UNL     1       2.935   8.105  18.223  0.00  0.00    +0.000 A 
ATOM     10  C   UNL     1       3.069   6.718  18.411  0.00  0.00    +0.000 A 
ATOM     11  C   UNL     1       2.491   3.519  20.281  0.00  0.00    +0.000 C 
ATOM     12  C   UNL     1       1.399   2.615  19.739  0.00  0.00    +0.000 C 
ATOM     13  C   UNL     1       2.201   1.468  19.117  0.00  0.00    +0.000 C 
ATOM     14  C   UNL     1       3.620   2.045  18.760  0.00  0.00    +0.000 C 
ATOM     15  C   UNL     1       4.386   3.267  18.039  0.00  0.00    +0.000 C 
ATOM     16  N   UNL     1       3.643   2.597  20.166  0.00  0.00    +0.000 NA
ATOM     17  H   UNL     1       4.498   3.117  20.363  0.00  0.00    +0.000 HD
ENDROOT
BRANCH   7  18
ATOM     18  S   UNL     1       0.632   9.104  21.417  0.00  0.00    +0.000 S 
ATOM     19  O   UNL     1      -0.610   8.406  21.677  0.00  0.00    +0.000 OA
ATOM     20  O   UNL     1       1.530   9.508  22.482  0.00  0.00    +0.000 OA
BRANCH  18  21
ATOM     21  C   UNL     1       0.152  10.582  20.667  0.00  0.00    +0.000 A 
ATOM     22  C   UNL     1       0.512  11.862  21.036  0.00  0.00    +0.000 A 
ATOM     23  N   UNL     1      -0.056  12.729  20.139  0.00  0.00    +0.000 N 
ATOM     24  C   UNL     1      -0.773  12.033  19.193  0.00  0.00    +0.000 A 
ATOM     25  C   UNL     1      -1.485  12.504  18.082  0.00  0.00    +0.000 A 
ATOM     26  C   UNL     1      -2.128  11.560  17.276  0.00  0.00    +0.000 A 
ATOM     27  C   UNL     1      -2.076  10.203  17.580  0.00  0.00    +0.000 A 
ATOM     28  C   UNL     1      -1.361   9.748  18.696  0.00  0.00    +0.000 A 
ATOM     29  C   UNL     1      -0.683  10.676  19.513  0.00  0.00    +0.000 A 
ATOM     30  H   UNL     1       0.043  13.735  20.154  0.00  0.00    +0.000 HD
ENDBRANCH  18  21
ENDBRANCH   7  18
TORSDOF 2
ENDMDL
MODEL 5
REMARK VINA RESULT:      -7.9      1.752      3.392
REMARK  Name = 
REMARK  3 active torsions:
REMARK  status: ('A' for Active; 'I' for Inactive)
REMARK    1  A    between atoms: C_1  and  N_2
REMARK    2  A    between atoms: C_7  and  S_8
REMARK    3  A    between atoms: S_8  and  C_11
REMARK                            x       y       z     vdW  Elec       q    Type
REMARK                         _______ _______ _______ _____ _____    ______ ____
ROOT
ATOM      1  C   UNL     1       2.744   3.890  20.410  0.00  0.00    +0.000 C 
ATOM      2  N   UNL     1       2.987   5.018  19.540  0.00  0.00    +0.000 N 
ATOM      3  C   UNL     1       3.795   5.036  18.443  0.00  0.00    +0.000 A 
ATOM      4  C   UNL     1       3.843   6.323  17.940  0.00  0.00    +0.000 A 
ATOM      5  C   UNL     1       2.937   7.104  18.698  0.00  0.00    +0.000 A 
ATOM      6  C   UNL     1       2.500   8.437  18.611  0.00  0.00    +0.000 A 
ATOM      7  C   UNL     1       1.530   8.896  19.512  0.00  0.00    +0.000 A 
ATOM      8  C   UNL     1       0.991   8.054  20.487  0.00  0.00    +0.000 A 
ATOM      9  C   UNL     1       1.433   6.731  20.602  0.00  0.00    +0.000 A 
ATOM     10  C   UNL     1       2.399   6.269  19.691  0.00  0.00    +0.000 A 
ATOM     11  C   UNL     1       4.682   6.659  16.741  0.00  0.00    +0.000 C 
ATOM     12  C   UNL     1       6.143   6.921  17.056  0.00  0.00    +0.000 C 
ATOM     13  C   UNL     1       6.800   5.585  16.695  0.00  0.00    +0.000 C 
ATOM     14  C   UNL     1       5.687   4.481  16.818  0.00  0.00    +0.000 C 
ATOM     15  C   UNL     1       4.523   3.904  17.773  0.00  0.00    +0.000 C 
ATOM     16  N   UNL     1       4.823   5.397  15.982  0.00  0.00    +0.000 NA
ATOM     17  H   UNL     1       3.895   5.009  15.818  0.00  0.00    +0.000 HD
ENDROOT
BRANCH   7  18
ATOM     18  S   UNL     1       0.939  10.559  19.335  0.00  0.00    +0.000 S 
ATOM     19  O   UNL     1       0.644  11.081  20.654  0.00  0.00    +0.000 OA
ATOM     20  O   UNL     1       1.794  11.262  18.398  0.00  0.00    +0.000 OA
BRANCH  18  21
ATOM     21  C   UNL     1      -0.594  10.474  18.548  0.00  0.00    +0.000 A 
ATOM     22  C   UNL     1      -0.936   9.686  17.468  0.00  0.00    +0.000 A 
ATOM     23  N   UNL     1      -2.263   9.899  17.201  0.00  0.00    +0.000 N 
ATOM     24  C   UNL     1      -2.788  10.807  18.092  0.00  0.00    +0.000 A 
ATOM     25  C   UNL     1      -4.097  11.294  18.210  0.00  0.00    +0.000 A 
ATOM     26  C   UNL     1      -4.354  12.222  19.223  0.00  0.00    +0.000 A 
ATOM     27  C   UNL     1      -3.340  12.659  20.070  0.00  0.00    +0.000 A 
ATOM     28  C   UNL     1      -2.036  12.165  19.938  0.00  0.00    +0.000 A 
ATOM     29  C   UNL     1      -1.752  11.209  18.939  0.00  0.00    +0.000 A 
ATOM     30  H   UNL     1      -2.793   9.449  16.466  0.00  0.00    +0.000 HD
ENDBRANCH  18  21
ENDBRANCH   7  18
TORSDOF 2
ENDMDL
MODEL 6
REMARK VINA RESULT:      -7.9      1.427      2.523
REMARK  Name = 
REMARK  3 active torsions:
REMARK  status: ('A' for Active; 'I' for Inactive)
REMARK    1  A    between atoms: C_1  and  N_2
REMARK    2  A    between atoms: C_7  and  S_8
REMARK    3  A    between atoms: S_8  and  C_11
REMARK                            x       y       z     vdW  Elec       q    Type
REMARK                         _______ _______ _______ _____ _____    ______ ____
ROOT
ATOM      1  C   UNL     1       4.487   5.954  16.513  0.00  0.00    +0.000 C 
ATOM      2  N   UNL     1       3.702   5.831  17.720  0.00  0.00    +0.000 N 
ATOM      3  C   UNL     1       3.544   4.706  18.474  0.00  0.00    +0.000 A 
ATOM      4  C   UNL     1       2.639   4.966  19.486  0.00  0.00    +0.000 A 
ATOM      5  C   UNL     1       2.312   6.342  19.414  0.00  0.00    +0.000 A 
ATOM      6  C   UNL     1       1.523   7.192  20.208  0.00  0.00    +0.000 A 
ATOM      7  C   UNL     1       1.445   8.552  19.880  0.00  0.00    +0.000 A 
ATOM      8  C   UNL     1       2.139   9.074  18.787  0.00  0.00    +0.000 A 
ATOM      9  C   UNL     1       2.911   8.236  17.973  0.00  0.00    +0.000 A 
ATOM     10  C   UNL     1       2.995   6.874  18.308  0.00  0.00    +0.000 A 
ATOM     11  C   UNL     1       2.242   3.900  20.466  0.00  0.00    +0.000 C 
ATOM     12  C   UNL     1       1.147   2.974  19.971  0.00  0.00    +0.000 C 
ATOM     13  C   UNL     1       1.941   1.748  19.506  0.00  0.00    +0.000 C 
ATOM     14  C   UNL     1       3.390   2.249  19.157  0.00  0.00    +0.000 C 
ATOM     15  C   UNL     1       4.223   3.370  18.350  0.00  0.00    +0.000 C 
ATOM     16  N   UNL     1       3.370   2.943  20.499  0.00  0.00    +0.000 NA
ATOM     17  H   UNL     1       4.230   3.458  20.680  0.00  0.00    +0.000 HD
ENDROOT
BRANCH   7  18
ATOM     18  S   UNL     1       0.504   9.619  20.939  0.00  0.00    +0.000 S 
ATOM     19  O   UNL     1      -0.651   8.886  21.414  0.00  0.00    +0.000 OA
ATOM     20  O   UNL     1       1.411  10.301  21.841  0.00  0.00    +0.000 OA
BRANCH  18  21
ATOM     21  C   UNL     1      -0.150  10.871  19.950  0.00  0.00    +0.000 A 
ATOM     22  C   UNL     1      -1.354  10.860  19.274  0.00  0.00    +0.000 A 
ATOM     23  N   UNL     1      -1.494  12.074  18.654  0.00  0.00    +0.000 N 
ATOM     24  C   UNL     1      -0.407  12.874  18.920  0.00  0.00    +0.000 A 
ATOM     25  C   UNL     1      -0.143  14.191  18.523  0.00  0.00    +0.000 A 
ATOM     26  C   UNL     1       1.058  14.768  18.945  0.00  0.00    +0.000 A 
ATOM     27  C   UNL     1       1.965  14.050  19.719  0.00  0.00    +0.000 A 
ATOM     28  C   UNL     1       1.688  12.733  20.107  0.00  0.00    +0.000 A 
ATOM     29  C   UNL     1       0.473  12.133  19.715  0.00  0.00    +0.000 A 
ATOM     30  H   UNL     1      -2.286  12.356  18.092  0.00  0.00    +0.000 HD
ENDBRANCH  18  21
ENDBRANCH   7  18
TORSDOF 2
ENDMDL
MODEL 7
REMARK VINA RESULT:      -7.8      1.404      2.943
REMARK  Name = 
REMARK  3 active torsions:
REMARK  status: ('A' for Active; 'I' for Inactive)
REMARK    1  A    between atoms: C_1  and  N_2
REMARK    2  A    between atoms: C_7  and  S_8
REMARK    3  A    between atoms: S_8  and  C_11
REMARK                            x       y       z     vdW  Elec       q    Type
REMARK                         _______ _______ _______ _____ _____    ______ ____
ROOT
ATOM      1  C   UNL     1       1.722   4.362  21.170  0.00  0.00    +0.000 C 
ATOM      2  N   UNL     1       2.159   5.377  20.238  0.00  0.00    +0.000 N 
ATOM      3  C   UNL     1       2.971   5.190  19.159  0.00  0.00    +0.000 A 
ATOM      4  C   UNL     1       3.239   6.417  18.580  0.00  0.00    +0.000 A 
ATOM      5  C   UNL     1       2.469   7.384  19.271  0.00  0.00    +0.000 A 
ATOM      6  C   UNL     1       2.263   8.763  19.094  0.00  0.00    +0.000 A 
ATOM      7  C   UNL     1       1.376   9.434  19.946  0.00  0.00    +0.000 A 
ATOM      8  C   UNL     1       0.692   8.757  20.959  0.00  0.00    +0.000 A 
ATOM      9  C   UNL     1       0.905   7.388  21.162  0.00  0.00    +0.000 A 
ATOM     10  C   UNL     1       1.789   6.715  20.302  0.00  0.00    +0.000 A 
ATOM     11  C   UNL     1       4.135   6.532  17.381  0.00  0.00    +0.000 C 
ATOM     12  C   UNL     1       5.616   6.565  17.710  0.00  0.00    +0.000 C 
ATOM     13  C   UNL     1       6.043   5.118  17.444  0.00  0.00    +0.000 C 
ATOM     14  C   UNL     1       4.758   4.226  17.610  0.00  0.00    +0.000 C 
ATOM     15  C   UNL     1       3.505   3.912  18.574  0.00  0.00    +0.000 C 
ATOM     16  N   UNL     1       4.070   5.218  16.703  0.00  0.00    +0.000 NA
ATOM     17  H   UNL     1       3.091   4.982  16.544  0.00  0.00    +0.000 HD
ENDROOT
BRANCH   7  18
ATOM     18  S   UNL     1       1.075  11.158  19.657  0.00  0.00    +0.000 S 
ATOM     19  O   UNL     1       1.450  11.892  20.847  0.00  0.00    +0.000 OA
ATOM     20  O   UNL     1       1.577  11.506  18.342  0.00  0.00    +0.000 OA
BRANCH  18  21
ATOM     21  C   UNL     1      -0.634  11.364  19.539  0.00  0.00    +0.000 A 
ATOM     22  C   UNL     1      -1.451  12.075  20.393  0.00  0.00    +0.000 A 
ATOM     23  N   UNL     1      -2.727  12.013  19.897  0.00  0.00    +0.000 N 
ATOM     24  C   UNL     1      -2.751  11.279  18.733  0.00  0.00    +0.000 A 
ATOM     25  C   UNL     1      -3.822  10.984  17.880  0.00  0.00    +0.000 A 
ATOM     26  C   UNL     1      -3.556  10.207  16.749  0.00  0.00    +0.000 A 
ATOM     27  C   UNL     1      -2.274   9.729  16.494  0.00  0.00    +0.000 A 
ATOM     28  C   UNL     1      -1.213  10.030  17.357  0.00  0.00    +0.000 A 
ATOM     29  C   UNL     1      -1.448  10.832  18.494  0.00  0.00    +0.000 A 
ATOM     30  H   UNL     1      -3.539  12.452  20.311  0.00  0.00    +0.000 HD
ENDBRANCH  18  21
ENDBRANCH   7  18
TORSDOF 2
ENDMDL
MODEL 8
REMARK VINA RESULT:      -7.8      2.356      3.080
REMARK  Name = 
REMARK  3 active torsions:
REMARK  status: ('A' for Active; 'I' for Inactive)
REMARK    1  A    between atoms: C_1  and  N_2
REMARK    2  A    between atoms: C_7  and  S_8
REMARK    3  A    between atoms: S_8  and  C_11
REMARK                            x       y       z     vdW  Elec       q    Type
REMARK                         _______ _______ _______ _____ _____    ______ ____
ROOT
ATOM      1  C   UNL     1       5.414   4.743  17.362  0.00  0.00    +0.000 C 
ATOM      2  N   UNL     1       4.302   5.137  18.197  0.00  0.00    +0.000 N 
ATOM      3  C   UNL     1       3.736   4.398  19.194  0.00  0.00    +0.000 A 
ATOM      4  C   UNL     1       2.637   5.075  19.687  0.00  0.00    +0.000 A 
ATOM      5  C   UNL     1       2.593   6.334  19.039  0.00  0.00    +0.000 A 
ATOM      6  C   UNL     1       1.771   7.465  19.176  0.00  0.00    +0.000 A 
ATOM      7  C   UNL     1       2.034   8.597  18.393  0.00  0.00    +0.000 A 
ATOM      8  C   UNL     1       3.096   8.621  17.488  0.00  0.00    +0.000 A 
ATOM      9  C   UNL     1       3.910   7.493  17.323  0.00  0.00    +0.000 A 
ATOM     10  C   UNL     1       3.651   6.362  18.115  0.00  0.00    +0.000 A 
ATOM     11  C   UNL     1       1.789   4.491  20.780  0.00  0.00    +0.000 C 
ATOM     12  C   UNL     1       0.740   3.506  20.298  0.00  0.00    +0.000 C 
ATOM     13  C   UNL     1       1.405   2.155  20.580  0.00  0.00    +0.000 C 
ATOM     14  C   UNL     1       2.958   2.404  20.588  0.00  0.00    +0.000 C 
ATOM     15  C   UNL     1       4.174   3.082  19.775  0.00  0.00    +0.000 C 
ATOM     16  N   UNL     1       2.671   3.559  21.518  0.00  0.00    +0.000 NA
ATOM     17  H   UNL     1       3.518   4.057  21.789  0.00  0.00    +0.000 HD
ENDROOT
BRANCH   7  18
ATOM     18  S   UNL     1       1.029  10.038  18.637  0.00  0.00    +0.000 S 
ATOM     19  O   UNL     1       1.867  11.209  18.480  0.00  0.00    +0.000 OA
ATOM     20  O   UNL     1      -0.213   9.872  17.908  0.00  0.00    +0.000 OA
BRANCH  18  21
ATOM     21  C   UNL     1       0.561  10.058  20.297  0.00  0.00    +0.000 A 
ATOM     22  C   UNL     1       1.122   9.338  21.333  0.00  0.00    +0.000 A 
ATOM     23  N   UNL     1       0.473   9.694  22.486  0.00  0.00    +0.000 N 
ATOM     24  C   UNL     1      -0.495  10.635  22.218  0.00  0.00    +0.000 A 
ATOM     25  C   UNL     1      -1.369  11.296  23.090  0.00  0.00    +0.000 A 
ATOM     26  C   UNL     1      -2.261  12.219  22.537  0.00  0.00    +0.000 A 
ATOM     27  C   UNL     1      -2.289  12.457  21.166  0.00  0.00    +0.000 A 
ATOM     28  C   UNL     1      -1.409  11.787  20.307  0.00  0.00    +0.000 A 
ATOM     29  C   UNL     1      -0.482  10.867  20.840  0.00  0.00    +0.000 A 
ATOM     30  H   UNL     1       0.678   9.333  23.409  0.00  0.00    +0.000 HD
ENDBRANCH  18  21
ENDBRANCH   7  18
TORSDOF 2
ENDMDL
MODEL 9
REMARK VINA RESULT:      -7.8      2.000      2.743
REMARK  Name = 
REMARK  3 active torsions:
REMARK  status: ('A' for Active; 'I' for Inactive)
REMARK    1  A    between atoms: C_1  and  N_2
REMARK    2  A    between atoms: C_7  and  S_8
REMARK    3  A    between atoms: S_8  and  C_11
REMARK                            x       y       z     vdW  Elec       q    Type
REMARK                         _______ _______ _______ _____ _____    ______ ____
ROOT
ATOM      1  C   UNL     1       4.362   6.400  16.586  0.00  0.00    +0.000 C 
ATOM      2  N   UNL     1       3.650   6.052  17.794  0.00  0.00    +0.000 N 
ATOM      3  C   UNL     1       3.621   4.828  18.393  0.00  0.00    +0.000 A 
ATOM      4  C   UNL     1       2.749   4.872  19.466  0.00  0.00    +0.000 A 
ATOM      5  C   UNL     1       2.310   6.213  19.594  0.00  0.00    +0.000 A 
ATOM      6  C   UNL     1       1.496   6.879  20.527  0.00  0.00    +0.000 A 
ATOM      7  C   UNL     1       1.294   8.259  20.390  0.00  0.00    +0.000 A 
ATOM      8  C   UNL     1       1.889   8.979  19.352  0.00  0.00    +0.000 A 
ATOM      9  C   UNL     1       2.683   8.325  18.402  0.00  0.00    +0.000 A 
ATOM     10  C   UNL     1       2.892   6.943  18.545  0.00  0.00    +0.000 A 
ATOM     11  C   UNL     1       2.488   3.656  20.306  0.00  0.00    +0.000 C 
ATOM     12  C   UNL     1       1.447   2.713  19.732  0.00  0.00    +0.000 C 
ATOM     13  C   UNL     1       2.312   1.632  19.074  0.00  0.00    +0.000 C 
ATOM     14  C   UNL     1       3.697   2.298  18.741  0.00  0.00    +0.000 C 
ATOM     15  C   UNL     1       4.397   3.583  18.063  0.00  0.00    +0.000 C 
ATOM     16  N   UNL     1       3.689   2.803  20.164  0.00  0.00    +0.000 NA
ATOM     17  H   UNL     1       4.513   3.362  20.381  0.00  0.00    +0.000 HD
ENDROOT
BRANCH   7  18
ATOM     18  S   UNL     1       0.325   9.091  21.620  0.00  0.00    +0.000 S 
ATOM     19  O   UNL     1      -0.724   8.194  22.058  0.00  0.00    +0.000 OA
ATOM     20  O   UNL     1       1.218   9.750  22.553  0.00  0.00    +0.000 OA
BRANCH  18  21
ATOM     21  C   UNL     1      -0.506  10.379  20.829  0.00  0.00    +0.000 A 
ATOM     22  C   UNL     1      -0.769  10.500  19.479  0.00  0.00    +0.000 A 
ATOM     23  N   UNL     1      -1.491  11.651  19.298  0.00  0.00    +0.000 N 
ATOM     24  C   UNL     1      -1.705  12.275  20.505  0.00  0.00    +0.000 A 
ATOM     25  C   UNL     1      -2.412  13.449  20.795  0.00  0.00    +0.000 A 
ATOM     26  C   UNL     1      -2.472  13.857  22.131  0.00  0.00    +0.000 A 
ATOM     27  C   UNL     1      -1.835  13.130  23.132  0.00  0.00    +0.000 A 
ATOM     28  C   UNL     1      -1.130  11.959  22.826  0.00  0.00    +0.000 A 
ATOM     29  C   UNL     1      -1.073  11.510  21.489  0.00  0.00    +0.000 A 
ATOM     30  H   UNL     1      -1.833  11.993  18.409  0.00  0.00    +0.000 HD
ENDBRANCH  18  21
ENDBRANCH   7  18
TORSDOF 2
ENDMDL
