MODEL 1
REMARK VINA RESULT:      -8.3      0.000      0.000
REMARK  Name = 
REMARK  4 active torsions:
REMARK  status: ('A' for Active; 'I' for Inactive)
REMARK    1  A    between atoms: C_1  and  C_2
REMARK    2  A    between atoms: C_2  and  N_3
REMARK    3  A    between atoms: N_6  and  N_7
REMARK    4  A    between atoms: C_8  and  C_9
REMARK                            x       y       z     vdW  Elec       q    Type
REMARK                         _______ _______ _______ _____ _____    ______ ____
ROOT
ATOM      1  N   UNL     1       4.879   3.836  17.771  0.00  0.00    +0.000 N 
ATOM      2  C   UNL     1       4.987   5.031  18.497  0.00  0.00    +0.000 A 
ATOM      3  N   UNL     1       4.076   5.391  19.360  0.00  0.00    +0.000 NA
ATOM      4  C   UNL     1       2.961   4.565  19.565  0.00  0.00    +0.000 A 
ATOM      5  C   UNL     1       1.995   4.948  20.501  0.00  0.00    +0.000 A 
ATOM      6  C   UNL     1       0.857   4.159  20.717  0.00  0.00    +0.000 A 
ATOM      7  C   UNL     1       0.684   2.968  20.015  0.00  0.00    +0.000 A 
ATOM      8  C   UNL     1       1.635   2.579  19.076  0.00  0.00    +0.000 A 
ATOM      9  C   UNL     1       2.752   3.391  18.845  0.00  0.00    +0.000 A 
ATOM     10  C   UNL     1       3.711   3.066  17.781  0.00  0.00    +0.000 A 
ATOM     11  O   UNL     1       3.405   2.240  16.923  0.00  0.00    +0.000 OA
ENDROOT
BRANCH   1  15
ATOM     12  N   UNL     1       6.618   3.675  14.625  0.00  0.00    +0.000 N 
ATOM     13  C   UNL     1       5.619   4.060  15.496  0.00  0.00    +0.000 C 
ATOM     14  O   UNL     1       4.658   4.743  15.163  0.00  0.00    +0.000 OA
ATOM     15  N   UNL     1       5.817   3.520  16.754  0.00  0.00    +0.000 N 
ATOM     16  H   UNL     1       6.921   2.718  14.740  0.00  0.00    +0.000 HD
ATOM     17  H   UNL     1       6.776   3.473  17.076  0.00  0.00    +0.000 HD
BRANCH  12  19
ATOM     18  C   UNL     1       5.980   3.256  12.280  0.00  0.00    +0.000 C 
ATOM     19  C   UNL     1       6.608   4.211  13.277  0.00  0.00    +0.000 C 
ENDBRANCH  12  19
ENDBRANCH   1  15
BRANCH   2  20
ATOM     20  C   UNL     1       6.126   5.978  18.236  0.00  0.00    +0.000 A 
ATOM     21  C   UNL     1       7.292   5.824  19.002  0.00  0.00    +0.000 A 
ATOM     22  C   UNL     1       8.331   6.756  18.917  0.00  0.00    +0.000 A 
ATOM     23  C   UNL     1       8.211   7.856  18.071  0.00  0.00    +0.000 A 
ATOM     24  C   UNL     1       7.088   7.988  17.260  0.00  0.00    +0.000 A 
ATOM     25  C   UNL     1       6.070   7.031  17.315  0.00  0.00    +0.000 A 
ENDBRANCH   2  20
TORSDOF 3
ENDMDL
MODEL 2
REMARK VINA RESULT:      -8.0      1.071      1.071
REMARK  Name = 
REMARK  4 active torsions:
REMARK  status: ('A' for Active; 'I' for Inactive)
REMARK    1  A    between atoms: C_1  and  C_2
REMARK    2  A    between atoms: C_2  and  N_3
REMARK    3  A    between atoms: N_6  and  N_7
REMARK    4  A    between atoms: C_8  and  C_9
REMARK                            x       y       z     vdW  Elec       q    Type
REMARK                         _______ _______ _______ _____ _____    ______ ____
ROOT
ATOM      1  N   UNL     1       3.998   4.487  17.377  0.00  0.00    +0.000 N 
ATOM      2  C   UNL     1       4.710   5.008  18.467  0.00  0.00    +0.000 A 
ATOM      3  N   UNL     1       4.324   4.803  19.697  0.00  0.00    +0.000 NA
ATOM      4  C   UNL     1       3.168   4.045  19.936  0.00  0.00    +0.000 A 
ATOM      5  C   UNL     1       2.767   3.816  21.255  0.00  0.00    +0.000 A 
ATOM      6  C   UNL     1       1.606   3.081  21.532  0.00  0.00    +0.000 A 
ATOM      7  C   UNL     1       0.847   2.550  20.492  0.00  0.00    +0.000 A 
ATOM      8  C   UNL     1       1.232   2.776  19.174  0.00  0.00    +0.000 A 
ATOM      9  C   UNL     1       2.376   3.539  18.908  0.00  0.00    +0.000 A 
ATOM     10  C   UNL     1       2.741   3.891  17.530  0.00  0.00    +0.000 A 
ATOM     11  O   UNL     1       1.916   3.749  16.631  0.00  0.00    +0.000 OA
ENDROOT
BRANCH   1  15
ATOM     12  N   UNL     1       5.547   4.464  14.129  0.00  0.00    +0.000 N 
ATOM     13  C   UNL     1       5.306   4.025  15.416  0.00  0.00    +0.000 C 
ATOM     14  O   UNL     1       5.903   3.089  15.933  0.00  0.00    +0.000 OA
ATOM     15  N   UNL     1       4.365   4.819  16.047  0.00  0.00    +0.000 N 
ATOM     16  H   UNL     1       5.562   5.470  14.032  0.00  0.00    +0.000 HD
ATOM     17  H   UNL     1       3.597   5.146  15.475  0.00  0.00    +0.000 HD
BRANCH  12  19
ATOM     18  C   UNL     1       5.773   3.135  12.064  0.00  0.00    +0.000 C 
ATOM     19  C   UNL     1       6.455   3.701  13.294  0.00  0.00    +0.000 C 
ENDBRANCH  12  19
ENDBRANCH   1  15
BRANCH   2  20
ATOM     20  C   UNL     1       5.903   5.897  18.240  0.00  0.00    +0.000 A 
ATOM     21  C   UNL     1       7.071   5.620  18.966  0.00  0.00    +0.000 A 
ATOM     22  C   UNL     1       8.166   6.488  18.916  0.00  0.00    +0.000 A 
ATOM     23  C   UNL     1       8.101   7.646  18.146  0.00  0.00    +0.000 A 
ATOM     24  C   UNL     1       6.973   7.901  17.371  0.00  0.00    +0.000 A 
ATOM     25  C   UNL     1       5.896   7.008  17.389  0.00  0.00    +0.000 A 
ENDBRANCH   2  20
TORSDOF 3
ENDMDL
MODEL 3
REMARK VINA RESULT:      -7.8      0.235      1.028
REMARK  Name = 
REMARK  4 active torsions:
REMARK  status: ('A' for Active; 'I' for Inactive)
REMARK    1  A    between atoms: C_1  and  C_2
REMARK    2  A    between atoms: C_2  and  N_3
REMARK    3  A    between atoms: N_6  and  N_7
REMARK    4  A    between atoms: C_8  and  C_9
REMARK                            x       y       z     vdW  Elec       q    Type
REMARK                         _______ _______ _______ _____ _____    ______ ____
ROOT
ATOM      1  N   UNL     1       4.846   3.777  17.858  0.00  0.00    +0.000 N 
ATOM      2  C   UNL     1       4.879   4.948  18.630  0.00  0.00    +0.000 A 
ATOM      3  N   UNL     1       3.925   5.239  19.472  0.00  0.00    +0.000 NA
ATOM      4  C   UNL     1       2.840   4.361  19.609  0.00  0.00    +0.000 A 
ATOM      5  C   UNL     1       1.829   4.669  20.523  0.00  0.00    +0.000 A 
ATOM      6  C   UNL     1       0.718   3.827  20.672  0.00  0.00    +0.000 A 
ATOM      7  C   UNL     1       0.619   2.656  19.923  0.00  0.00    +0.000 A 
ATOM      8  C   UNL     1       1.617   2.341  19.004  0.00  0.00    +0.000 A 
ATOM      9  C   UNL     1       2.706   3.206  18.842  0.00  0.00    +0.000 A 
ATOM     10  C   UNL     1       3.712   2.960  17.800  0.00  0.00    +0.000 A 
ATOM     11  O   UNL     1       3.470   2.155  16.904  0.00  0.00    +0.000 OA
ENDROOT
BRANCH   1  15
ATOM     12  N   UNL     1       6.676   3.773  14.760  0.00  0.00    +0.000 N 
ATOM     13  C   UNL     1       5.630   4.080  15.608  0.00  0.00    +0.000 C 
ATOM     14  O   UNL     1       4.635   4.702  15.256  0.00  0.00    +0.000 OA
ATOM     15  N   UNL     1       5.830   3.538  16.865  0.00  0.00    +0.000 N 
ATOM     16  H   UNL     1       7.038   2.837  14.872  0.00  0.00    +0.000 HD
ATOM     17  H   UNL     1       6.781   3.550  17.213  0.00  0.00    +0.000 HD
BRANCH  12  19
ATOM     18  C   UNL     1       6.128   3.345  12.394  0.00  0.00    +0.000 C 
ATOM     19  C   UNL     1       6.666   4.325  13.418  0.00  0.00    +0.000 C 
ENDBRANCH  12  19
ENDBRANCH   1  15
BRANCH   2  20
ATOM     20  C   UNL     1       5.985   5.951  18.442  0.00  0.00    +0.000 A 
ATOM     21  C   UNL     1       5.770   6.996  17.530  0.00  0.00    +0.000 A 
ATOM     22  C   UNL     1       6.805   7.876  17.197  0.00  0.00    +0.000 A 
ATOM     23  C   UNL     1       8.066   7.716  17.766  0.00  0.00    +0.000 A 
ATOM     24  C   UNL     1       8.275   6.722  18.718  0.00  0.00    +0.000 A 
ATOM     25  C   UNL     1       7.227   5.871  19.083  0.00  0.00    +0.000 A 
ENDBRANCH   2  20
TORSDOF 3
ENDMDL
MODEL 4
REMARK VINA RESULT:      -7.7      1.083      1.478
REMARK  Name = 
REMARK  4 active torsions:
REMARK  status: ('A' for Active; 'I' for Inactive)
REMARK    1  A    between atoms: C_1  and  C_2
REMARK    2  A    between atoms: C_2  and  N_3
REMARK    3  A    between atoms: N_6  and  N_7
REMARK    4  A    between atoms: C_8  and  C_9
REMARK                            x       y       z     vdW  Elec       q    Type
REMARK                         _______ _______ _______ _____ _____    ______ ____
ROOT
ATOM      1  N   UNL     1       3.975   4.474  17.447  0.00  0.00    +0.000 N 
ATOM      2  C   UNL     1       4.618   4.969  18.592  0.00  0.00    +0.000 A 
ATOM      3  N   UNL     1       4.175   4.706  19.792  0.00  0.00    +0.000 NA
ATOM      4  C   UNL     1       3.029   3.911  19.941  0.00  0.00    +0.000 A 
ATOM      5  C   UNL     1       2.568   3.620  21.228  0.00  0.00    +0.000 A 
ATOM      6  C   UNL     1       1.414   2.847  21.416  0.00  0.00    +0.000 A 
ATOM      7  C   UNL     1       0.722   2.339  20.319  0.00  0.00    +0.000 A 
ATOM      8  C   UNL     1       1.167   2.627  19.031  0.00  0.00    +0.000 A 
ATOM      9  C   UNL     1       2.303   3.427  18.855  0.00  0.00    +0.000 A 
ATOM     10  C   UNL     1       2.728   3.843  17.512  0.00  0.00    +0.000 A 
ATOM     11  O   UNL     1       1.953   3.717  16.566  0.00  0.00    +0.000 OA
ENDROOT
BRANCH   1  15
ATOM     12  N   UNL     1       5.616   4.567  14.246  0.00  0.00    +0.000 N 
ATOM     13  C   UNL     1       5.313   4.062  15.495  0.00  0.00    +0.000 C 
ATOM     14  O   UNL     1       5.839   3.061  15.965  0.00  0.00    +0.000 OA
ATOM     15  N   UNL     1       4.400   4.868  16.152  0.00  0.00    +0.000 N 
ATOM     16  H   UNL     1       5.692   5.574  14.215  0.00  0.00    +0.000 HD
ATOM     17  H   UNL     1       3.669   5.276  15.582  0.00  0.00    +0.000 HD
BRANCH  12  19
ATOM     18  C   UNL     1       5.790   3.241  12.174  0.00  0.00    +0.000 C 
ATOM     19  C   UNL     1       6.504   3.806  13.387  0.00  0.00    +0.000 C 
ENDBRANCH  12  19
ENDBRANCH   1  15
BRANCH   2  20
ATOM     20  C   UNL     1       5.796   5.894  18.461  0.00  0.00    +0.000 A 
ATOM     21  C   UNL     1       5.671   6.992  17.595  0.00  0.00    +0.000 A 
ATOM     22  C   UNL     1       6.772   7.807  17.313  0.00  0.00    +0.000 A 
ATOM     23  C   UNL     1       8.010   7.529  17.887  0.00  0.00    +0.000 A 
ATOM     24  C   UNL     1       8.132   6.482  18.796  0.00  0.00    +0.000 A 
ATOM     25  C   UNL     1       7.021   5.694  19.110  0.00  0.00    +0.000 A 
ENDBRANCH   2  20
TORSDOF 3
ENDMDL
MODEL 5
REMARK VINA RESULT:      -7.5      2.267      6.715
REMARK  Name = 
REMARK  4 active torsions:
REMARK  status: ('A' for Active; 'I' for Inactive)
REMARK    1  A    between atoms: C_1  and  C_2
REMARK    2  A    between atoms: C_2  and  N_3
REMARK    3  A    between atoms: N_6  and  N_7
REMARK    4  A    between atoms: C_8  and  C_9
REMARK                            x       y       z     vdW  Elec       q    Type
REMARK                         _______ _______ _______ _____ _____    ______ ____
ROOT
ATOM      1  N   UNL     1       4.385   5.419  18.530  0.00  0.00    +0.000 N 
ATOM      2  C   UNL     1       3.944   4.099  18.356  0.00  0.00    +0.000 A 
ATOM      3  N   UNL     1       4.291   3.394  17.314  0.00  0.00    +0.000 NA
ATOM      4  C   UNL     1       5.124   3.969  16.343  0.00  0.00    +0.000 A 
ATOM      5  C   UNL     1       5.505   3.204  15.237  0.00  0.00    +0.000 A 
ATOM      6  C   UNL     1       6.319   3.752  14.235  0.00  0.00    +0.000 A 
ATOM      7  C   UNL     1       6.778   5.063  14.342  0.00  0.00    +0.000 A 
ATOM      8  C   UNL     1       6.400   5.837  15.436  0.00  0.00    +0.000 A 
ATOM      9  C   UNL     1       5.560   5.290  16.414  0.00  0.00    +0.000 A 
ATOM     10  C   UNL     1       5.053   6.116  17.517  0.00  0.00    +0.000 A 
ATOM     11  O   UNL     1       5.142   7.340  17.447  0.00  0.00    +0.000 OA
ENDROOT
BRANCH   1  15
ATOM     12  N   UNL     1       2.365   7.590  20.568  0.00  0.00    +0.000 N 
ATOM     13  C   UNL     1       2.707   6.882  19.433  0.00  0.00    +0.000 C 
ATOM     14  O   UNL     1       2.055   6.910  18.397  0.00  0.00    +0.000 OA
ATOM     15  N   UNL     1       3.902   6.207  19.606  0.00  0.00    +0.000 N 
ATOM     16  H   UNL     1       3.147   8.026  21.035  0.00  0.00    +0.000 HD
ATOM     17  H   UNL     1       4.060   5.801  20.520  0.00  0.00    +0.000 HD
BRANCH  12  19
ATOM     18  C   UNL     1       0.827   8.959  21.926  0.00  0.00    +0.000 C 
ATOM     19  C   UNL     1       1.099   8.299  20.588  0.00  0.00    +0.000 C 
ENDBRANCH  12  19
ENDBRANCH   1  15
BRANCH   2  20
ATOM     20  C   UNL     1       2.980   3.485  19.335  0.00  0.00    +0.000 A 
ATOM     21  C   UNL     1       1.616   3.507  19.009  0.00  0.00    +0.000 A 
ATOM     22  C   UNL     1       0.654   3.089  19.934  0.00  0.00    +0.000 A 
ATOM     23  C   UNL     1       1.045   2.652  21.196  0.00  0.00    +0.000 A 
ATOM     24  C   UNL     1       2.399   2.566  21.510  0.00  0.00    +0.000 A 
ATOM     25  C   UNL     1       3.361   2.944  20.569  0.00  0.00    +0.000 A 
ENDBRANCH   2  20
TORSDOF 3
ENDMDL
MODEL 6
REMARK VINA RESULT:      -7.5      1.995      4.490
REMARK  Name = 
REMARK  4 active torsions:
REMARK  status: ('A' for Active; 'I' for Inactive)
REMARK    1  A    between atoms: C_1  and  C_2
REMARK    2  A    between atoms: C_2  and  N_3
REMARK    3  A    between atoms: N_6  and  N_7
REMARK    4  A    between atoms: C_8  and  C_9
REMARK                            x       y       z     vdW  Elec       q    Type
REMARK                         _______ _______ _______ _____ _____    ______ ____
ROOT
ATOM      1  N   UNL     1       5.671   4.852  17.407  0.00  0.00    +0.000 N 
ATOM      2  C   UNL     1       5.167   4.176  16.286  0.00  0.00    +0.000 A 
ATOM      3  N   UNL     1       4.167   3.342  16.383  0.00  0.00    +0.000 NA
ATOM      4  C   UNL     1       3.583   3.115  17.638  0.00  0.00    +0.000 A 
ATOM      5  C   UNL     1       2.503   2.232  17.734  0.00  0.00    +0.000 A 
ATOM      6  C   UNL     1       1.907   1.964  18.974  0.00  0.00    +0.000 A 
ATOM      7  C   UNL     1       2.372   2.593  20.127  0.00  0.00    +0.000 A 
ATOM      8  C   UNL     1       3.451   3.468  20.046  0.00  0.00    +0.000 A 
ATOM      9  C   UNL     1       4.059   3.704  18.807  0.00  0.00    +0.000 A 
ATOM     10  C   UNL     1       5.269   4.532  18.708  0.00  0.00    +0.000 A 
ATOM     11  O   UNL     1       5.901   4.801  19.727  0.00  0.00    +0.000 OA
ENDROOT
BRANCH   1  15
ATOM     12  N   UNL     1       7.898   7.677  17.328  0.00  0.00    +0.000 N 
ATOM     13  C   UNL     1       6.683   7.030  17.440  0.00  0.00    +0.000 C 
ATOM     14  O   UNL     1       5.617   7.615  17.583  0.00  0.00    +0.000 OA
ATOM     15  N   UNL     1       6.831   5.661  17.302  0.00  0.00    +0.000 N 
ATOM     16  H   UNL     1       8.511   7.287  16.627  0.00  0.00    +0.000 HD
ATOM     17  H   UNL     1       7.659   5.255  17.721  0.00  0.00    +0.000 HD
BRANCH  12  19
ATOM     18  C   UNL     1       8.818   9.516  18.690  0.00  0.00    +0.000 C 
ATOM     19  C   UNL     1       7.939   9.114  17.521  0.00  0.00    +0.000 C 
ENDBRANCH  12  19
ENDBRANCH   1  15
BRANCH   2  20
ATOM     20  C   UNL     1       5.829   4.332  14.944  0.00  0.00    +0.000 A 
ATOM     21  C   UNL     1       5.236   3.690  13.846  0.00  0.00    +0.000 A 
ATOM     22  C   UNL     1       5.874   3.670  12.602  0.00  0.00    +0.000 A 
ATOM     23  C   UNL     1       7.113   4.286  12.444  0.00  0.00    +0.000 A 
ATOM     24  C   UNL     1       7.681   4.980  13.508  0.00  0.00    +0.000 A 
ATOM     25  C   UNL     1       7.022   5.036  14.740  0.00  0.00    +0.000 A 
ENDBRANCH   2  20
TORSDOF 3
ENDMDL
MODEL 7
REMARK VINA RESULT:      -7.1      2.346      6.649
REMARK  Name = 
REMARK  4 active torsions:
REMARK  status: ('A' for Active; 'I' for Inactive)
REMARK    1  A    between atoms: C_1  and  C_2
REMARK    2  A    between atoms: C_2  and  N_3
REMARK    3  A    between atoms: N_6  and  N_7
REMARK    4  A    between atoms: C_8  and  C_9
REMARK                            x       y       z     vdW  Elec       q    Type
REMARK                         _______ _______ _______ _____ _____    ______ ____
ROOT
ATOM      1  N   UNL     1       4.209   5.702  18.560  0.00  0.00    +0.000 N 
ATOM      2  C   UNL     1       3.783   4.369  18.474  0.00  0.00    +0.000 A 
ATOM      3  N   UNL     1       4.163   3.592  17.495  0.00  0.00    +0.000 NA
ATOM      4  C   UNL     1       5.016   4.103  16.506  0.00  0.00    +0.000 A 
ATOM      5  C   UNL     1       5.431   3.263  15.468  0.00  0.00    +0.000 A 
ATOM      6  C   UNL     1       6.265   3.744  14.450  0.00  0.00    +0.000 A 
ATOM      7  C   UNL     1       6.711   5.064  14.471  0.00  0.00    +0.000 A 
ATOM      8  C   UNL     1       6.299   5.912  15.495  0.00  0.00    +0.000 A 
ATOM      9  C   UNL     1       5.439   5.429  16.490  0.00  0.00    +0.000 A 
ATOM     10  C   UNL     1       4.897   6.330  17.516  0.00  0.00    +0.000 A 
ATOM     11  O   UNL     1       4.978   7.546  17.358  0.00  0.00    +0.000 OA
ENDROOT
BRANCH   1  15
ATOM     12  N   UNL     1       2.137   8.023  20.369  0.00  0.00    +0.000 N 
ATOM     13  C   UNL     1       2.518   7.241  19.296  0.00  0.00    +0.000 C 
ATOM     14  O   UNL     1       1.911   7.213  18.232  0.00  0.00    +0.000 OA
ATOM     15  N   UNL     1       3.693   6.562  19.564  0.00  0.00    +0.000 N 
ATOM     16  H   UNL     1       2.906   8.477  20.842  0.00  0.00    +0.000 HD
ATOM     17  H   UNL     1       3.804   6.212  20.507  0.00  0.00    +0.000 HD
BRANCH  12  19
ATOM     18  C   UNL     1       0.061   8.623  21.557  0.00  0.00    +0.000 C 
ATOM     19  C   UNL     1       0.884   8.749  20.289  0.00  0.00    +0.000 C 
ENDBRANCH  12  19
ENDBRANCH   1  15
BRANCH   2  20
ATOM     20  C   UNL     1       2.801   3.819  19.471  0.00  0.00    +0.000 A 
ATOM     21  C   UNL     1       3.310   3.308  20.676  0.00  0.00    +0.000 A 
ATOM     22  C   UNL     1       2.472   2.650  21.582  0.00  0.00    +0.000 A 
ATOM     23  C   UNL     1       1.121   2.489  21.291  0.00  0.00    +0.000 A 
ATOM     24  C   UNL     1       0.591   3.046  20.130  0.00  0.00    +0.000 A 
ATOM     25  C   UNL     1       1.421   3.741  19.246  0.00  0.00    +0.000 A 
ENDBRANCH   2  20
TORSDOF 3
ENDMDL
MODEL 8
REMARK VINA RESULT:      -7.0      9.199     10.649
REMARK  Name = 
REMARK  4 active torsions:
REMARK  status: ('A' for Active; 'I' for Inactive)
REMARK    1  A    between atoms: C_1  and  C_2
REMARK    2  A    between atoms: C_2  and  N_3
REMARK    3  A    between atoms: N_6  and  N_7
REMARK    4  A    between atoms: C_8  and  C_9
REMARK                            x       y       z     vdW  Elec       q    Type
REMARK                         _______ _______ _______ _____ _____    ______ ____
ROOT
ATOM      1  N   UNL     1      -2.889  12.168  19.426  0.00  0.00    +0.000 N 
ATOM      2  C   UNL     1      -1.707  11.881  20.124  0.00  0.00    +0.000 A 
ATOM      3  N   UNL     1      -1.656  11.926  21.428  0.00  0.00    +0.000 NA
ATOM      4  C   UNL     1      -2.810  12.269  22.148  0.00  0.00    +0.000 A 
ATOM      5  C   UNL     1      -2.754  12.300  23.545  0.00  0.00    +0.000 A 
ATOM      6  C   UNL     1      -3.881  12.660  24.297  0.00  0.00    +0.000 A 
ATOM      7  C   UNL     1      -5.081  12.970  23.661  0.00  0.00    +0.000 A 
ATOM      8  C   UNL     1      -5.148  12.949  22.270  0.00  0.00    +0.000 A 
ATOM      9  C   UNL     1      -4.007  12.619  21.528  0.00  0.00    +0.000 A 
ATOM     10  C   UNL     1      -4.015  12.701  20.061  0.00  0.00    +0.000 A 
ATOM     11  O   UNL     1      -4.924  13.304  19.495  0.00  0.00    +0.000 OA
ENDROOT
BRANCH   1  15
ATOM     12  N   UNL     1      -3.333  11.355  15.948  0.00  0.00    +0.000 N 
ATOM     13  C   UNL     1      -3.379  11.138  17.311  0.00  0.00    +0.000 C 
ATOM     14  O   UNL     1      -3.750  10.085  17.816  0.00  0.00    +0.000 OA
ATOM     15  N   UNL     1      -2.894  12.230  18.008  0.00  0.00    +0.000 N 
ATOM     16  H   UNL     1      -2.508  11.848  15.636  0.00  0.00    +0.000 HD
ATOM     17  H   UNL     1      -3.128  13.142  17.634  0.00  0.00    +0.000 HD
BRANCH  12  19
ATOM     18  C   UNL     1      -2.892   9.932  13.982  0.00  0.00    +0.000 C 
ATOM     19  C   UNL     1      -3.873  10.338  15.065  0.00  0.00    +0.000 C 
ENDBRANCH  12  19
ENDBRANCH   1  15
BRANCH   2  20
ATOM     20  C   UNL     1      -0.433  11.596  19.377  0.00  0.00    +0.000 A 
ATOM     21  C   UNL     1      -0.178  10.266  19.007  0.00  0.00    +0.000 A 
ATOM     22  C   UNL     1       1.050   9.905  18.443  0.00  0.00    +0.000 A 
ATOM     23  C   UNL     1       2.037  10.868  18.250  0.00  0.00    +0.000 A 
ATOM     24  C   UNL     1       1.774  12.200  18.555  0.00  0.00    +0.000 A 
ATOM     25  C   UNL     1       0.530  12.566  19.078  0.00  0.00    +0.000 A 
ENDBRANCH   2  20
TORSDOF 3
ENDMDL
MODEL 9
REMARK VINA RESULT:      -7.0      1.982      4.387
REMARK  Name = 
REMARK  4 active torsions:
REMARK  status: ('A' for Active; 'I' for Inactive)
REMARK    1  A    between atoms: C_1  and  C_2
REMARK    2  A    between atoms: C_2  and  N_3
REMARK    3  A    between atoms: N_6  and  N_7
REMARK    4  A    between atoms: C_8  and  C_9
REMARK                            x       y       z     vdW  Elec       q    Type
REMARK                         _______ _______ _______ _____ _____    ______ ____
ROOT
ATOM      1  N   UNL     1       5.672   4.789  17.446  0.00  0.00    +0.000 N 
ATOM      2  C   UNL     1       5.219   4.047  16.345  0.00  0.00    +0.000 A 
ATOM      3  N   UNL     1       4.220   3.213  16.448  0.00  0.00    +0.000 NA
ATOM      4  C   UNL     1       3.584   3.054  17.687  0.00  0.00    +0.000 A 
ATOM      5  C   UNL     1       2.505   2.171  17.788  0.00  0.00    +0.000 A 
ATOM      6  C   UNL     1       1.858   1.969  19.015  0.00  0.00    +0.000 A 
ATOM      7  C   UNL     1       2.271   2.665  20.149  0.00  0.00    +0.000 A 
ATOM      8  C   UNL     1       3.348   3.543  20.064  0.00  0.00    +0.000 A 
ATOM      9  C   UNL     1       4.007   3.712  18.840  0.00  0.00    +0.000 A 
ATOM     10  C   UNL     1       5.216   4.541  18.745  0.00  0.00    +0.000 A 
ATOM     11  O   UNL     1       5.804   4.872  19.773  0.00  0.00    +0.000 OA
ENDROOT
BRANCH   1  15
ATOM     12  N   UNL     1       7.894   7.619  17.346  0.00  0.00    +0.000 N 
ATOM     13  C   UNL     1       6.678   6.970  17.450  0.00  0.00    +0.000 C 
ATOM     14  O   UNL     1       5.608   7.556  17.561  0.00  0.00    +0.000 OA
ATOM     15  N   UNL     1       6.832   5.600  17.344  0.00  0.00    +0.000 N 
ATOM     16  H   UNL     1       8.519   7.215  16.663  0.00  0.00    +0.000 HD
ATOM     17  H   UNL     1       7.654   5.205  17.786  0.00  0.00    +0.000 HD
BRANCH  12  19
ATOM     18  C   UNL     1       8.803   9.490  18.670  0.00  0.00    +0.000 C 
ATOM     19  C   UNL     1       7.927   9.060  17.508  0.00  0.00    +0.000 C 
ENDBRANCH  12  19
ENDBRANCH   1  15
BRANCH   2  20
ATOM     20  C   UNL     1       5.936   4.132  15.026  0.00  0.00    +0.000 A 
ATOM     21  C   UNL     1       7.081   4.940  14.956  0.00  0.00    +0.000 A 
ATOM     22  C   UNL     1       7.711   5.182  13.731  0.00  0.00    +0.000 A 
ATOM     23  C   UNL     1       7.198   4.624  12.563  0.00  0.00    +0.000 A 
ATOM     24  C   UNL     1       6.101   3.771  12.627  0.00  0.00    +0.000 A 
ATOM     25  C   UNL     1       5.499   3.495  13.858  0.00  0.00    +0.000 A 
ENDBRANCH   2  20
TORSDOF 3
ENDMDL
