MODEL 1
REMARK VINA RESULT:      -7.5      0.000      0.000
REMARK  Name = 
REMARK  6 active torsions:
REMARK  status: ('A' for Active; 'I' for Inactive)
REMARK    1  A    between atoms: C_1  and  N_2
REMARK    2  A    between atoms: C_4  and  C_5
REMARK    3  A    between atoms: N_7  and  C_8
REMARK    4  A    between atoms: C_8  and  C_9
REMARK    5  A    between atoms: C_9  and  C_10
REMARK    6  A    between atoms: C_18  and  C_19
REMARK                            x       y       z     vdW  Elec       q    Type
REMARK                         _______ _______ _______ _____ _____    ______ ____
ROOT
ATOM      1  C   UNL     1       2.045   4.635  17.928  0.00  0.00    +0.000 C 
ATOM      2  O   UNL     1       1.238   4.124  17.153  0.00  0.00    +0.000 OA
ATOM      3  N   UNL     1       1.999   6.001  18.074  0.00  0.00    +0.000 N 
ATOM      4  H   UNL     1       1.273   6.426  17.511  0.00  0.00    +0.000 HD
ENDROOT
BRANCH   1   8
ATOM      5  C   UNL     1       4.191   1.719  21.351  0.00  0.00    +0.000 C 
ATOM      6  N   UNL     1       3.976   2.567  20.205  0.00  0.00    +0.000 N 
ATOM      7  C   UNL     1       2.795   3.127  19.845  0.00  0.00    +0.000 A 
ATOM      8  C   UNL     1       3.012   3.838  18.680  0.00  0.00    +0.000 A 
ATOM      9  C   UNL     1       4.421   3.672  18.443  0.00  0.00    +0.000 A 
ATOM     10  N   UNL     1       4.982   2.895  19.396  0.00  0.00    +0.000 NA
BRANCH   9  11
ATOM     11  C   UNL     1       5.265   4.196  17.367  0.00  0.00    +0.000 A 
ATOM     12  C   UNL     1       4.877   4.201  16.025  0.00  0.00    +0.000 A 
ATOM     13  C   UNL     1       5.732   4.718  15.052  0.00  0.00    +0.000 A 
ATOM     14  C   UNL     1       6.967   5.201  15.450  0.00  0.00    +0.000 A 
ATOM     15  N   UNL     1       7.395   5.199  16.728  0.00  0.00    +0.000 NA
ATOM     16  C   UNL     1       6.534   4.698  17.650  0.00  0.00    +0.000 A 
ENDBRANCH   9  11
ENDBRANCH   1   8
BRANCH   3  17
ATOM     17  C   UNL     1       2.831   6.881  18.877  0.00  0.00    +0.000 C 
BRANCH  17  18
ATOM     18  C   UNL     1       2.062   7.400  20.092  0.00  0.00    +0.000 C 
BRANCH  18  19
ATOM     19  C   UNL     1       1.368   8.710  19.767  0.00  0.00    +0.000 C 
ATOM     20  O   UNL     1       1.506   9.230  18.658  0.00  0.00    +0.000 OA
ATOM     21  N   UNL     1       0.620   9.315  20.775  0.00  0.00    +0.000 N 
ATOM     22  C   UNL     1      -0.058  10.567  20.435  0.00  0.00    +0.000 C 
ATOM     23  C   UNL     1      -0.203  11.487  21.642  0.00  0.00    +0.000 C 
ATOM     24  C   UNL     1      -0.854  10.766  22.816  0.00  0.00    +0.000 C 
ATOM     25  C   UNL     1      -0.085   9.494  23.151  0.00  0.00    +0.000 C 
ATOM     26  C   UNL     1       0.074   8.596  21.929  0.00  0.00    +0.000 C 
ENDBRANCH  18  19
ENDBRANCH  17  18
ENDBRANCH   3  17
TORSDOF 5
ENDMDL
MODEL 2
REMARK VINA RESULT:      -7.4      5.220      7.771
REMARK  Name = 
REMARK  6 active torsions:
REMARK  status: ('A' for Active; 'I' for Inactive)
REMARK    1  A    between atoms: C_1  and  N_2
REMARK    2  A    between atoms: C_4  and  C_5
REMARK    3  A    between atoms: N_7  and  C_8
REMARK    4  A    between atoms: C_8  and  C_9
REMARK    5  A    between atoms: C_9  and  C_10
REMARK    6  A    between atoms: C_18  and  C_19
REMARK                            x       y       z     vdW  Elec       q    Type
REMARK                         _______ _______ _______ _____ _____    ______ ____
ROOT
ATOM      1  C   UNL     1       7.515   5.772  18.658  0.00  0.00    +0.000 C 
ATOM      2  O   UNL     1       7.555   4.901  19.525  0.00  0.00    +0.000 OA
ATOM      3  N   UNL     1       8.121   6.972  18.944  0.00  0.00    +0.000 N 
ATOM      4  H   UNL     1       8.546   6.981  19.862  0.00  0.00    +0.000 HD
ENDROOT
BRANCH   1   8
ATOM      5  C   UNL     1       6.649   4.657  13.879  0.00  0.00    +0.000 C 
ATOM      6  N   UNL     1       6.479   5.086  15.245  0.00  0.00    +0.000 N 
ATOM      7  C   UNL     1       7.446   5.107  16.195  0.00  0.00    +0.000 A 
ATOM      8  C   UNL     1       6.866   5.554  17.367  0.00  0.00    +0.000 A 
ATOM      9  C   UNL     1       5.507   5.831  16.984  0.00  0.00    +0.000 A 
ATOM     10  N   UNL     1       5.304   5.540  15.680  0.00  0.00    +0.000 NA
BRANCH   9  11
ATOM     11  C   UNL     1       4.388   6.344  17.779  0.00  0.00    +0.000 A 
ATOM     12  C   UNL     1       3.881   5.684  18.901  0.00  0.00    +0.000 A 
ATOM     13  C   UNL     1       2.815   6.232  19.612  0.00  0.00    +0.000 A 
ATOM     14  C   UNL     1       2.269   7.424  19.166  0.00  0.00    +0.000 A 
ATOM     15  N   UNL     1       2.708   8.088  18.078  0.00  0.00    +0.000 NA
ATOM     16  C   UNL     1       3.754   7.531  17.415  0.00  0.00    +0.000 A 
ENDBRANCH   9  11
ENDBRANCH   1   8
BRANCH   3  17
ATOM     17  C   UNL     1       8.210   8.184  18.147  0.00  0.00    +0.000 C 
BRANCH  17  18
ATOM     18  C   UNL     1       8.938   9.288  18.913  0.00  0.00    +0.000 C 
BRANCH  18  19
ATOM     19  C   UNL     1       8.899  10.593  18.139  0.00  0.00    +0.000 C 
ATOM     20  O   UNL     1       7.965  10.836  17.374  0.00  0.00    +0.000 OA
ATOM     21  N   UNL     1       9.972  11.470  18.293  0.00  0.00    +0.000 N 
ATOM     22  C   UNL     1       9.905  12.733  17.555  0.00  0.00    +0.000 C 
ATOM     23  C   UNL     1      11.288  13.252  17.180  0.00  0.00    +0.000 C 
ATOM     24  C   UNL     1      12.201  13.331  18.398  0.00  0.00    +0.000 C 
ATOM     25  C   UNL     1      12.264  11.981  19.103  0.00  0.00    +0.000 C 
ATOM     26  C   UNL     1      10.873  11.463  19.449  0.00  0.00    +0.000 C 
ENDBRANCH  18  19
ENDBRANCH  17  18
ENDBRANCH   3  17
TORSDOF 5
ENDMDL
MODEL 3
REMARK VINA RESULT:      -7.4      2.223      4.017
REMARK  Name = 
REMARK  6 active torsions:
REMARK  status: ('A' for Active; 'I' for Inactive)
REMARK    1  A    between atoms: C_1  and  N_2
REMARK    2  A    between atoms: C_4  and  C_5
REMARK    3  A    between atoms: N_7  and  C_8
REMARK    4  A    between atoms: C_8  and  C_9
REMARK    5  A    between atoms: C_9  and  C_10
REMARK    6  A    between atoms: C_18  and  C_19
REMARK                            x       y       z     vdW  Elec       q    Type
REMARK                         _______ _______ _______ _____ _____    ______ ____
ROOT
ATOM      1  C   UNL     1       4.405   4.028  16.876  0.00  0.00    +0.000 C 
ATOM      2  O   UNL     1       4.116   2.870  17.170  0.00  0.00    +0.000 OA
ATOM      3  N   UNL     1       3.783   5.032  17.582  0.00  0.00    +0.000 N 
ATOM      4  H   UNL     1       3.150   4.674  18.285  0.00  0.00    +0.000 HD
ENDROOT
BRANCH   1   8
ATOM      5  C   UNL     1       6.822   4.292  12.526  0.00  0.00    +0.000 C 
ATOM      6  N   UNL     1       6.467   4.447  13.916  0.00  0.00    +0.000 N 
ATOM      7  C   UNL     1       5.353   3.950  14.508  0.00  0.00    +0.000 A 
ATOM      8  C   UNL     1       5.378   4.345  15.832  0.00  0.00    +0.000 A 
ATOM      9  C   UNL     1       6.621   5.060  15.946  0.00  0.00    +0.000 A 
ATOM     10  N   UNL     1       7.265   5.099  14.759  0.00  0.00    +0.000 NA
BRANCH   9  11
ATOM     11  C   UNL     1       7.230   5.715  17.106  0.00  0.00    +0.000 A 
ATOM     12  C   UNL     1       7.492   7.087  17.159  0.00  0.00    +0.000 A 
ATOM     13  C   UNL     1       8.073   7.643  18.297  0.00  0.00    +0.000 A 
ATOM     14  C   UNL     1       8.394   6.805  19.351  0.00  0.00    +0.000 A 
ATOM     15  N   UNL     1       8.180   5.473  19.340  0.00  0.00    +0.000 NA
ATOM     16  C   UNL     1       7.604   4.966  18.220  0.00  0.00    +0.000 A 
ENDBRANCH   9  11
ENDBRANCH   1   8
BRANCH   3  17
ATOM     17  C   UNL     1       3.892   6.474  17.442  0.00  0.00    +0.000 C 
BRANCH  17  18
ATOM     18  C   UNL     1       2.564   7.155  17.772  0.00  0.00    +0.000 C 
BRANCH  18  19
ATOM     19  C   UNL     1       2.348   7.210  19.273  0.00  0.00    +0.000 C 
ATOM     20  O   UNL     1       2.844   6.354  20.006  0.00  0.00    +0.000 OA
ATOM     21  N   UNL     1       1.537   8.228  19.774  0.00  0.00    +0.000 N 
ATOM     22  C   UNL     1       1.359   8.277  21.226  0.00  0.00    +0.000 C 
ATOM     23  C   UNL     1       0.003   8.854  21.618  0.00  0.00    +0.000 C 
ATOM     24  C   UNL     1      -0.242  10.201  20.950  0.00  0.00    +0.000 C 
ATOM     25  C   UNL     1      -0.082  10.082  19.439  0.00  0.00    +0.000 C 
ATOM     26  C   UNL     1       1.267   9.481  19.063  0.00  0.00    +0.000 C 
ENDBRANCH  18  19
ENDBRANCH  17  18
ENDBRANCH   3  17
TORSDOF 5
ENDMDL
MODEL 4
REMARK VINA RESULT:      -7.3      5.233      7.152
REMARK  Name = 
REMARK  6 active torsions:
REMARK  status: ('A' for Active; 'I' for Inactive)
REMARK    1  A    between atoms: C_1  and  N_2
REMARK    2  A    between atoms: C_4  and  C_5
REMARK    3  A    between atoms: N_7  and  C_8
REMARK    4  A    between atoms: C_8  and  C_9
REMARK    5  A    between atoms: C_9  and  C_10
REMARK    6  A    between atoms: C_18  and  C_19
REMARK                            x       y       z     vdW  Elec       q    Type
REMARK                         _______ _______ _______ _____ _____    ______ ____
ROOT
ATOM      1  C   UNL     1       7.479   6.035  18.569  0.00  0.00    +0.000 C 
ATOM      2  O   UNL     1       7.607   5.417  19.623  0.00  0.00    +0.000 OA
ATOM      3  N   UNL     1       8.075   7.272  18.487  0.00  0.00    +0.000 N 
ATOM      4  H   UNL     1       8.569   7.518  19.335  0.00  0.00    +0.000 HD
ENDROOT
BRANCH   1   8
ATOM      5  C   UNL     1       6.291   3.837  14.257  0.00  0.00    +0.000 C 
ATOM      6  N   UNL     1       6.206   4.540  15.513  0.00  0.00    +0.000 N 
ATOM      7  C   UNL     1       7.249   4.844  16.323  0.00  0.00    +0.000 A 
ATOM      8  C   UNL     1       6.738   5.490  17.432  0.00  0.00    +0.000 A 
ATOM      9  C   UNL     1       5.329   5.569  17.155  0.00  0.00    +0.000 A 
ATOM     10  N   UNL     1       5.037   4.985  15.972  0.00  0.00    +0.000 NA
BRANCH   9  11
ATOM     11  C   UNL     1       4.242   6.155  17.944  0.00  0.00    +0.000 A 
ATOM     12  C   UNL     1       3.584   7.333  17.583  0.00  0.00    +0.000 A 
ATOM     13  C   UNL     1       2.556   7.832  18.381  0.00  0.00    +0.000 A 
ATOM     14  C   UNL     1       2.226   7.144  19.537  0.00  0.00    +0.000 A 
ATOM     15  N   UNL     1       2.845   6.015  19.938  0.00  0.00    +0.000 NA
ATOM     16  C   UNL     1       3.834   5.552  19.133  0.00  0.00    +0.000 A 
ENDBRANCH   9  11
ENDBRANCH   1   8
BRANCH   3  17
ATOM     17  C   UNL     1       8.072   8.238  17.403  0.00  0.00    +0.000 C 
BRANCH  17  18
ATOM     18  C   UNL     1       7.720   9.634  17.917  0.00  0.00    +0.000 C 
BRANCH  18  19
ATOM     19  C   UNL     1       8.870  10.215  18.719  0.00  0.00    +0.000 C 
ATOM     20  O   UNL     1       9.565   9.488  19.429  0.00  0.00    +0.000 OA
ATOM     21  N   UNL     1       9.073  11.593  18.655  0.00  0.00    +0.000 N 
ATOM     22  C   UNL     1      10.200  12.131  19.419  0.00  0.00    +0.000 C 
ATOM     23  C   UNL     1       9.942  13.557  19.893  0.00  0.00    +0.000 C 
ATOM     24  C   UNL     1       9.529  14.461  18.738  0.00  0.00    +0.000 C 
ATOM     25  C   UNL     1       8.329  13.873  18.006  0.00  0.00    +0.000 C 
ATOM     26  C   UNL     1       8.592  12.439  17.560  0.00  0.00    +0.000 C 
ENDBRANCH  18  19
ENDBRANCH  17  18
ENDBRANCH   3  17
TORSDOF 5
ENDMDL
MODEL 5
REMARK VINA RESULT:      -7.3      2.674      7.933
REMARK  Name = 
REMARK  6 active torsions:
REMARK  status: ('A' for Active; 'I' for Inactive)
REMARK    1  A    between atoms: C_1  and  N_2
REMARK    2  A    between atoms: C_4  and  C_5
REMARK    3  A    between atoms: N_7  and  C_8
REMARK    4  A    between atoms: C_8  and  C_9
REMARK    5  A    between atoms: C_9  and  C_10
REMARK    6  A    between atoms: C_18  and  C_19
REMARK                            x       y       z     vdW  Elec       q    Type
REMARK                         _______ _______ _______ _____ _____    ______ ____
ROOT
ATOM      1  C   UNL     1       1.710  10.581  18.496  0.00  0.00    +0.000 C 
ATOM      2  O   UNL     1       2.072  11.709  18.168  0.00  0.00    +0.000 OA
ATOM      3  N   UNL     1       2.217   9.523  17.779  0.00  0.00    +0.000 N 
ATOM      4  H   UNL     1       2.854   9.820  17.051  0.00  0.00    +0.000 HD
ENDROOT
BRANCH   1   8
ATOM      5  C   UNL     1      -0.186   9.604  23.000  0.00  0.00    +0.000 C 
ATOM      6  N   UNL     1      -0.060   9.897  21.594  0.00  0.00    +0.000 N 
ATOM      7  C   UNL     1       1.106  10.057  20.920  0.00  0.00    +0.000 A 
ATOM      8  C   UNL     1       0.788  10.353  19.608  0.00  0.00    +0.000 A 
ATOM      9  C   UNL     1      -0.649  10.295  19.589  0.00  0.00    +0.000 A 
ATOM     10  N   UNL     1      -1.136  10.009  20.817  0.00  0.00    +0.000 NA
BRANCH   9  11
ATOM     11  C   UNL     1      -1.588  10.504  18.484  0.00  0.00    +0.000 A 
ATOM     12  C   UNL     1      -1.519   9.800  17.279  0.00  0.00    +0.000 A 
ATOM     13  C   UNL     1      -2.449  10.049  16.271  0.00  0.00    +0.000 A 
ATOM     14  C   UNL     1      -3.416  11.015  16.490  0.00  0.00    +0.000 A 
ATOM     15  N   UNL     1      -3.511  11.735  17.626  0.00  0.00    +0.000 NA
ATOM     16  C   UNL     1      -2.596  11.461  18.591  0.00  0.00    +0.000 A 
ENDBRANCH   9  11
ENDBRANCH   1   8
BRANCH   3  17
ATOM     17  C   UNL     1       1.953   8.100  17.906  0.00  0.00    +0.000 C 
BRANCH  17  18
ATOM     18  C   UNL     1       3.116   7.390  18.600  0.00  0.00    +0.000 C 
BRANCH  18  19
ATOM     19  C   UNL     1       3.281   5.980  18.064  0.00  0.00    +0.000 C 
ATOM     20  O   UNL     1       3.963   5.772  17.059  0.00  0.00    +0.000 OA
ATOM     21  N   UNL     1       2.601   4.954  18.718  0.00  0.00    +0.000 N 
ATOM     22  C   UNL     1       2.790   3.599  18.197  0.00  0.00    +0.000 C 
ATOM     23  C   UNL     1       1.564   2.722  18.423  0.00  0.00    +0.000 C 
ATOM     24  C   UNL     1       1.132   2.736  19.885  0.00  0.00    +0.000 C 
ATOM     25  C   UNL     1       0.912   4.167  20.359  0.00  0.00    +0.000 C 
ATOM     26  C   UNL     1       2.136   5.038  20.105  0.00  0.00    +0.000 C 
ENDBRANCH  18  19
ENDBRANCH  17  18
ENDBRANCH   3  17
TORSDOF 5
ENDMDL
MODEL 6
REMARK VINA RESULT:      -7.2      2.031      4.019
REMARK  Name = 
REMARK  6 active torsions:
REMARK  status: ('A' for Active; 'I' for Inactive)
REMARK    1  A    between atoms: C_1  and  N_2
REMARK    2  A    between atoms: C_4  and  C_5
REMARK    3  A    between atoms: N_7  and  C_8
REMARK    4  A    between atoms: C_8  and  C_9
REMARK    5  A    between atoms: C_9  and  C_10
REMARK    6  A    between atoms: C_18  and  C_19
REMARK                            x       y       z     vdW  Elec       q    Type
REMARK                         _______ _______ _______ _____ _____    ______ ____
ROOT
ATOM      1  C   UNL     1       6.187   6.414  17.271  0.00  0.00    +0.000 C 
ATOM      2  O   UNL     1       7.280   6.599  17.803  0.00  0.00    +0.000 OA
ATOM      3  N   UNL     1       5.158   7.247  17.642  0.00  0.00    +0.000 N 
ATOM      4  H   UNL     1       5.446   7.938  18.323  0.00  0.00    +0.000 HD
ENDROOT
BRANCH   1   8
ATOM      5  C   UNL     1       6.353   3.679  13.109  0.00  0.00    +0.000 C 
ATOM      6  N   UNL     1       6.023   4.161  14.428  0.00  0.00    +0.000 N 
ATOM      7  C   UNL     1       6.519   5.280  15.010  0.00  0.00    +0.000 A 
ATOM      8  C   UNL     1       5.974   5.365  16.276  0.00  0.00    +0.000 A 
ATOM      9  C   UNL     1       5.092   4.230  16.338  0.00  0.00    +0.000 A 
ATOM     10  N   UNL     1       5.140   3.518  15.191  0.00  0.00    +0.000 NA
BRANCH   9  11
ATOM     11  C   UNL     1       4.215   3.774  17.420  0.00  0.00    +0.000 A 
ATOM     12  C   UNL     1       2.847   3.545  17.249  0.00  0.00    +0.000 A 
ATOM     13  C   UNL     1       2.073   3.109  18.323  0.00  0.00    +0.000 A 
ATOM     14  C   UNL     1       2.688   2.932  19.551  0.00  0.00    +0.000 A 
ATOM     15  N   UNL     1       3.999   3.159  19.770  0.00  0.00    +0.000 NA
ATOM     16  C   UNL     1       4.726   3.573  18.701  0.00  0.00    +0.000 A 
ENDBRANCH   9  11
ENDBRANCH   1   8
BRANCH   3  17
ATOM     17  C   UNL     1       3.767   7.254  17.221  0.00  0.00    +0.000 C 
BRANCH  17  18
ATOM     18  C   UNL     1       2.833   7.333  18.428  0.00  0.00    +0.000 C 
BRANCH  18  19
ATOM     19  C   UNL     1       2.021   8.615  18.394  0.00  0.00    +0.000 C 
ATOM     20  O   UNL     1       1.928   9.267  17.353  0.00  0.00    +0.000 OA
ATOM     21  N   UNL     1       1.432   9.041  19.584  0.00  0.00    +0.000 N 
ATOM     22  C   UNL     1       0.636  10.268  19.525  0.00  0.00    +0.000 C 
ATOM     23  C   UNL     1       0.659  11.030  20.846  0.00  0.00    +0.000 C 
ATOM     24  C   UNL     1       0.270  10.131  22.013  0.00  0.00    +0.000 C 
ATOM     25  C   UNL     1       1.156   8.892  22.048  0.00  0.00    +0.000 C 
ATOM     26  C   UNL     1       1.143   8.154  20.715  0.00  0.00    +0.000 C 
ENDBRANCH  18  19
ENDBRANCH  17  18
ENDBRANCH   3  17
TORSDOF 5
ENDMDL
MODEL 7
REMARK VINA RESULT:      -7.2      1.951      2.737
REMARK  Name = 
REMARK  6 active torsions:
REMARK  status: ('A' for Active; 'I' for Inactive)
REMARK    1  A    between atoms: C_1  and  N_2
REMARK    2  A    between atoms: C_4  and  C_5
REMARK    3  A    between atoms: N_7  and  C_8
REMARK    4  A    between atoms: C_8  and  C_9
REMARK    5  A    between atoms: C_9  and  C_10
REMARK    6  A    between atoms: C_18  and  C_19
REMARK                            x       y       z     vdW  Elec       q    Type
REMARK                         _______ _______ _______ _____ _____    ______ ____
ROOT
ATOM      1  C   UNL     1       2.392   7.012  19.141  0.00  0.00    +0.000 C 
ATOM      2  O   UNL     1       2.722   7.276  17.986  0.00  0.00    +0.000 OA
ATOM      3  N   UNL     1       1.934   8.050  19.917  0.00  0.00    +0.000 N 
ATOM      4  H   UNL     1       1.918   8.929  19.416  0.00  0.00    +0.000 HD
ENDROOT
BRANCH   1   8
ATOM      5  C   UNL     1       1.424   2.809  21.636  0.00  0.00    +0.000 C 
ATOM      6  N   UNL     1       2.057   3.799  20.800  0.00  0.00    +0.000 N 
ATOM      7  C   UNL     1       1.579   5.041  20.542  0.00  0.00    +0.000 A 
ATOM      8  C   UNL     1       2.466   5.655  19.679  0.00  0.00    +0.000 A 
ATOM      9  C   UNL     1       3.507   4.676  19.515  0.00  0.00    +0.000 A 
ATOM     10  N   UNL     1       3.230   3.555  20.218  0.00  0.00    +0.000 NA
BRANCH   9  11
ATOM     11  C   UNL     1       4.740   4.733  18.727  0.00  0.00    +0.000 A 
ATOM     12  C   UNL     1       4.795   4.414  17.368  0.00  0.00    +0.000 A 
ATOM     13  C   UNL     1       6.004   4.492  16.680  0.00  0.00    +0.000 A 
ATOM     14  C   UNL     1       7.137   4.872  17.379  0.00  0.00    +0.000 A 
ATOM     15  N   UNL     1       7.140   5.170  18.695  0.00  0.00    +0.000 NA
ATOM     16  C   UNL     1       5.944   5.092  19.332  0.00  0.00    +0.000 A 
ENDBRANCH   9  11
ENDBRANCH   1   8
BRANCH   3  17
ATOM     17  C   UNL     1       1.510   8.057  21.307  0.00  0.00    +0.000 C 
BRANCH  17  18
ATOM     18  C   UNL     1       0.050   8.494  21.429  0.00  0.00    +0.000 C 
BRANCH  18  19
ATOM     19  C   UNL     1      -0.059   9.778  22.232  0.00  0.00    +0.000 C 
ATOM     20  O   UNL     1       0.319   9.814  23.404  0.00  0.00    +0.000 OA
ATOM     21  N   UNL     1      -0.640  10.883  21.611  0.00  0.00    +0.000 N 
ATOM     22  C   UNL     1      -0.717  12.117  22.396  0.00  0.00    +0.000 C 
ATOM     23  C   UNL     1      -1.919  12.969  22.006  0.00  0.00    +0.000 C 
ATOM     24  C   UNL     1      -1.958  13.224  20.504  0.00  0.00    +0.000 C 
ATOM     25  C   UNL     1      -1.915  11.905  19.741  0.00  0.00    +0.000 C 
ATOM     26  C   UNL     1      -0.723  11.053  20.158  0.00  0.00    +0.000 C 
ENDBRANCH  18  19
ENDBRANCH  17  18
ENDBRANCH   3  17
TORSDOF 5
ENDMDL
MODEL 8
REMARK VINA RESULT:      -7.2      2.943      8.316
REMARK  Name = 
REMARK  6 active torsions:
REMARK  status: ('A' for Active; 'I' for Inactive)
REMARK    1  A    between atoms: C_1  and  N_2
REMARK    2  A    between atoms: C_4  and  C_5
REMARK    3  A    between atoms: N_7  and  C_8
REMARK    4  A    between atoms: C_8  and  C_9
REMARK    5  A    between atoms: C_9  and  C_10
REMARK    6  A    between atoms: C_18  and  C_19
REMARK                            x       y       z     vdW  Elec       q    Type
REMARK                         _______ _______ _______ _____ _____    ______ ____
ROOT
ATOM      1  C   UNL     1       0.638   9.984  18.080  0.00  0.00    +0.000 C 
ATOM      2  O   UNL     1      -0.561   9.954  17.812  0.00  0.00    +0.000 OA
ATOM      3  N   UNL     1       1.371   8.851  17.815  0.00  0.00    +0.000 N 
ATOM      4  H   UNL     1       0.809   8.114  17.409  0.00  0.00    +0.000 HD
ENDROOT
BRANCH   1   8
ATOM      5  C   UNL     1       3.409  14.081  18.688  0.00  0.00    +0.000 C 
ATOM      6  N   UNL     1       2.521  12.970  18.931  0.00  0.00    +0.000 N 
ATOM      7  C   UNL     1       2.157  12.034  18.022  0.00  0.00    +0.000 A 
ATOM      8  C   UNL     1       1.279  11.170  18.646  0.00  0.00    +0.000 A 
ATOM      9  C   UNL     1       1.220  11.667  19.995  0.00  0.00    +0.000 A 
ATOM     10  N   UNL     1       1.995  12.765  20.138  0.00  0.00    +0.000 NA
BRANCH   9  11
ATOM     11  C   UNL     1       0.469  11.174  21.152  0.00  0.00    +0.000 A 
ATOM     12  C   UNL     1      -0.556  11.900  21.764  0.00  0.00    +0.000 A 
ATOM     13  C   UNL     1      -1.231  11.367  22.861  0.00  0.00    +0.000 A 
ATOM     14  C   UNL     1      -0.847  10.123  23.330  0.00  0.00    +0.000 A 
ATOM     15  N   UNL     1       0.149   9.393  22.787  0.00  0.00    +0.000 NA
ATOM     16  C   UNL     1       0.778   9.937  21.715  0.00  0.00    +0.000 A 
ENDBRANCH   9  11
ENDBRANCH   1   8
BRANCH   3  17
ATOM     17  C   UNL     1       2.778   8.576  18.050  0.00  0.00    +0.000 C 
BRANCH  17  18
ATOM     18  C   UNL     1       3.041   7.070  18.085  0.00  0.00    +0.000 C 
BRANCH  18  19
ATOM     19  C   UNL     1       2.308   6.426  19.248  0.00  0.00    +0.000 C 
ATOM     20  O   UNL     1       2.090   7.065  20.278  0.00  0.00    +0.000 OA
ATOM     21  N   UNL     1       1.942   5.086  19.120  0.00  0.00    +0.000 N 
ATOM     22  C   UNL     1       1.218   4.490  20.244  0.00  0.00    +0.000 C 
ATOM     23  C   UNL     1       1.494   2.996  20.375  0.00  0.00    +0.000 C 
ATOM     24  C   UNL     1       1.244   2.267  19.061  0.00  0.00    +0.000 C 
ATOM     25  C   UNL     1       2.052   2.905  17.938  0.00  0.00    +0.000 C 
ATOM     26  C   UNL     1       1.785   4.402  17.834  0.00  0.00    +0.000 C 
ENDBRANCH  18  19
ENDBRANCH  17  18
ENDBRANCH   3  17
TORSDOF 5
ENDMDL
MODEL 9
REMARK VINA RESULT:      -7.2      2.155      2.843
REMARK  Name = 
REMARK  6 active torsions:
REMARK  status: ('A' for Active; 'I' for Inactive)
REMARK    1  A    between atoms: C_1  and  N_2
REMARK    2  A    between atoms: C_4  and  C_5
REMARK    3  A    between atoms: N_7  and  C_8
REMARK    4  A    between atoms: C_8  and  C_9
REMARK    5  A    between atoms: C_9  and  C_10
REMARK    6  A    between atoms: C_18  and  C_19
REMARK                            x       y       z     vdW  Elec       q    Type
REMARK                         _______ _______ _______ _____ _____    ______ ____
ROOT
ATOM      1  C   UNL     1       2.584   7.345  18.298  0.00  0.00    +0.000 C 
ATOM      2  O   UNL     1       2.871   8.063  17.343  0.00  0.00    +0.000 OA
ATOM      3  N   UNL     1       2.050   7.956  19.409  0.00  0.00    +0.000 N 
ATOM      4  H   UNL     1       1.951   8.956  19.288  0.00  0.00    +0.000 HD
ENDROOT
BRANCH   1   8
ATOM      5  C   UNL     1       1.812   2.422  18.222  0.00  0.00    +0.000 C 
ATOM      6  N   UNL     1       2.449   3.715  18.259  0.00  0.00    +0.000 N 
ATOM      7  C   UNL     1       1.813   4.912  18.253  0.00  0.00    +0.000 A 
ATOM      8  C   UNL     1       2.782   5.897  18.269  0.00  0.00    +0.000 A 
ATOM      9  C   UNL     1       4.013   5.155  18.336  0.00  0.00    +0.000 A 
ATOM     10  N   UNL     1       3.774   3.824  18.335  0.00  0.00    +0.000 NA
BRANCH   9  11
ATOM     11  C   UNL     1       5.398   5.627  18.392  0.00  0.00    +0.000 A 
ATOM     12  C   UNL     1       5.961   6.461  17.422  0.00  0.00    +0.000 A 
ATOM     13  C   UNL     1       7.287   6.874  17.541  0.00  0.00    +0.000 A 
ATOM     14  C   UNL     1       8.024   6.423  18.623  0.00  0.00    +0.000 A 
ATOM     15  N   UNL     1       7.533   5.601  19.572  0.00  0.00    +0.000 NA
ATOM     16  C   UNL     1       6.236   5.227  19.432  0.00  0.00    +0.000 A 
ENDBRANCH   9  11
ENDBRANCH   1   8
BRANCH   3  17
ATOM     17  C   UNL     1       1.650   7.386  20.684  0.00  0.00    +0.000 C 
BRANCH  17  18
ATOM     18  C   UNL     1       0.418   8.102  21.237  0.00  0.00    +0.000 C 
BRANCH  18  19
ATOM     19  C   UNL     1       0.741   9.547  21.569  0.00  0.00    +0.000 C 
ATOM     20  O   UNL     1       1.520   9.816  22.485  0.00  0.00    +0.000 OA
ATOM     21  N   UNL     1       0.094  10.541  20.837  0.00  0.00    +0.000 N 
ATOM     22  C   UNL     1       0.436  11.927  21.158  0.00  0.00    +0.000 C 
ATOM     23  C   UNL     1      -0.730  12.878  20.909  0.00  0.00    +0.000 C 
ATOM     24  C   UNL     1      -1.283  12.720  19.497  0.00  0.00    +0.000 C 
ATOM     25  C   UNL     1      -1.658  11.267  19.233  0.00  0.00    +0.000 C 
ATOM     26  C   UNL     1      -0.492  10.327  19.511  0.00  0.00    +0.000 C 
ENDBRANCH  18  19
ENDBRANCH  17  18
ENDBRANCH   3  17
TORSDOF 5
ENDMDL
