MODEL 1
REMARK VINA RESULT:      -8.3      0.000      0.000
REMARK  Name = 
REMARK  17 active torsions:
REMARK  status: ('A' for Active; 'I' for Inactive)
REMARK    1  A    between atoms: C_1  and  C_2
REMARK    2  A    between atoms: C_2  and  O_3
REMARK    3  A    between atoms: O_3  and  C_4
REMARK    4  A    between atoms: C_4  and  O_5
REMARK    5  A    between atoms: C_6  and  C_7
REMARK    6  A    between atoms: C_8  and  C_9
REMARK    7  A    between atoms: C_8  and  C_22
REMARK    8  A    between atoms: C_9  and  C_11
REMARK    9  A    between atoms: C_12  and  C_13
REMARK   10  A    between atoms: C_16  and  O_17
REMARK   11  A    between atoms: C_18  and  O_19
REMARK   12  A    between atoms: O_19  and  C_20
REMARK   13  A    between atoms: C_22  and  C_24
REMARK   14  A    between atoms: C_25  and  C_26
REMARK   15  A    between atoms: C_29  and  O_30
REMARK   16  A    between atoms: C_31  and  O_32
REMARK   17  A    between atoms: O_32  and  C_33
REMARK                            x       y       z     vdW  Elec       q    Type
REMARK                         _______ _______ _______ _____ _____    ______ ____
ROOT
ATOM      1  C   UNL     1      -0.932  10.303  19.288  0.00  0.00    +0.000 C 
ATOM      2  C   UNL     1       0.352  10.116  19.698  0.00  0.00    +0.000 C 
ENDROOT
BRANCH   1   4
ATOM      3  C   UNL     1      -1.828  11.141  17.100  0.00  0.00    +0.000 C 
ATOM      4  C   UNL     1      -1.542  10.155  17.974  0.00  0.00    +0.000 C 
BRANCH   3   5
ATOM      5  O   UNL     1      -1.556  12.456  17.390  0.00  0.00    +0.000 OA
ATOM      6  H   UNL     1      -0.666  12.470  17.785  0.00  0.00    +0.000 HD
ENDBRANCH   3   5
BRANCH   3   7
ATOM      7  O   UNL     1      -2.297  10.779  15.852  0.00  0.00    +0.000 OA
BRANCH   7   9
ATOM      8  C   UNL     1      -4.496  11.372  16.515  0.00  0.00    +0.000 C 
ATOM      9  C   UNL     1      -3.657  10.354  15.755  0.00  0.00    +0.000 C 
ENDBRANCH   7   9
ENDBRANCH   3   7
ENDBRANCH   1   4
BRANCH   2  10
ATOM     10  C   UNL     1       1.444   9.611  18.751  0.00  0.00    +0.000 C 
ATOM     11  O   UNL     1       1.909  10.325  17.867  0.00  0.00    +0.000 OA
BRANCH  10  12
ATOM     12  C   UNL     1       1.949   8.200  18.884  0.00  0.00    +0.000 C 
ATOM     13  C   UNL     1       2.736   7.604  17.967  0.00  0.00    +0.000 C 
BRANCH  13  14
ATOM     14  C   UNL     1       3.101   6.184  18.098  0.00  0.00    +0.000 A 
ATOM     15  C   UNL     1       2.163   5.164  17.885  0.00  0.00    +0.000 A 
ATOM     16  C   UNL     1       2.548   3.822  17.975  0.00  0.00    +0.000 A 
ATOM     17  C   UNL     1       3.873   3.477  18.277  0.00  0.00    +0.000 A 
ATOM     18  C   UNL     1       4.823   4.480  18.494  0.00  0.00    +0.000 A 
ATOM     19  C   UNL     1       4.419   5.824  18.405  0.00  0.00    +0.000 A 
BRANCH  17  20
ATOM     20  O   UNL     1       4.199   2.153  18.350  0.00  0.00    +0.000 OA
ATOM     21  H   UNL     1       5.152   2.061  18.505  0.00  0.00    +0.000 HD
ENDBRANCH  17  20
BRANCH  18  22
ATOM     22  O   UNL     1       6.155   4.338  18.783  0.00  0.00    +0.000 OA
ATOM     23  C   UNL     1       7.104   4.698  17.789  0.00  0.00    +0.000 C 
ENDBRANCH  18  22
ENDBRANCH  13  14
ENDBRANCH  10  12
ENDBRANCH   2  10
BRANCH   2  24
ATOM     24  C   UNL     1       0.647  10.421  21.158  0.00  0.00    +0.000 C 
ATOM     25  O   UNL     1       1.513   9.825  21.796  0.00  0.00    +0.000 OA
BRANCH  24  26
ATOM     26  C   UNL     1      -0.118  11.515  21.836  0.00  0.00    +0.000 C 
ATOM     27  C   UNL     1      -1.160  11.236  22.643  0.00  0.00    +0.000 C 
BRANCH  27  28
ATOM     28  C   UNL     1      -1.943  12.304  23.263  0.00  0.00    +0.000 A 
ATOM     29  C   UNL     1      -1.406  13.580  23.425  0.00  0.00    +0.000 A 
ATOM     30  C   UNL     1      -2.157  14.592  24.021  0.00  0.00    +0.000 A 
ATOM     31  C   UNL     1      -3.465  14.343  24.456  0.00  0.00    +0.000 A 
ATOM     32  C   UNL     1      -4.031  13.076  24.287  0.00  0.00    +0.000 A 
ATOM     33  C   UNL     1      -3.262  12.064  23.687  0.00  0.00    +0.000 A 
BRANCH  31  34
ATOM     34  O   UNL     1      -4.155  15.366  25.044  0.00  0.00    +0.000 OA
ATOM     35  H   UNL     1      -5.012  15.475  24.601  0.00  0.00    +0.000 HD
ENDBRANCH  31  34
BRANCH  32  36
ATOM     36  O   UNL     1      -5.287  12.654  24.638  0.00  0.00    +0.000 OA
ATOM     37  C   UNL     1      -6.363  12.923  23.748  0.00  0.00    +0.000 C 
ENDBRANCH  32  36
ENDBRANCH  27  28
ENDBRANCH  24  26
ENDBRANCH   2  24
TORSDOF 14
ENDMDL
MODEL 2
REMARK VINA RESULT:      -8.2      4.651     10.282
REMARK  Name = 
REMARK  17 active torsions:
REMARK  status: ('A' for Active; 'I' for Inactive)
REMARK    1  A    between atoms: C_1  and  C_2
REMARK    2  A    between atoms: C_2  and  O_3
REMARK    3  A    between atoms: O_3  and  C_4
REMARK    4  A    between atoms: C_4  and  O_5
REMARK    5  A    between atoms: C_6  and  C_7
REMARK    6  A    between atoms: C_8  and  C_9
REMARK    7  A    between atoms: C_8  and  C_22
REMARK    8  A    between atoms: C_9  and  C_11
REMARK    9  A    between atoms: C_12  and  C_13
REMARK   10  A    between atoms: C_16  and  O_17
REMARK   11  A    between atoms: C_18  and  O_19
REMARK   12  A    between atoms: O_19  and  C_20
REMARK   13  A    between atoms: C_22  and  C_24
REMARK   14  A    between atoms: C_25  and  C_26
REMARK   15  A    between atoms: C_29  and  O_30
REMARK   16  A    between atoms: C_31  and  O_32
REMARK   17  A    between atoms: O_32  and  C_33
REMARK                            x       y       z     vdW  Elec       q    Type
REMARK                         _______ _______ _______ _____ _____    ______ ____
ROOT
ATOM      1  C   UNL     1       6.361   5.562  18.877  0.00  0.00    +0.000 C 
ATOM      2  C   UNL     1       6.229   6.364  17.787  0.00  0.00    +0.000 C 
ENDROOT
BRANCH   1   4
ATOM      3  C   UNL     1       4.752   3.659  19.170  0.00  0.00    +0.000 C 
ATOM      4  C   UNL     1       5.375   4.773  19.604  0.00  0.00    +0.000 C 
BRANCH   3   5
ATOM      5  O   UNL     1       5.003   3.138  17.922  0.00  0.00    +0.000 OA
ATOM      6  H   UNL     1       4.478   3.668  17.296  0.00  0.00    +0.000 HD
ENDBRANCH   3   5
BRANCH   3   7
ATOM      7  O   UNL     1       3.938   2.988  20.061  0.00  0.00    +0.000 OA
BRANCH   7   9
ATOM      8  C   UNL     1       2.002   3.065  21.429  0.00  0.00    +0.000 C 
ATOM      9  C   UNL     1       2.538   3.271  20.019  0.00  0.00    +0.000 C 
ENDBRANCH   7   9
ENDBRANCH   3   7
ENDBRANCH   1   4
BRANCH   2  10
ATOM     10  C   UNL     1       4.896   6.523  17.049  0.00  0.00    +0.000 C 
ATOM     11  O   UNL     1       4.618   5.836  16.069  0.00  0.00    +0.000 OA
BRANCH  10  12
ATOM     12  C   UNL     1       3.908   7.557  17.514  0.00  0.00    +0.000 C 
ATOM     13  C   UNL     1       2.908   7.292  18.377  0.00  0.00    +0.000 C 
BRANCH  13  14
ATOM     14  C   UNL     1       1.903   8.318  18.702  0.00  0.00    +0.000 A 
ATOM     15  C   UNL     1       1.144   8.943  17.704  0.00  0.00    +0.000 A 
ATOM     16  C   UNL     1       0.166   9.884  18.045  0.00  0.00    +0.000 A 
ATOM     17  C   UNL     1      -0.068  10.215  19.387  0.00  0.00    +0.000 A 
ATOM     18  C   UNL     1       0.680   9.605  20.398  0.00  0.00    +0.000 A 
ATOM     19  C   UNL     1       1.662   8.664  20.038  0.00  0.00    +0.000 A 
BRANCH  17  20
ATOM     20  O   UNL     1      -1.036  11.138  19.669  0.00  0.00    +0.000 OA
ATOM     21  H   UNL     1      -0.941  11.437  20.587  0.00  0.00    +0.000 HD
ENDBRANCH  17  20
BRANCH  18  22
ATOM     22  O   UNL     1       0.585   9.788  21.753  0.00  0.00    +0.000 OA
ATOM     23  C   UNL     1      -0.431   9.090  22.459  0.00  0.00    +0.000 C 
ENDBRANCH  18  22
ENDBRANCH  13  14
ENDBRANCH  10  12
ENDBRANCH   2  10
BRANCH   2  24
ATOM     24  C   UNL     1       7.483   7.088  17.322  0.00  0.00    +0.000 C 
ATOM     25  O   UNL     1       8.047   6.821  16.264  0.00  0.00    +0.000 OA
BRANCH  24  26
ATOM     26  C   UNL     1       8.031   8.197  18.168  0.00  0.00    +0.000 C 
ATOM     27  C   UNL     1       8.309   9.402  17.636  0.00  0.00    +0.000 C 
BRANCH  27  28
ATOM     28  C   UNL     1       8.894  10.469  18.447  0.00  0.00    +0.000 A 
ATOM     29  C   UNL     1       9.377  10.207  19.727  0.00  0.00    +0.000 A 
ATOM     30  C   UNL     1       9.930  11.231  20.496  0.00  0.00    +0.000 A 
ATOM     31  C   UNL     1      10.015  12.534  19.988  0.00  0.00    +0.000 A 
ATOM     32  C   UNL     1       9.553  12.815  18.699  0.00  0.00    +0.000 A 
ATOM     33  C   UNL     1       8.996  11.775  17.936  0.00  0.00    +0.000 A 
BRANCH  31  34
ATOM     34  O   UNL     1      10.555  13.504  20.786  0.00  0.00    +0.000 OA
ATOM     35  H   UNL     1      10.388  14.375  20.394  0.00  0.00    +0.000 HD
ENDBRANCH  31  34
BRANCH  32  36
ATOM     36  O   UNL     1       9.563  14.016  18.038  0.00  0.00    +0.000 OA
ATOM     37  C   UNL     1      10.763  14.420  17.390  0.00  0.00    +0.000 C 
ENDBRANCH  32  36
ENDBRANCH  27  28
ENDBRANCH  24  26
ENDBRANCH   2  24
TORSDOF 14
ENDMDL
MODEL 3
REMARK VINA RESULT:      -8.0      4.423     10.122
REMARK  Name = 
REMARK  17 active torsions:
REMARK  status: ('A' for Active; 'I' for Inactive)
REMARK    1  A    between atoms: C_1  and  C_2
REMARK    2  A    between atoms: C_2  and  O_3
REMARK    3  A    between atoms: O_3  and  C_4
REMARK    4  A    between atoms: C_4  and  O_5
REMARK    5  A    between atoms: C_6  and  C_7
REMARK    6  A    between atoms: C_8  and  C_9
REMARK    7  A    between atoms: C_8  and  C_22
REMARK    8  A    between atoms: C_9  and  C_11
REMARK    9  A    between atoms: C_12  and  C_13
REMARK   10  A    between atoms: C_16  and  O_17
REMARK   11  A    between atoms: C_18  and  O_19
REMARK   12  A    between atoms: O_19  and  C_20
REMARK   13  A    between atoms: C_22  and  C_24
REMARK   14  A    between atoms: C_25  and  C_26
REMARK   15  A    between atoms: C_29  and  O_30
REMARK   16  A    between atoms: C_31  and  O_32
REMARK   17  A    between atoms: O_32  and  C_33
REMARK                            x       y       z     vdW  Elec       q    Type
REMARK                         _______ _______ _______ _____ _____    ______ ____
ROOT
ATOM      1  C   UNL     1       6.311   5.170  18.661  0.00  0.00    +0.000 C 
ATOM      2  C   UNL     1       6.137   6.171  17.757  0.00  0.00    +0.000 C 
ENDROOT
BRANCH   1   4
ATOM      3  C   UNL     1       4.538   3.402  18.824  0.00  0.00    +0.000 C 
ATOM      4  C   UNL     1       5.339   4.342  19.364  0.00  0.00    +0.000 C 
BRANCH   3   5
ATOM      5  O   UNL     1       4.563   3.126  17.478  0.00  0.00    +0.000 OA
ATOM      6  H   UNL     1       4.195   3.911  17.033  0.00  0.00    +0.000 HD
ENDBRANCH   3   5
BRANCH   3   7
ATOM      7  O   UNL     1       3.770   2.640  19.684  0.00  0.00    +0.000 OA
BRANCH   7   9
ATOM      8  C   UNL     1       1.757   3.789  20.185  0.00  0.00    +0.000 C 
ATOM      9  C   UNL     1       2.362   2.600  19.452  0.00  0.00    +0.000 C 
ENDBRANCH   7   9
ENDBRANCH   3   7
ENDBRANCH   1   4
BRANCH   2  10
ATOM     10  C   UNL     1       4.750   6.575  17.246  0.00  0.00    +0.000 C 
ATOM     11  O   UNL     1       4.338   6.206  16.150  0.00  0.00    +0.000 OA
BRANCH  10  12
ATOM     12  C   UNL     1       3.877   7.463  18.089  0.00  0.00    +0.000 C 
ATOM     13  C   UNL     1       2.738   7.044  18.673  0.00  0.00    +0.000 C 
BRANCH  13  14
ATOM     14  C   UNL     1       1.867   7.991  19.389  0.00  0.00    +0.000 A 
ATOM     15  C   UNL     1       1.475   7.767  20.715  0.00  0.00    +0.000 A 
ATOM     16  C   UNL     1       0.681   8.706  21.385  0.00  0.00    +0.000 A 
ATOM     17  C   UNL     1       0.269   9.881  20.742  0.00  0.00    +0.000 A 
ATOM     18  C   UNL     1       0.649  10.123  19.418  0.00  0.00    +0.000 A 
ATOM     19  C   UNL     1       1.442   9.167  18.757  0.00  0.00    +0.000 A 
BRANCH  17  20
ATOM     20  O   UNL     1      -0.501  10.767  21.439  0.00  0.00    +0.000 OA
ATOM     21  H   UNL     1      -0.881  11.418  20.828  0.00  0.00    +0.000 HD
ENDBRANCH  17  20
BRANCH  18  22
ATOM     22  O   UNL     1       0.358  11.210  18.636  0.00  0.00    +0.000 OA
ATOM     23  C   UNL     1       1.261  12.306  18.640  0.00  0.00    +0.000 C 
ENDBRANCH  18  22
ENDBRANCH  13  14
ENDBRANCH  10  12
ENDBRANCH   2  10
BRANCH   2  24
ATOM     24  C   UNL     1       7.397   6.863  17.263  0.00  0.00    +0.000 C 
ATOM     25  O   UNL     1       7.932   6.579  16.194  0.00  0.00    +0.000 OA
BRANCH  24  26
ATOM     26  C   UNL     1       7.989   7.962  18.091  0.00  0.00    +0.000 C 
ATOM     27  C   UNL     1       8.118   9.209  17.598  0.00  0.00    +0.000 C 
BRANCH  27  28
ATOM     28  C   UNL     1       8.744  10.271  18.385  0.00  0.00    +0.000 A 
ATOM     29  C   UNL     1       9.227  10.018  19.668  0.00  0.00    +0.000 A 
ATOM     30  C   UNL     1       9.819  11.036  20.414  0.00  0.00    +0.000 A 
ATOM     31  C   UNL     1       9.945  12.325  19.880  0.00  0.00    +0.000 A 
ATOM     32  C   UNL     1       9.484  12.598  18.589  0.00  0.00    +0.000 A 
ATOM     33  C   UNL     1       8.887  11.563  17.849  0.00  0.00    +0.000 A 
BRANCH  31  34
ATOM     34  O   UNL     1      10.523  13.291  20.656  0.00  0.00    +0.000 OA
ATOM     35  H   UNL     1      11.405  12.998  20.933  0.00  0.00    +0.000 HD
ENDBRANCH  31  34
BRANCH  32  36
ATOM     36  O   UNL     1       9.531  13.784  17.904  0.00  0.00    +0.000 OA
ATOM     37  C   UNL     1       8.458  14.702  18.069  0.00  0.00    +0.000 C 
ENDBRANCH  32  36
ENDBRANCH  27  28
ENDBRANCH  24  26
ENDBRANCH   2  24
TORSDOF 14
ENDMDL
MODEL 4
REMARK VINA RESULT:      -7.9      0.971      1.595
REMARK  Name = 
REMARK  17 active torsions:
REMARK  status: ('A' for Active; 'I' for Inactive)
REMARK    1  A    between atoms: C_1  and  C_2
REMARK    2  A    between atoms: C_2  and  O_3
REMARK    3  A    between atoms: O_3  and  C_4
REMARK    4  A    between atoms: C_4  and  O_5
REMARK    5  A    between atoms: C_6  and  C_7
REMARK    6  A    between atoms: C_8  and  C_9
REMARK    7  A    between atoms: C_8  and  C_22
REMARK    8  A    between atoms: C_9  and  C_11
REMARK    9  A    between atoms: C_12  and  C_13
REMARK   10  A    between atoms: C_16  and  O_17
REMARK   11  A    between atoms: C_18  and  O_19
REMARK   12  A    between atoms: O_19  and  C_20
REMARK   13  A    between atoms: C_22  and  C_24
REMARK   14  A    between atoms: C_25  and  C_26
REMARK   15  A    between atoms: C_29  and  O_30
REMARK   16  A    between atoms: C_31  and  O_32
REMARK   17  A    between atoms: O_32  and  C_33
REMARK                            x       y       z     vdW  Elec       q    Type
REMARK                         _______ _______ _______ _____ _____    ______ ____
ROOT
ATOM      1  C   UNL     1      -1.103  10.292  19.364  0.00  0.00    +0.000 C 
ATOM      2  C   UNL     1       0.201  10.270  19.748  0.00  0.00    +0.000 C 
ENDROOT
BRANCH   1   4
ATOM      3  C   UNL     1      -1.939  10.883  17.074  0.00  0.00    +0.000 C 
ATOM      4  C   UNL     1      -1.722  10.008  18.076  0.00  0.00    +0.000 C 
BRANCH   3   5
ATOM      5  O   UNL     1      -1.579  12.205  17.186  0.00  0.00    +0.000 OA
ATOM      6  H   UNL     1      -0.821  12.332  16.586  0.00  0.00    +0.000 HD
ENDBRANCH   3   5
BRANCH   3   7
ATOM      7  O   UNL     1      -2.431  10.388  15.882  0.00  0.00    +0.000 OA
BRANCH   7   9
ATOM      8  C   UNL     1      -4.579  11.209  16.462  0.00  0.00    +0.000 C 
ATOM      9  C   UNL     1      -3.583  11.024  15.326  0.00  0.00    +0.000 C 
ENDBRANCH   7   9
ENDBRANCH   3   7
ENDBRANCH   1   4
BRANCH   2  10
ATOM     10  C   UNL     1       1.323   9.838  18.798  0.00  0.00    +0.000 C 
ATOM     11  O   UNL     1       1.653  10.529  17.838  0.00  0.00    +0.000 OA
BRANCH  10  12
ATOM     12  C   UNL     1       2.025   8.527  19.024  0.00  0.00    +0.000 C 
ATOM     13  C   UNL     1       2.729   7.888  18.069  0.00  0.00    +0.000 C 
BRANCH  13  14
ATOM     14  C   UNL     1       3.295   6.553  18.319  0.00  0.00    +0.000 A 
ATOM     15  C   UNL     1       4.403   6.080  17.603  0.00  0.00    +0.000 A 
ATOM     16  C   UNL     1       4.946   4.823  17.891  0.00  0.00    +0.000 A 
ATOM     17  C   UNL     1       4.393   4.020  18.898  0.00  0.00    +0.000 A 
ATOM     18  C   UNL     1       3.287   4.473  19.624  0.00  0.00    +0.000 A 
ATOM     19  C   UNL     1       2.750   5.736  19.318  0.00  0.00    +0.000 A 
BRANCH  17  20
ATOM     20  O   UNL     1       4.963   2.803  19.143  0.00  0.00    +0.000 OA
ATOM     21  H   UNL     1       5.112   2.701  20.097  0.00  0.00    +0.000 HD
ENDBRANCH  17  20
BRANCH  18  22
ATOM     22  O   UNL     1       2.626   3.841  20.644  0.00  0.00    +0.000 OA
ATOM     23  C   UNL     1       1.205   3.876  20.653  0.00  0.00    +0.000 C 
ENDBRANCH  18  22
ENDBRANCH  13  14
ENDBRANCH  10  12
ENDBRANCH   2  10
BRANCH   2  24
ATOM     24  C   UNL     1       0.492  10.681  21.182  0.00  0.00    +0.000 C 
ATOM     25  O   UNL     1       1.385  10.165  21.851  0.00  0.00    +0.000 OA
BRANCH  24  26
ATOM     26  C   UNL     1      -0.314  11.786  21.793  0.00  0.00    +0.000 C 
ATOM     27  C   UNL     1      -1.189  11.538  22.787  0.00  0.00    +0.000 C 
BRANCH  27  28
ATOM     28  C   UNL     1      -2.017  12.605  23.348  0.00  0.00    +0.000 A 
ATOM     29  C   UNL     1      -1.461  13.840  23.678  0.00  0.00    +0.000 A 
ATOM     30  C   UNL     1      -2.256  14.851  24.216  0.00  0.00    +0.000 A 
ATOM     31  C   UNL     1      -3.625  14.642  24.425  0.00  0.00    +0.000 A 
ATOM     32  C   UNL     1      -4.207  13.418  24.085  0.00  0.00    +0.000 A 
ATOM     33  C   UNL     1      -3.395  12.407  23.545  0.00  0.00    +0.000 A 
BRANCH  31  34
ATOM     34  O   UNL     1      -4.358  15.662  24.966  0.00  0.00    +0.000 OA
ATOM     35  H   UNL     1      -5.281  15.380  25.063  0.00  0.00    +0.000 HD
ENDBRANCH  31  34
BRANCH  32  36
ATOM     36  O   UNL     1      -5.519  13.040  24.206  0.00  0.00    +0.000 OA
ATOM     37  C   UNL     1      -6.303  12.931  23.024  0.00  0.00    +0.000 C 
ENDBRANCH  32  36
ENDBRANCH  27  28
ENDBRANCH  24  26
ENDBRANCH   2  24
TORSDOF 14
ENDMDL
MODEL 5
REMARK VINA RESULT:      -7.9      4.110     10.152
REMARK  Name = 
REMARK  17 active torsions:
REMARK  status: ('A' for Active; 'I' for Inactive)
REMARK    1  A    between atoms: C_1  and  C_2
REMARK    2  A    between atoms: C_2  and  O_3
REMARK    3  A    between atoms: O_3  and  C_4
REMARK    4  A    between atoms: C_4  and  O_5
REMARK    5  A    between atoms: C_6  and  C_7
REMARK    6  A    between atoms: C_8  and  C_9
REMARK    7  A    between atoms: C_8  and  C_22
REMARK    8  A    between atoms: C_9  and  C_11
REMARK    9  A    between atoms: C_12  and  C_13
REMARK   10  A    between atoms: C_16  and  O_17
REMARK   11  A    between atoms: C_18  and  O_19
REMARK   12  A    between atoms: O_19  and  C_20
REMARK   13  A    between atoms: C_22  and  C_24
REMARK   14  A    between atoms: C_25  and  C_26
REMARK   15  A    between atoms: C_29  and  O_30
REMARK   16  A    between atoms: C_31  and  O_32
REMARK   17  A    between atoms: O_32  and  C_33
REMARK                            x       y       z     vdW  Elec       q    Type
REMARK                         _______ _______ _______ _____ _____    ______ ____
ROOT
ATOM      1  C   UNL     1       5.483   4.986  18.734  0.00  0.00    +0.000 C 
ATOM      2  C   UNL     1       5.674   5.982  17.827  0.00  0.00    +0.000 C 
ENDROOT
BRANCH   1   4
ATOM      3  C   UNL     1       4.053   3.185  19.735  0.00  0.00    +0.000 C 
ATOM      4  C   UNL     1       4.260   4.449  19.316  0.00  0.00    +0.000 C 
BRANCH   3   5
ATOM      5  O   UNL     1       5.035   2.228  19.641  0.00  0.00    +0.000 OA
ATOM      6  H   UNL     1       4.688   1.538  19.048  0.00  0.00    +0.000 HD
ENDBRANCH   3   5
BRANCH   3   7
ATOM      7  O   UNL     1       2.859   2.905  20.371  0.00  0.00    +0.000 OA
BRANCH   7   9
ATOM      8  C   UNL     1       1.745   2.320  18.360  0.00  0.00    +0.000 C 
ATOM      9  C   UNL     1       1.652   3.135  19.642  0.00  0.00    +0.000 C 
ENDBRANCH   7   9
ENDBRANCH   3   7
ENDBRANCH   1   4
BRANCH   2  10
ATOM     10  C   UNL     1       4.503   6.721  17.171  0.00  0.00    +0.000 C 
ATOM     11  O   UNL     1       4.446   6.881  15.955  0.00  0.00    +0.000 OA
BRANCH  10  12
ATOM     12  C   UNL     1       3.405   7.286  18.030  0.00  0.00    +0.000 C 
ATOM     13  C   UNL     1       2.645   8.337  17.665  0.00  0.00    +0.000 C 
BRANCH  13  14
ATOM     14  C   UNL     1       1.666   8.916  18.599  0.00  0.00    +0.000 A 
ATOM     15  C   UNL     1       1.622   8.532  19.946  0.00  0.00    +0.000 A 
ATOM     16  C   UNL     1       0.708   9.131  20.821  0.00  0.00    +0.000 A 
ATOM     17  C   UNL     1      -0.173  10.120  20.366  0.00  0.00    +0.000 A 
ATOM     18  C   UNL     1      -0.147  10.517  19.025  0.00  0.00    +0.000 A 
ATOM     19  C   UNL     1       0.774   9.902  18.158  0.00  0.00    +0.000 A 
BRANCH  17  20
ATOM     20  O   UNL     1      -1.044  10.676  21.260  0.00  0.00    +0.000 OA
ATOM     21  H   UNL     1      -1.876  10.177  21.257  0.00  0.00    +0.000 HD
ENDBRANCH  17  20
BRANCH  18  22
ATOM     22  O   UNL     1      -0.913  11.469  18.406  0.00  0.00    +0.000 OA
ATOM     23  C   UNL     1      -0.476  12.820  18.446  0.00  0.00    +0.000 C 
ENDBRANCH  18  22
ENDBRANCH  13  14
ENDBRANCH  10  12
ENDBRANCH   2  10
BRANCH   2  24
ATOM     24  C   UNL     1       7.116   6.318  17.483  0.00  0.00    +0.000 C 
ATOM     25  O   UNL     1       7.755   5.698  16.635  0.00  0.00    +0.000 OA
BRANCH  24  26
ATOM     26  C   UNL     1       7.773   7.473  18.174  0.00  0.00    +0.000 C 
ATOM     27  C   UNL     1       7.791   8.697  17.613  0.00  0.00    +0.000 C 
BRANCH  27  28
ATOM     28  C   UNL     1       8.478   9.815  18.260  0.00  0.00    +0.000 A 
ATOM     29  C   UNL     1       9.248   9.611  19.404  0.00  0.00    +0.000 A 
ATOM     30  C   UNL     1       9.897  10.682  20.018  0.00  0.00    +0.000 A 
ATOM     31  C   UNL     1       9.790  11.975  19.487  0.00  0.00    +0.000 A 
ATOM     32  C   UNL     1       9.038  12.198  18.331  0.00  0.00    +0.000 A 
ATOM     33  C   UNL     1       8.388  11.111  17.723  0.00  0.00    +0.000 A 
BRANCH  31  34
ATOM     34  O   UNL     1      10.436  12.992  20.133  0.00  0.00    +0.000 OA
ATOM     35  H   UNL     1      10.497  12.787  21.080  0.00  0.00    +0.000 HD
ENDBRANCH  31  34
BRANCH  32  36
ATOM     36  O   UNL     1       8.832  13.380  17.669  0.00  0.00    +0.000 OA
ATOM     37  C   UNL     1       7.494  13.820  17.472  0.00  0.00    +0.000 C 
ENDBRANCH  32  36
ENDBRANCH  27  28
ENDBRANCH  24  26
ENDBRANCH   2  24
TORSDOF 14
ENDMDL
MODEL 6
REMARK VINA RESULT:      -7.9      1.122     10.251
REMARK  Name = 
REMARK  17 active torsions:
REMARK  status: ('A' for Active; 'I' for Inactive)
REMARK    1  A    between atoms: C_1  and  C_2
REMARK    2  A    between atoms: C_2  and  O_3
REMARK    3  A    between atoms: O_3  and  C_4
REMARK    4  A    between atoms: C_4  and  O_5
REMARK    5  A    between atoms: C_6  and  C_7
REMARK    6  A    between atoms: C_8  and  C_9
REMARK    7  A    between atoms: C_8  and  C_22
REMARK    8  A    between atoms: C_9  and  C_11
REMARK    9  A    between atoms: C_12  and  C_13
REMARK   10  A    between atoms: C_16  and  O_17
REMARK   11  A    between atoms: C_18  and  O_19
REMARK   12  A    between atoms: O_19  and  C_20
REMARK   13  A    between atoms: C_22  and  C_24
REMARK   14  A    between atoms: C_25  and  C_26
REMARK   15  A    between atoms: C_29  and  O_30
REMARK   16  A    between atoms: C_31  and  O_32
REMARK   17  A    between atoms: O_32  and  C_33
REMARK                            x       y       z     vdW  Elec       q    Type
REMARK                         _______ _______ _______ _____ _____    ______ ____
ROOT
ATOM      1  C   UNL     1      -0.789  10.278  17.993  0.00  0.00    +0.000 C 
ATOM      2  C   UNL     1       0.270  10.120  18.832  0.00  0.00    +0.000 C 
ENDROOT
BRANCH   1   4
ATOM      3  C   UNL     1      -3.213  10.093  17.375  0.00  0.00    +0.000 C 
ATOM      4  C   UNL     1      -2.220  10.309  18.261  0.00  0.00    +0.000 C 
BRANCH   3   5
ATOM      5  O   UNL     1      -2.947   9.812  16.056  0.00  0.00    +0.000 OA
ATOM      6  H   UNL     1      -3.430   8.991  15.850  0.00  0.00    +0.000 HD
ENDBRANCH   3   5
BRANCH   3   7
ATOM      7  O   UNL     1      -4.507  10.048  17.856  0.00  0.00    +0.000 OA
BRANCH   7   9
ATOM      8  C   UNL     1      -5.390  12.117  17.102  0.00  0.00    +0.000 C 
ATOM      9  C   UNL     1      -5.079  11.269  18.328  0.00  0.00    +0.000 C 
ENDBRANCH   7   9
ENDBRANCH   3   7
ENDBRANCH   1   4
BRANCH   2  10
ATOM     10  C   UNL     1       0.096  10.000  20.350  0.00  0.00    +0.000 C 
ATOM     11  O   UNL     1       0.473   9.005  20.963  0.00  0.00    +0.000 OA
BRANCH  10  12
ATOM     12  C   UNL     1      -0.573  11.112  21.111  0.00  0.00    +0.000 C 
ATOM     13  C   UNL     1      -0.960  11.002  22.397  0.00  0.00    +0.000 C 
BRANCH  13  14
ATOM     14  C   UNL     1      -1.714  12.084  23.050  0.00  0.00    +0.000 A 
ATOM     15  C   UNL     1      -1.198  13.383  23.146  0.00  0.00    +0.000 A 
ATOM     16  C   UNL     1      -1.955  14.403  23.734  0.00  0.00    +0.000 A 
ATOM     17  C   UNL     1      -3.238  14.141  24.234  0.00  0.00    +0.000 A 
ATOM     18  C   UNL     1      -3.771  12.851  24.149  0.00  0.00    +0.000 A 
ATOM     19  C   UNL     1      -2.995  11.837  23.559  0.00  0.00    +0.000 A 
BRANCH  17  20
ATOM     20  O   UNL     1      -3.938  15.171  24.796  0.00  0.00    +0.000 OA
ATOM     21  H   UNL     1      -4.662  14.815  25.336  0.00  0.00    +0.000 HD
ENDBRANCH  17  20
BRANCH  18  22
ATOM     22  O   UNL     1      -5.001  12.412  24.565  0.00  0.00    +0.000 OA
ATOM     23  C   UNL     1      -6.136  12.731  23.772  0.00  0.00    +0.000 C 
ENDBRANCH  18  22
ENDBRANCH  13  14
ENDBRANCH  10  12
ENDBRANCH   2  10
BRANCH   2  24
ATOM     24  C   UNL     1       1.647  10.084  18.187  0.00  0.00    +0.000 C 
ATOM     25  O   UNL     1       2.348  11.085  18.069  0.00  0.00    +0.000 OA
BRANCH  24  26
ATOM     26  C   UNL     1       2.187   8.769  17.713  0.00  0.00    +0.000 C 
ATOM     27  C   UNL     1       2.487   7.788  18.585  0.00  0.00    +0.000 C 
BRANCH  27  28
ATOM     28  C   UNL     1       3.065   6.524  18.130  0.00  0.00    +0.000 A 
ATOM     29  C   UNL     1       2.291   5.367  18.071  0.00  0.00    +0.000 A 
ATOM     30  C   UNL     1       2.850   4.164  17.640  0.00  0.00    +0.000 A 
ATOM     31  C   UNL     1       4.195   4.106  17.252  0.00  0.00    +0.000 A 
ATOM     32  C   UNL     1       4.985   5.257  17.286  0.00  0.00    +0.000 A 
ATOM     33  C   UNL     1       4.410   6.463  17.725  0.00  0.00    +0.000 A 
BRANCH  31  34
ATOM     34  O   UNL     1       4.697   2.900  16.848  0.00  0.00    +0.000 OA
ATOM     35  H   UNL     1       4.862   2.342  17.624  0.00  0.00    +0.000 HD
ENDBRANCH  31  34
BRANCH  32  36
ATOM     36  O   UNL     1       6.304   5.392  16.937  0.00  0.00    +0.000 OA
ATOM     37  C   UNL     1       7.295   5.056  17.900  0.00  0.00    +0.000 C 
ENDBRANCH  32  36
ENDBRANCH  27  28
ENDBRANCH  24  26
ENDBRANCH   2  24
TORSDOF 14
ENDMDL
MODEL 7
REMARK VINA RESULT:      -7.8      4.252     10.065
REMARK  Name = 
REMARK  17 active torsions:
REMARK  status: ('A' for Active; 'I' for Inactive)
REMARK    1  A    between atoms: C_1  and  C_2
REMARK    2  A    between atoms: C_2  and  O_3
REMARK    3  A    between atoms: O_3  and  C_4
REMARK    4  A    between atoms: C_4  and  O_5
REMARK    5  A    between atoms: C_6  and  C_7
REMARK    6  A    between atoms: C_8  and  C_9
REMARK    7  A    between atoms: C_8  and  C_22
REMARK    8  A    between atoms: C_9  and  C_11
REMARK    9  A    between atoms: C_12  and  C_13
REMARK   10  A    between atoms: C_16  and  O_17
REMARK   11  A    between atoms: C_18  and  O_19
REMARK   12  A    between atoms: O_19  and  C_20
REMARK   13  A    between atoms: C_22  and  C_24
REMARK   14  A    between atoms: C_25  and  C_26
REMARK   15  A    between atoms: C_29  and  O_30
REMARK   16  A    between atoms: C_31  and  O_32
REMARK   17  A    between atoms: O_32  and  C_33
REMARK                            x       y       z     vdW  Elec       q    Type
REMARK                         _______ _______ _______ _____ _____    ______ ____
ROOT
ATOM      1  C   UNL     1       5.436   4.603  18.443  0.00  0.00    +0.000 C 
ATOM      2  C   UNL     1       5.701   5.792  17.837  0.00  0.00    +0.000 C 
ENDROOT
BRANCH   1   4
ATOM      3  C   UNL     1       4.000   2.737  19.310  0.00  0.00    +0.000 C 
ATOM      4  C   UNL     1       4.177   3.901  18.652  0.00  0.00    +0.000 C 
BRANCH   3   5
ATOM      5  O   UNL     1       5.059   2.065  19.873  0.00  0.00    +0.000 OA
ATOM      6  H   UNL     1       4.721   1.663  20.693  0.00  0.00    +0.000 HD
ENDBRANCH   3   5
BRANCH   3   7
ATOM      7  O   UNL     1       2.706   2.296  19.502  0.00  0.00    +0.000 OA
BRANCH   7   9
ATOM      8  C   UNL     1       1.825   2.860  21.631  0.00  0.00    +0.000 C 
ATOM      9  C   UNL     1       1.793   3.187  20.145  0.00  0.00    +0.000 C 
ENDBRANCH   7   9
ENDBRANCH   3   7
ENDBRANCH   1   4
BRANCH   2  10
ATOM     10  C   UNL     1       4.606   6.623  17.160  0.00  0.00    +0.000 C 
ATOM     11  O   UNL     1       4.566   6.758  15.940  0.00  0.00    +0.000 OA
BRANCH  10  12
ATOM     12  C   UNL     1       3.567   7.310  18.002  0.00  0.00    +0.000 C 
ATOM     13  C   UNL     1       2.669   8.183  17.505  0.00  0.00    +0.000 C 
BRANCH  13  14
ATOM     14  C   UNL     1       1.754   8.911  18.400  0.00  0.00    +0.000 A 
ATOM     15  C   UNL     1       1.020  10.019  17.954  0.00  0.00    +0.000 A 
ATOM     16  C   UNL     1       0.126  10.666  18.814  0.00  0.00    +0.000 A 
ATOM     17  C   UNL     1      -0.050  10.217  20.130  0.00  0.00    +0.000 A 
ATOM     18  C   UNL     1       0.673   9.114  20.595  0.00  0.00    +0.000 A 
ATOM     19  C   UNL     1       1.571   8.478  19.719  0.00  0.00    +0.000 A 
BRANCH  17  20
ATOM     20  O   UNL     1      -0.938  10.880  20.929  0.00  0.00    +0.000 OA
ATOM     21  H   UNL     1      -0.575  11.748  21.167  0.00  0.00    +0.000 HD
ENDBRANCH  17  20
BRANCH  18  22
ATOM     22  O   UNL     1       0.624   8.527  21.832  0.00  0.00    +0.000 OA
ATOM     23  C   UNL     1       1.128   9.253  22.945  0.00  0.00    +0.000 C 
ENDBRANCH  18  22
ENDBRANCH  13  14
ENDBRANCH  10  12
ENDBRANCH   2  10
BRANCH   2  24
ATOM     24  C   UNL     1       7.151   6.251  17.850  0.00  0.00    +0.000 C 
ATOM     25  O   UNL     1       8.094   5.464  17.828  0.00  0.00    +0.000 OA
BRANCH  24  26
ATOM     26  C   UNL     1       7.442   7.720  17.851  0.00  0.00    +0.000 C 
ATOM     27  C   UNL     1       8.473   8.222  18.558  0.00  0.00    +0.000 C 
BRANCH  27  28
ATOM     28  C   UNL     1       8.727   9.662  18.604  0.00  0.00    +0.000 A 
ATOM     29  C   UNL     1       8.335  10.488  17.554  0.00  0.00    +0.000 A 
ATOM     30  C   UNL     1       8.584  11.860  17.603  0.00  0.00    +0.000 A 
ATOM     31  C   UNL     1       9.224  12.425  18.714  0.00  0.00    +0.000 A 
ATOM     32  C   UNL     1       9.610  11.617  19.787  0.00  0.00    +0.000 A 
ATOM     33  C   UNL     1       9.355  10.236  19.724  0.00  0.00    +0.000 A 
BRANCH  31  34
ATOM     34  O   UNL     1       9.456  13.772  18.709  0.00  0.00    +0.000 OA
ATOM     35  H   UNL     1       8.859  14.205  19.340  0.00  0.00    +0.000 HD
ENDBRANCH  31  34
BRANCH  32  36
ATOM     36  O   UNL     1      10.231  11.991  20.950  0.00  0.00    +0.000 OA
ATOM     37  C   UNL     1       9.425  12.437  22.033  0.00  0.00    +0.000 C 
ENDBRANCH  32  36
ENDBRANCH  27  28
ENDBRANCH  24  26
ENDBRANCH   2  24
TORSDOF 14
ENDMDL
MODEL 8
REMARK VINA RESULT:      -7.8      3.976     10.164
REMARK  Name = 
REMARK  17 active torsions:
REMARK  status: ('A' for Active; 'I' for Inactive)
REMARK    1  A    between atoms: C_1  and  C_2
REMARK    2  A    between atoms: C_2  and  O_3
REMARK    3  A    between atoms: O_3  and  C_4
REMARK    4  A    between atoms: C_4  and  O_5
REMARK    5  A    between atoms: C_6  and  C_7
REMARK    6  A    between atoms: C_8  and  C_9
REMARK    7  A    between atoms: C_8  and  C_22
REMARK    8  A    between atoms: C_9  and  C_11
REMARK    9  A    between atoms: C_12  and  C_13
REMARK   10  A    between atoms: C_16  and  O_17
REMARK   11  A    between atoms: C_18  and  O_19
REMARK   12  A    between atoms: O_19  and  C_20
REMARK   13  A    between atoms: C_22  and  C_24
REMARK   14  A    between atoms: C_25  and  C_26
REMARK   15  A    between atoms: C_29  and  O_30
REMARK   16  A    between atoms: C_31  and  O_32
REMARK   17  A    between atoms: O_32  and  C_33
REMARK                            x       y       z     vdW  Elec       q    Type
REMARK                         _______ _______ _______ _____ _____    ______ ____
ROOT
ATOM      1  C   UNL     1       5.000   4.566  16.549  0.00  0.00    +0.000 C 
ATOM      2  C   UNL     1       5.772   5.322  17.375  0.00  0.00    +0.000 C 
ENDROOT
BRANCH   1   4
ATOM      3  C   UNL     1       3.650   2.830  17.755  0.00  0.00    +0.000 C 
ATOM      4  C   UNL     1       3.800   3.786  16.817  0.00  0.00    +0.000 C 
BRANCH   3   5
ATOM      5  O   UNL     1       4.682   2.480  18.593  0.00  0.00    +0.000 OA
ATOM      6  H   UNL     1       4.462   1.598  18.943  0.00  0.00    +0.000 HD
ENDBRANCH   3   5
BRANCH   3   7
ATOM      7  O   UNL     1       2.391   2.290  17.929  0.00  0.00    +0.000 OA
BRANCH   7   9
ATOM      8  C   UNL     1       1.288   3.672  19.511  0.00  0.00    +0.000 C 
ATOM      9  C   UNL     1       1.852   2.282  19.252  0.00  0.00    +0.000 C 
ENDBRANCH   7   9
ENDBRANCH   3   7
ENDBRANCH   1   4
BRANCH   2  10
ATOM     10  C   UNL     1       5.419   5.535  18.851  0.00  0.00    +0.000 C 
ATOM     11  O   UNL     1       6.027   4.954  19.746  0.00  0.00    +0.000 OA
BRANCH  10  12
ATOM     12  C   UNL     1       4.290   6.458  19.219  0.00  0.00    +0.000 C 
ATOM     13  C   UNL     1       3.418   6.957  18.321  0.00  0.00    +0.000 C 
BRANCH  13  14
ATOM     14  C   UNL     1       2.407   7.947  18.726  0.00  0.00    +0.000 A 
ATOM     15  C   UNL     1       1.986   8.963  17.857  0.00  0.00    +0.000 A 
ATOM     16  C   UNL     1       0.992   9.865  18.254  0.00  0.00    +0.000 A 
ATOM     17  C   UNL     1       0.403   9.766  19.522  0.00  0.00    +0.000 A 
ATOM     18  C   UNL     1       0.809   8.760  20.404  0.00  0.00    +0.000 A 
ATOM     19  C   UNL     1       1.813   7.865  19.992  0.00  0.00    +0.000 A 
BRANCH  17  20
ATOM     20  O   UNL     1      -0.566  10.667  19.860  0.00  0.00    +0.000 OA
ATOM     21  H   UNL     1      -1.433  10.231  19.851  0.00  0.00    +0.000 HD
ENDBRANCH  17  20
BRANCH  18  22
ATOM     22  O   UNL     1       0.343   8.498  21.666  0.00  0.00    +0.000 OA
ATOM     23  C   UNL     1       0.417   9.529  22.641  0.00  0.00    +0.000 C 
ENDBRANCH  18  22
ENDBRANCH  13  14
ENDBRANCH  10  12
ENDBRANCH   2  10
BRANCH   2  24
ATOM     24  C   UNL     1       7.003   5.964  16.753  0.00  0.00    +0.000 C 
ATOM     25  O   UNL     1       7.402   5.676  15.627  0.00  0.00    +0.000 OA
BRANCH  24  26
ATOM     26  C   UNL     1       7.736   7.016  17.527  0.00  0.00    +0.000 C 
ATOM     27  C   UNL     1       7.481   8.324  17.331  0.00  0.00    +0.000 C 
BRANCH  27  28
ATOM     28  C   UNL     1       8.232   9.356  18.046  0.00  0.00    +0.000 A 
ATOM     29  C   UNL     1       8.842   9.076  19.267  0.00  0.00    +0.000 A 
ATOM     30  C   UNL     1       9.553  10.065  19.945  0.00  0.00    +0.000 A 
ATOM     31  C   UNL     1       9.672  11.351  19.402  0.00  0.00    +0.000 A 
ATOM     32  C   UNL     1       9.084  11.649  18.170  0.00  0.00    +0.000 A 
ATOM     33  C   UNL     1       8.368  10.644  17.498  0.00  0.00    +0.000 A 
BRANCH  31  34
ATOM     34  O   UNL     1      10.371  12.289  20.111  0.00  0.00    +0.000 OA
ATOM     35  H   UNL     1      10.716  12.962  19.504  0.00  0.00    +0.000 HD
ENDBRANCH  31  34
BRANCH  32  36
ATOM     36  O   UNL     1       9.104  12.836  17.485  0.00  0.00    +0.000 OA
ATOM     37  C   UNL     1      10.363  13.374  17.102  0.00  0.00    +0.000 C 
ENDBRANCH  32  36
ENDBRANCH  27  28
ENDBRANCH  24  26
ENDBRANCH   2  24
TORSDOF 14
ENDMDL
MODEL 9
REMARK VINA RESULT:      -7.8      3.200     10.456
REMARK  Name = 
REMARK  17 active torsions:
REMARK  status: ('A' for Active; 'I' for Inactive)
REMARK    1  A    between atoms: C_1  and  C_2
REMARK    2  A    between atoms: C_2  and  O_3
REMARK    3  A    between atoms: O_3  and  C_4
REMARK    4  A    between atoms: C_4  and  O_5
REMARK    5  A    between atoms: C_6  and  C_7
REMARK    6  A    between atoms: C_8  and  C_9
REMARK    7  A    between atoms: C_8  and  C_22
REMARK    8  A    between atoms: C_9  and  C_11
REMARK    9  A    between atoms: C_12  and  C_13
REMARK   10  A    between atoms: C_16  and  O_17
REMARK   11  A    between atoms: C_18  and  O_19
REMARK   12  A    between atoms: O_19  and  C_20
REMARK   13  A    between atoms: C_22  and  C_24
REMARK   14  A    between atoms: C_25  and  C_26
REMARK   15  A    between atoms: C_29  and  O_30
REMARK   16  A    between atoms: C_31  and  O_32
REMARK   17  A    between atoms: O_32  and  C_33
REMARK                            x       y       z     vdW  Elec       q    Type
REMARK                         _______ _______ _______ _____ _____    ______ ____
ROOT
ATOM      1  C   UNL     1       0.433   9.583  20.362  0.00  0.00    +0.000 C 
ATOM      2  C   UNL     1       0.511   9.904  19.043  0.00  0.00    +0.000 C 
ENDROOT
BRANCH   1   4
ATOM      3  C   UNL     1      -0.185  10.147  22.727  0.00  0.00    +0.000 C 
ATOM      4  C   UNL     1      -0.457  10.066  21.409  0.00  0.00    +0.000 C 
BRANCH   3   5
ATOM      5  O   UNL     1       1.030   9.751  23.234  0.00  0.00    +0.000 OA
ATOM      6  H   UNL     1       1.320  10.462  23.833  0.00  0.00    +0.000 HD
ENDBRANCH   3   5
BRANCH   3   7
ATOM      7  O   UNL     1      -1.123  10.749  23.542  0.00  0.00    +0.000 OA
BRANCH   7   9
ATOM      8  C   UNL     1      -3.040  12.124  23.292  0.00  0.00    +0.000 C 
ATOM      9  C   UNL     1      -1.520  12.082  23.221  0.00  0.00    +0.000 C 
ENDBRANCH   7   9
ENDBRANCH   3   7
ENDBRANCH   1   4
BRANCH   2  10
ATOM     10  C   UNL     1      -0.470  10.878  18.383  0.00  0.00    +0.000 C 
ATOM     11  O   UNL     1      -1.483  10.482  17.813  0.00  0.00    +0.000 OA
BRANCH  10  12
ATOM     12  C   UNL     1      -0.182  12.354  18.408  0.00  0.00    +0.000 C 
ATOM     13  C   UNL     1       1.049  12.866  18.605  0.00  0.00    +0.000 C 
BRANCH  13  14
ATOM     14  C   UNL     1       1.247  14.319  18.736  0.00  0.00    +0.000 A 
ATOM     15  C   UNL     1       2.474  14.921  18.430  0.00  0.00    +0.000 A 
ATOM     16  C   UNL     1       2.622  16.310  18.523  0.00  0.00    +0.000 A 
ATOM     17  C   UNL     1       1.547  17.117  18.921  0.00  0.00    +0.000 A 
ATOM     18  C   UNL     1       0.314  16.535  19.232  0.00  0.00    +0.000 A 
ATOM     19  C   UNL     1       0.184  15.138  19.138  0.00  0.00    +0.000 A 
BRANCH  17  20
ATOM     20  O   UNL     1       1.741  18.467  18.992  0.00  0.00    +0.000 OA
ATOM     21  H   UNL     1       2.532  18.709  18.485  0.00  0.00    +0.000 HD
ENDBRANCH  17  20
BRANCH  18  22
ATOM     22  O   UNL     1      -0.843  17.156  19.621  0.00  0.00    +0.000 OA
ATOM     23  C   UNL     1      -1.606  17.842  18.638  0.00  0.00    +0.000 C 
ENDBRANCH  18  22
ENDBRANCH  13  14
ENDBRANCH  10  12
ENDBRANCH   2  10
BRANCH   2  24
ATOM     24  C   UNL     1       1.617   9.231  18.245  0.00  0.00    +0.000 C 
ATOM     25  O   UNL     1       2.113   9.739  17.243  0.00  0.00    +0.000 OA
BRANCH  24  26
ATOM     26  C   UNL     1       2.150   7.915  18.722  0.00  0.00    +0.000 C 
ATOM     27  C   UNL     1       3.123   7.275  18.044  0.00  0.00    +0.000 C 
BRANCH  27  28
ATOM     28  C   UNL     1       3.608   5.964  18.476  0.00  0.00    +0.000 A 
ATOM     29  C   UNL     1       2.734   5.024  19.019  0.00  0.00    +0.000 A 
ATOM     30  C   UNL     1       3.205   3.779  19.433  0.00  0.00    +0.000 A 
ATOM     31  C   UNL     1       4.561   3.452  19.299  0.00  0.00    +0.000 A 
ATOM     32  C   UNL     1       5.452   4.373  18.741  0.00  0.00    +0.000 A 
ATOM     33  C   UNL     1       4.965   5.626  18.330  0.00  0.00    +0.000 A 
BRANCH  31  34
ATOM     34  O   UNL     1       4.974   2.222  19.730  0.00  0.00    +0.000 OA
ATOM     35  H   UNL     1       4.203   1.699  19.999  0.00  0.00    +0.000 HD
ENDBRANCH  31  34
BRANCH  32  36
ATOM     36  O   UNL     1       6.797   4.227  18.523  0.00  0.00    +0.000 OA
ATOM     37  C   UNL     1       7.492   5.275  17.860  0.00  0.00    +0.000 C 
ENDBRANCH  32  36
ENDBRANCH  27  28
ENDBRANCH  24  26
ENDBRANCH   2  24
TORSDOF 14
ENDMDL
