MODEL 1
REMARK VINA RESULT:      -7.4      0.000      0.000
REMARK  Name = 
REMARK  17 active torsions:
REMARK  status: ('A' for Active; 'I' for Inactive)
REMARK    1  A    between atoms: C_1  and  C_2
REMARK    2  A    between atoms: C_2  and  C_3
REMARK    3  A    between atoms: C_3  and  N_4
REMARK    4  A    between atoms: C_3  and  C_17
REMARK    5  A    between atoms: C_5  and  C_7
REMARK    6  A    between atoms: C_7  and  C_8
REMARK    7  A    between atoms: C_8  and  C_9
REMARK    8  A    between atoms: C_23  and  C_24
REMARK    9  A    between atoms: C_24  and  C_25
REMARK   10  A    between atoms: C_24  and  C_26
REMARK   11  A    between atoms: C_26  and  C_27
REMARK   12  A    between atoms: C_27  and  C_28
REMARK   13  A    between atoms: C_28  and  C_29
REMARK   14  A    between atoms: C_29  and  C_30
REMARK   15  A    between atoms: C_29  and  C_31
REMARK   16  A    between atoms: C_29  and  O_32
REMARK   17  A    between atoms: O_32  and  C_33
REMARK                            x       y       z     vdW  Elec       q    Type
REMARK                         _______ _______ _______ _____ _____    ______ ____
ROOT
ATOM      1  C   UNL     1       1.783   6.002  19.996  0.00  0.00    +0.000 C 
ATOM      2  O   UNL     1       1.386   6.163  21.150  0.00  0.00    +0.000 OA
ATOM      3  N   UNL     1       2.094   6.993  19.088  0.00  0.00    +0.000 N 
ATOM      4  C   UNL     1       1.803   8.306  19.356  0.00  0.00    +0.000 A 
ATOM      5  N   UNL     1       1.396   8.826  20.485  0.00  0.00    +0.000 NA
ATOM      6  C   UNL     1       1.106  10.158  20.301  0.00  0.00    +0.000 A 
ATOM      7  C   UNL     1       1.268  10.637  19.016  0.00  0.00    +0.000 A 
ATOM      8  S   UNL     1       1.926   9.380  18.034  0.00  0.00    +0.000 S 
ATOM      9  H   UNL     1       2.480   6.775  18.179  0.00  0.00    +0.000 HD
ENDROOT
BRANCH   7  10
ATOM     10  C   UNL     1       0.937  12.005  18.464  0.00  0.00    +0.000 C 
ATOM     11  C   UNL     1       1.934  13.043  18.993  0.00  0.00    +0.000 C 
BRANCH  10  12
ATOM     12  C   UNL     1      -0.522  12.372  18.821  0.00  0.00    +0.000 C 
BRANCH  12  13
ATOM     13  C   UNL     1      -1.578  11.297  18.531  0.00  0.00    +0.000 C 
BRANCH  13  14
ATOM     14  C   UNL     1      -2.981  11.851  18.252  0.00  0.00    +0.000 C 
BRANCH  14  15
ATOM     15  C   UNL     1      -3.922  10.915  17.441  0.00  0.00    +0.000 C 
ATOM     16  C   UNL     1      -3.441   9.461  17.530  0.00  0.00    +0.000 C 
ATOM     17  C   UNL     1      -5.364  11.045  17.957  0.00  0.00    +0.000 C 
BRANCH  15  18
ATOM     18  O   UNL     1      -3.827  11.401  16.085  0.00  0.00    +0.000 OA
ATOM     19  C   UNL     1      -3.165  10.573  15.140  0.00  0.00    +0.000 C 
ENDBRANCH  15  18
ENDBRANCH  14  15
ENDBRANCH  13  14
ENDBRANCH  12  13
ENDBRANCH  10  12
ENDBRANCH   7  10
BRANCH   1  20
ATOM     20  C   UNL     1       2.047   4.574  19.475  0.00  0.00    +0.000 C 
BRANCH  20  21
ATOM     21  N   UNL     1       3.252   4.643  18.644  0.00  0.00    +0.000 N 
ATOM     22  C   UNL     1       3.325   3.997  17.430  0.00  0.00    +0.000 C 
ATOM     23  O   UNL     1       2.425   3.276  17.013  0.00  0.00    +0.000 OA
ATOM     24  H   UNL     1       3.820   5.475  18.764  0.00  0.00    +0.000 HD
BRANCH  22  25
ATOM     25  C   UNL     1       4.649   4.202  16.712  0.00  0.00    +0.000 C 
BRANCH  25  26
ATOM     26  C   UNL     1       4.900   5.680  16.418  0.00  0.00    +0.000 C 
BRANCH  26  27
ATOM     27  C   UNL     1       6.058   6.247  17.203  0.00  0.00    +0.000 A 
ATOM     28  C   UNL     1       6.746   5.458  18.138  0.00  0.00    +0.000 A 
ATOM     29  C   UNL     1       7.835   5.986  18.834  0.00  0.00    +0.000 A 
ATOM     30  F   UNL     1       8.489   5.208  19.710  0.00  0.00    +0.000 F 
ATOM     31  C   UNL     1       8.259   7.288  18.630  0.00  0.00    +0.000 A 
ATOM     32  C   UNL     1       7.569   8.073  17.715  0.00  0.00    +0.000 A 
ATOM     33  F   UNL     1       7.967   9.335  17.505  0.00  0.00    +0.000 F 
ATOM     34  C   UNL     1       6.479   7.569  17.006  0.00  0.00    +0.000 A 
ENDBRANCH  26  27
ENDBRANCH  25  26
ENDBRANCH  22  25
ENDBRANCH  20  21
BRANCH  20  36
ATOM     35  C   UNL     1       1.392   2.392  20.635  0.00  0.00    +0.000 C 
ATOM     36  C   UNL     1       2.303   3.611  20.646  0.00  0.00    +0.000 C 
ENDBRANCH  20  36
ENDBRANCH   1  20
TORSDOF 12
ENDMDL
MODEL 2
REMARK VINA RESULT:      -7.3      3.887      4.788
REMARK  Name = 
REMARK  17 active torsions:
REMARK  status: ('A' for Active; 'I' for Inactive)
REMARK    1  A    between atoms: C_1  and  C_2
REMARK    2  A    between atoms: C_2  and  C_3
REMARK    3  A    between atoms: C_3  and  N_4
REMARK    4  A    between atoms: C_3  and  C_17
REMARK    5  A    between atoms: C_5  and  C_7
REMARK    6  A    between atoms: C_7  and  C_8
REMARK    7  A    between atoms: C_8  and  C_9
REMARK    8  A    between atoms: C_23  and  C_24
REMARK    9  A    between atoms: C_24  and  C_25
REMARK   10  A    between atoms: C_24  and  C_26
REMARK   11  A    between atoms: C_26  and  C_27
REMARK   12  A    between atoms: C_27  and  C_28
REMARK   13  A    between atoms: C_28  and  C_29
REMARK   14  A    between atoms: C_29  and  C_30
REMARK   15  A    between atoms: C_29  and  C_31
REMARK   16  A    between atoms: C_29  and  O_32
REMARK   17  A    between atoms: O_32  and  C_33
REMARK                            x       y       z     vdW  Elec       q    Type
REMARK                         _______ _______ _______ _____ _____    ______ ____
ROOT
ATOM      1  C   UNL     1       2.516   6.042  18.884  0.00  0.00    +0.000 C 
ATOM      2  O   UNL     1       2.574   5.527  20.001  0.00  0.00    +0.000 OA
ATOM      3  N   UNL     1       2.217   7.359  18.601  0.00  0.00    +0.000 N 
ATOM      4  C   UNL     1       1.762   8.201  19.584  0.00  0.00    +0.000 A 
ATOM      5  N   UNL     1       1.719   7.985  20.873  0.00  0.00    +0.000 NA
ATOM      6  C   UNL     1       1.085   9.035  21.496  0.00  0.00    +0.000 A 
ATOM      7  C   UNL     1       0.622  10.037  20.665  0.00  0.00    +0.000 A 
ATOM      8  S   UNL     1       1.114   9.687  19.048  0.00  0.00    +0.000 S 
ATOM      9  H   UNL     1       2.258   7.720  17.657  0.00  0.00    +0.000 HD
ENDROOT
BRANCH   7  10
ATOM     10  C   UNL     1      -0.199  11.258  21.014  0.00  0.00    +0.000 C 
ATOM     11  C   UNL     1       0.689  12.507  21.017  0.00  0.00    +0.000 C 
BRANCH  10  12
ATOM     12  C   UNL     1      -0.897  11.042  22.378  0.00  0.00    +0.000 C 
BRANCH  12  13
ATOM     13  C   UNL     1      -1.530  12.286  23.015  0.00  0.00    +0.000 C 
BRANCH  13  14
ATOM     14  C   UNL     1      -3.002  12.504  22.643  0.00  0.00    +0.000 C 
BRANCH  14  15
ATOM     15  C   UNL     1      -3.850  13.281  23.690  0.00  0.00    +0.000 C 
ATOM     16  C   UNL     1      -4.390  12.324  24.761  0.00  0.00    +0.000 C 
ATOM     17  C   UNL     1      -3.005  14.395  24.329  0.00  0.00    +0.000 C 
BRANCH  15  18
ATOM     18  O   UNL     1      -4.933  13.848  22.922  0.00  0.00    +0.000 OA
ATOM     19  C   UNL     1      -5.101  15.258  22.975  0.00  0.00    +0.000 C 
ENDBRANCH  15  18
ENDBRANCH  14  15
ENDBRANCH  13  14
ENDBRANCH  12  13
ENDBRANCH  10  12
ENDBRANCH   7  10
BRANCH   1  20
ATOM     20  C   UNL     1       2.875   5.204  17.640  0.00  0.00    +0.000 C 
BRANCH  20  21
ATOM     21  N   UNL     1       4.337   5.127  17.588  0.00  0.00    +0.000 N 
ATOM     22  C   UNL     1       5.085   6.095  16.957  0.00  0.00    +0.000 C 
ATOM     23  O   UNL     1       4.574   7.028  16.346  0.00  0.00    +0.000 OA
ATOM     24  H   UNL     1       4.777   4.622  18.351  0.00  0.00    +0.000 HD
BRANCH  22  25
ATOM     25  C   UNL     1       6.583   5.846  17.025  0.00  0.00    +0.000 C 
BRANCH  25  26
ATOM     26  C   UNL     1       6.949   4.487  16.433  0.00  0.00    +0.000 C 
BRANCH  26  27
ATOM     27  C   UNL     1       6.920   4.478  14.923  0.00  0.00    +0.000 A 
ATOM     28  C   UNL     1       7.718   5.364  14.183  0.00  0.00    +0.000 A 
ATOM     29  C   UNL     1       7.706   5.323  12.788  0.00  0.00    +0.000 A 
ATOM     30  F   UNL     1       8.489   6.168  12.103  0.00  0.00    +0.000 F 
ATOM     31  C   UNL     1       6.910   4.421  12.102  0.00  0.00    +0.000 A 
ATOM     32  C   UNL     1       6.109   3.554  12.833  0.00  0.00    +0.000 A 
ATOM     33  F   UNL     1       5.334   2.675  12.183  0.00  0.00    +0.000 F 
ATOM     34  C   UNL     1       6.105   3.574  14.227  0.00  0.00    +0.000 A 
ENDBRANCH  26  27
ENDBRANCH  25  26
ENDBRANCH  22  25
ENDBRANCH  20  21
BRANCH  20  36
ATOM     35  C   UNL     1       3.367   2.695  17.674  0.00  0.00    +0.000 C 
ATOM     36  C   UNL     1       2.305   3.781  17.766  0.00  0.00    +0.000 C 
ENDBRANCH  20  36
ENDBRANCH   1  20
TORSDOF 12
ENDMDL
MODEL 3
REMARK VINA RESULT:      -7.3      4.136     10.196
REMARK  Name = 
REMARK  17 active torsions:
REMARK  status: ('A' for Active; 'I' for Inactive)
REMARK    1  A    between atoms: C_1  and  C_2
REMARK    2  A    between atoms: C_2  and  C_3
REMARK    3  A    between atoms: C_3  and  N_4
REMARK    4  A    between atoms: C_3  and  C_17
REMARK    5  A    between atoms: C_5  and  C_7
REMARK    6  A    between atoms: C_7  and  C_8
REMARK    7  A    between atoms: C_8  and  C_9
REMARK    8  A    between atoms: C_23  and  C_24
REMARK    9  A    between atoms: C_24  and  C_25
REMARK   10  A    between atoms: C_24  and  C_26
REMARK   11  A    between atoms: C_26  and  C_27
REMARK   12  A    between atoms: C_27  and  C_28
REMARK   13  A    between atoms: C_28  and  C_29
REMARK   14  A    between atoms: C_29  and  C_30
REMARK   15  A    between atoms: C_29  and  C_31
REMARK   16  A    between atoms: C_29  and  O_32
REMARK   17  A    between atoms: O_32  and  C_33
REMARK                            x       y       z     vdW  Elec       q    Type
REMARK                         _______ _______ _______ _____ _____    ______ ____
ROOT
ATOM      1  C   UNL     1       1.250   9.056  20.158  0.00  0.00    +0.000 C 
ATOM      2  O   UNL     1       1.423   9.465  19.009  0.00  0.00    +0.000 OA
ATOM      3  N   UNL     1       1.648   7.835  20.664  0.00  0.00    +0.000 N 
ATOM      4  C   UNL     1       2.137   6.858  19.834  0.00  0.00    +0.000 A 
ATOM      5  N   UNL     1       2.464   6.963  18.572  0.00  0.00    +0.000 NA
ATOM      6  C   UNL     1       2.801   5.724  18.078  0.00  0.00    +0.000 A 
ATOM      7  C   UNL     1       2.699   4.673  18.969  0.00  0.00    +0.000 A 
ATOM      8  S   UNL     1       2.275   5.301  20.520  0.00  0.00    +0.000 S 
ATOM      9  H   UNL     1       1.528   7.603  21.640  0.00  0.00    +0.000 HD
ENDROOT
BRANCH   7  10
ATOM     10  C   UNL     1       2.889   3.194  18.720  0.00  0.00    +0.000 C 
ATOM     11  C   UNL     1       3.802   2.591  19.793  0.00  0.00    +0.000 C 
BRANCH  10  12
ATOM     12  C   UNL     1       3.449   2.975  17.295  0.00  0.00    +0.000 C 
BRANCH  12  13
ATOM     13  C   UNL     1       4.966   3.136  17.135  0.00  0.00    +0.000 C 
BRANCH  13  14
ATOM     14  C   UNL     1       5.382   4.144  16.056  0.00  0.00    +0.000 C 
BRANCH  14  15
ATOM     15  C   UNL     1       6.582   5.064  16.425  0.00  0.00    +0.000 C 
ATOM     16  C   UNL     1       6.125   6.525  16.535  0.00  0.00    +0.000 C 
ATOM     17  C   UNL     1       7.222   4.591  17.739  0.00  0.00    +0.000 C 
BRANCH  15  18
ATOM     18  O   UNL     1       7.506   4.901  15.327  0.00  0.00    +0.000 OA
ATOM     19  C   UNL     1       6.956   4.793  14.022  0.00  0.00    +0.000 C 
ENDBRANCH  15  18
ENDBRANCH  14  15
ENDBRANCH  13  14
ENDBRANCH  12  13
ENDBRANCH  10  12
ENDBRANCH   7  10
BRANCH   1  20
ATOM     20  C   UNL     1       0.595   9.980  21.203  0.00  0.00    +0.000 C 
BRANCH  20  21
ATOM     21  N   UNL     1      -0.242  10.929  20.465  0.00  0.00    +0.000 N 
ATOM     22  C   UNL     1      -0.351  12.245  20.854  0.00  0.00    +0.000 C 
ATOM     23  O   UNL     1       0.180  12.676  21.872  0.00  0.00    +0.000 OA
ATOM     24  H   UNL     1      -0.374  10.722  19.479  0.00  0.00    +0.000 HD
BRANCH  22  25
ATOM     25  C   UNL     1      -1.250  13.073  19.951  0.00  0.00    +0.000 C 
BRANCH  25  26
ATOM     26  C   UNL     1      -2.668  13.166  20.512  0.00  0.00    +0.000 C 
BRANCH  26  27
ATOM     27  C   UNL     1      -3.674  12.388  19.697  0.00  0.00    +0.000 A 
ATOM     28  C   UNL     1      -5.043  12.447  19.998  0.00  0.00    +0.000 A 
ATOM     29  C   UNL     1      -5.965  11.748  19.217  0.00  0.00    +0.000 A 
ATOM     30  F   UNL     1      -7.270  11.833  19.513  0.00  0.00    +0.000 F 
ATOM     31  C   UNL     1      -5.559  10.980  18.139  0.00  0.00    +0.000 A 
ATOM     32  C   UNL     1      -4.203  10.909  17.849  0.00  0.00    +0.000 A 
ATOM     33  F   UNL     1      -3.794  10.171  16.808  0.00  0.00    +0.000 F 
ATOM     34  C   UNL     1      -3.262  11.600  18.614  0.00  0.00    +0.000 A 
ENDBRANCH  26  27
ENDBRANCH  25  26
ENDBRANCH  22  25
ENDBRANCH  20  21
BRANCH  20  36
ATOM     35  C   UNL     1      -0.061   9.492  23.626  0.00  0.00    +0.000 C 
ATOM     36  C   UNL     1      -0.297   9.168  22.158  0.00  0.00    +0.000 C 
ENDBRANCH  20  36
ENDBRANCH   1  20
TORSDOF 12
ENDMDL
MODEL 4
REMARK VINA RESULT:      -7.0      4.174      9.840
REMARK  Name = 
REMARK  17 active torsions:
REMARK  status: ('A' for Active; 'I' for Inactive)
REMARK    1  A    between atoms: C_1  and  C_2
REMARK    2  A    between atoms: C_2  and  C_3
REMARK    3  A    between atoms: C_3  and  N_4
REMARK    4  A    between atoms: C_3  and  C_17
REMARK    5  A    between atoms: C_5  and  C_7
REMARK    6  A    between atoms: C_7  and  C_8
REMARK    7  A    between atoms: C_8  and  C_9
REMARK    8  A    between atoms: C_23  and  C_24
REMARK    9  A    between atoms: C_24  and  C_25
REMARK   10  A    between atoms: C_24  and  C_26
REMARK   11  A    between atoms: C_26  and  C_27
REMARK   12  A    between atoms: C_27  and  C_28
REMARK   13  A    between atoms: C_28  and  C_29
REMARK   14  A    between atoms: C_29  and  C_30
REMARK   15  A    between atoms: C_29  and  C_31
REMARK   16  A    between atoms: C_29  and  O_32
REMARK   17  A    between atoms: O_32  and  C_33
REMARK                            x       y       z     vdW  Elec       q    Type
REMARK                         _______ _______ _______ _____ _____    ______ ____
ROOT
ATOM      1  C   UNL     1       0.645   8.255  21.384  0.00  0.00    +0.000 C 
ATOM      2  O   UNL     1      -0.357   7.613  21.700  0.00  0.00    +0.000 OA
ATOM      3  N   UNL     1       1.682   7.820  20.585  0.00  0.00    +0.000 N 
ATOM      4  C   UNL     1       1.768   6.505  20.203  0.00  0.00    +0.000 A 
ATOM      5  N   UNL     1       0.872   5.563  20.350  0.00  0.00    +0.000 NA
ATOM      6  C   UNL     1       1.397   4.360  19.938  0.00  0.00    +0.000 A 
ATOM      7  C   UNL     1       2.708   4.392  19.505  0.00  0.00    +0.000 A 
ATOM      8  S   UNL     1       3.254   6.029  19.509  0.00  0.00    +0.000 S 
ATOM      9  H   UNL     1       2.438   8.436  20.317  0.00  0.00    +0.000 HD
ENDROOT
BRANCH   7  10
ATOM     10  C   UNL     1       3.601   3.243  19.093  0.00  0.00    +0.000 C 
ATOM     11  C   UNL     1       4.056   2.459  20.329  0.00  0.00    +0.000 C 
BRANCH  10  12
ATOM     12  C   UNL     1       4.799   3.782  18.277  0.00  0.00    +0.000 C 
BRANCH  12  13
ATOM     13  C   UNL     1       4.629   3.789  16.753  0.00  0.00    +0.000 C 
BRANCH  13  14
ATOM     14  C   UNL     1       5.945   3.684  15.972  0.00  0.00    +0.000 C 
BRANCH  14  15
ATOM     15  C   UNL     1       6.503   5.025  15.415  0.00  0.00    +0.000 C 
ATOM     16  C   UNL     1       7.111   4.817  14.021  0.00  0.00    +0.000 C 
ATOM     17  C   UNL     1       5.387   6.081  15.372  0.00  0.00    +0.000 C 
BRANCH  15  18
ATOM     18  O   UNL     1       7.522   5.408  16.363  0.00  0.00    +0.000 OA
ATOM     19  C   UNL     1       7.316   6.609  17.093  0.00  0.00    +0.000 C 
ENDBRANCH  15  18
ENDBRANCH  14  15
ENDBRANCH  13  14
ENDBRANCH  12  13
ENDBRANCH  10  12
ENDBRANCH   7  10
BRANCH   1  20
ATOM     20  C   UNL     1       0.780   9.724  21.835  0.00  0.00    +0.000 C 
BRANCH  20  21
ATOM     21  N   UNL     1       0.167  10.546  20.788  0.00  0.00    +0.000 N 
ATOM     22  C   UNL     1       0.731  11.736  20.388  0.00  0.00    +0.000 C 
ATOM     23  O   UNL     1       1.726  12.208  20.928  0.00  0.00    +0.000 OA
ATOM     24  H   UNL     1      -0.393  10.043  20.107  0.00  0.00    +0.000 HD
BRANCH  22  25
ATOM     25  C   UNL     1      -0.043  12.433  19.280  0.00  0.00    +0.000 C 
BRANCH  25  26
ATOM     26  C   UNL     1      -0.827  11.432  18.434  0.00  0.00    +0.000 C 
BRANCH  26  27
ATOM     27  C   UNL     1      -2.317  11.670  18.473  0.00  0.00    +0.000 A 
ATOM     28  C   UNL     1      -3.123  11.363  17.366  0.00  0.00    +0.000 A 
ATOM     29  C   UNL     1      -4.504  11.558  17.426  0.00  0.00    +0.000 A 
ATOM     30  F   UNL     1      -5.256  11.241  16.362  0.00  0.00    +0.000 F 
ATOM     31  C   UNL     1      -5.111  12.061  18.565  0.00  0.00    +0.000 A 
ATOM     32  C   UNL     1      -4.312  12.379  19.656  0.00  0.00    +0.000 A 
ATOM     33  F   UNL     1      -4.884  12.865  20.765  0.00  0.00    +0.000 F 
ATOM     34  C   UNL     1      -2.930  12.191  19.620  0.00  0.00    +0.000 A 
ENDBRANCH  26  27
ENDBRANCH  25  26
ENDBRANCH  22  25
ENDBRANCH  20  21
BRANCH  20  36
ATOM     35  C   UNL     1      -1.189  10.858  23.007  0.00  0.00    +0.000 C 
ATOM     36  C   UNL     1       0.027   9.955  23.155  0.00  0.00    +0.000 C 
ENDBRANCH  20  36
ENDBRANCH   1  20
TORSDOF 12
ENDMDL
MODEL 5
REMARK VINA RESULT:      -7.0      2.092      3.225
REMARK  Name = 
REMARK  17 active torsions:
REMARK  status: ('A' for Active; 'I' for Inactive)
REMARK    1  A    between atoms: C_1  and  C_2
REMARK    2  A    between atoms: C_2  and  C_3
REMARK    3  A    between atoms: C_3  and  N_4
REMARK    4  A    between atoms: C_3  and  C_17
REMARK    5  A    between atoms: C_5  and  C_7
REMARK    6  A    between atoms: C_7  and  C_8
REMARK    7  A    between atoms: C_8  and  C_9
REMARK    8  A    between atoms: C_23  and  C_24
REMARK    9  A    between atoms: C_24  and  C_25
REMARK   10  A    between atoms: C_24  and  C_26
REMARK   11  A    between atoms: C_26  and  C_27
REMARK   12  A    between atoms: C_27  and  C_28
REMARK   13  A    between atoms: C_28  and  C_29
REMARK   14  A    between atoms: C_29  and  C_30
REMARK   15  A    between atoms: C_29  and  C_31
REMARK   16  A    between atoms: C_29  and  O_32
REMARK   17  A    between atoms: O_32  and  C_33
REMARK                            x       y       z     vdW  Elec       q    Type
REMARK                         _______ _______ _______ _____ _____    ______ ____
ROOT
ATOM      1  C   UNL     1       1.979   5.622  20.069  0.00  0.00    +0.000 C 
ATOM      2  O   UNL     1       1.548   5.801  21.209  0.00  0.00    +0.000 OA
ATOM      3  N   UNL     1       2.269   6.598  19.137  0.00  0.00    +0.000 N 
ATOM      4  C   UNL     1       1.912   7.904  19.357  0.00  0.00    +0.000 A 
ATOM      5  N   UNL     1       1.456   8.440  20.459  0.00  0.00    +0.000 NA
ATOM      6  C   UNL     1       1.111   9.751  20.226  0.00  0.00    +0.000 A 
ATOM      7  C   UNL     1       1.283  10.197  18.930  0.00  0.00    +0.000 A 
ATOM      8  S   UNL     1       2.020   8.941  18.004  0.00  0.00    +0.000 S 
ATOM      9  H   UNL     1       2.686   6.369  18.245  0.00  0.00    +0.000 HD
ENDROOT
BRANCH   7  10
ATOM     10  C   UNL     1       0.906  11.531  18.326  0.00  0.00    +0.000 C 
ATOM     11  C   UNL     1       1.919  12.604  18.742  0.00  0.00    +0.000 C 
BRANCH  10  12
ATOM     12  C   UNL     1      -0.535  11.904  18.747  0.00  0.00    +0.000 C 
BRANCH  12  13
ATOM     13  C   UNL     1      -0.670  13.084  19.718  0.00  0.00    +0.000 C 
BRANCH  13  14
ATOM     14  C   UNL     1      -1.364  12.736  21.041  0.00  0.00    +0.000 C 
BRANCH  14  15
ATOM     15  C   UNL     1      -1.284  13.827  22.148  0.00  0.00    +0.000 C 
ATOM     16  C   UNL     1       0.134  14.405  22.231  0.00  0.00    +0.000 C 
ATOM     17  C   UNL     1      -2.311  14.936  21.867  0.00  0.00    +0.000 C 
BRANCH  15  18
ATOM     18  O   UNL     1      -1.621  13.126  23.364  0.00  0.00    +0.000 OA
ATOM     19  C   UNL     1      -2.519  12.029  23.257  0.00  0.00    +0.000 C 
ENDBRANCH  15  18
ENDBRANCH  14  15
ENDBRANCH  13  14
ENDBRANCH  12  13
ENDBRANCH  10  12
ENDBRANCH   7  10
BRANCH   1  20
ATOM     20  C   UNL     1       2.319   4.193  19.601  0.00  0.00    +0.000 C 
BRANCH  20  21
ATOM     21  N   UNL     1       3.485   4.302  18.720  0.00  0.00    +0.000 N 
ATOM     22  C   UNL     1       3.480   3.765  17.452  0.00  0.00    +0.000 C 
ATOM     23  O   UNL     1       2.538   3.109  17.019  0.00  0.00    +0.000 OA
ATOM     24  H   UNL     1       4.085   5.104  18.884  0.00  0.00    +0.000 HD
BRANCH  22  25
ATOM     25  C   UNL     1       4.774   3.997  16.689  0.00  0.00    +0.000 C 
BRANCH  25  26
ATOM     26  C   UNL     1       4.981   5.478  16.381  0.00  0.00    +0.000 C 
BRANCH  26  27
ATOM     27  C   UNL     1       6.127   6.085  17.154  0.00  0.00    +0.000 A 
ATOM     28  C   UNL     1       6.491   7.426  16.965  0.00  0.00    +0.000 A 
ATOM     29  C   UNL     1       7.532   7.983  17.710  0.00  0.00    +0.000 A 
ATOM     30  F   UNL     1       7.852   9.272  17.524  0.00  0.00    +0.000 F 
ATOM     31  C   UNL     1       8.231   7.235  18.641  0.00  0.00    +0.000 A 
ATOM     32  C   UNL     1       7.881   5.903  18.819  0.00  0.00    +0.000 A 
ATOM     33  F   UNL     1       8.547   5.165  19.718  0.00  0.00    +0.000 F 
ATOM     34  C   UNL     1       6.844   5.324  18.088  0.00  0.00    +0.000 A 
ENDBRANCH  26  27
ENDBRANCH  25  26
ENDBRANCH  22  25
ENDBRANCH  20  21
BRANCH  20  36
ATOM     35  C   UNL     1       1.491   2.558  21.384  0.00  0.00    +0.000 C 
ATOM     36  C   UNL     1       2.683   3.303  20.801  0.00  0.00    +0.000 C 
ENDBRANCH  20  36
ENDBRANCH   1  20
TORSDOF 12
ENDMDL
MODEL 6
REMARK VINA RESULT:      -7.0      2.165      3.759
REMARK  Name = 
REMARK  17 active torsions:
REMARK  status: ('A' for Active; 'I' for Inactive)
REMARK    1  A    between atoms: C_1  and  C_2
REMARK    2  A    between atoms: C_2  and  C_3
REMARK    3  A    between atoms: C_3  and  N_4
REMARK    4  A    between atoms: C_3  and  C_17
REMARK    5  A    between atoms: C_5  and  C_7
REMARK    6  A    between atoms: C_7  and  C_8
REMARK    7  A    between atoms: C_8  and  C_9
REMARK    8  A    between atoms: C_23  and  C_24
REMARK    9  A    between atoms: C_24  and  C_25
REMARK   10  A    between atoms: C_24  and  C_26
REMARK   11  A    between atoms: C_26  and  C_27
REMARK   12  A    between atoms: C_27  and  C_28
REMARK   13  A    between atoms: C_28  and  C_29
REMARK   14  A    between atoms: C_29  and  C_30
REMARK   15  A    between atoms: C_29  and  C_31
REMARK   16  A    between atoms: C_29  and  O_32
REMARK   17  A    between atoms: O_32  and  C_33
REMARK                            x       y       z     vdW  Elec       q    Type
REMARK                         _______ _______ _______ _____ _____    ______ ____
ROOT
ATOM      1  C   UNL     1       2.136   4.751  20.144  0.00  0.00    +0.000 C 
ATOM      2  O   UNL     1       1.740   4.635  21.304  0.00  0.00    +0.000 OA
ATOM      3  N   UNL     1       2.329   5.932  19.456  0.00  0.00    +0.000 N 
ATOM      4  C   UNL     1       1.905   7.126  19.981  0.00  0.00    +0.000 A 
ATOM      5  N   UNL     1       1.462   7.363  21.189  0.00  0.00    +0.000 NA
ATOM      6  C   UNL     1       1.030   8.666  21.274  0.00  0.00    +0.000 A 
ATOM      7  C   UNL     1       1.124   9.408  20.112  0.00  0.00    +0.000 A 
ATOM      8  S   UNL     1       1.897   8.450  18.903  0.00  0.00    +0.000 S 
ATOM      9  H   UNL     1       2.724   5.942  18.525  0.00  0.00    +0.000 HD
ENDROOT
BRANCH   7  10
ATOM     10  C   UNL     1       0.645  10.817  19.844  0.00  0.00    +0.000 C 
ATOM     11  C   UNL     1      -0.867  10.821  19.593  0.00  0.00    +0.000 C 
BRANCH  10  12
ATOM     12  C   UNL     1       1.430  11.415  18.652  0.00  0.00    +0.000 C 
BRANCH  12  13
ATOM     13  C   UNL     1       1.296  12.929  18.449  0.00  0.00    +0.000 C 
BRANCH  13  14
ATOM     14  C   UNL     1       2.594  13.624  18.019  0.00  0.00    +0.000 C 
BRANCH  14  15
ATOM     15  C   UNL     1       2.790  15.071  18.558  0.00  0.00    +0.000 C 
ATOM     16  C   UNL     1       3.546  15.048  19.893  0.00  0.00    +0.000 C 
ATOM     17  C   UNL     1       3.540  15.921  17.520  0.00  0.00    +0.000 C 
BRANCH  15  18
ATOM     18  O   UNL     1       1.448  15.568  18.741  0.00  0.00    +0.000 OA
ATOM     19  C   UNL     1       1.267  16.633  19.663  0.00  0.00    +0.000 C 
ENDBRANCH  15  18
ENDBRANCH  14  15
ENDBRANCH  13  14
ENDBRANCH  12  13
ENDBRANCH  10  12
ENDBRANCH   7  10
BRANCH   1  20
ATOM     20  C   UNL     1       2.541   3.493  19.349  0.00  0.00    +0.000 C 
BRANCH  20  21
ATOM     21  N   UNL     1       3.659   3.880  18.485  0.00  0.00    +0.000 N 
ATOM     22  C   UNL     1       3.583   3.765  17.116  0.00  0.00    +0.000 C 
ATOM     23  O   UNL     1       2.614   3.269  16.550  0.00  0.00    +0.000 OA
ATOM     24  H   UNL     1       4.274   4.597  18.859  0.00  0.00    +0.000 HD
BRANCH  22  25
ATOM     25  C   UNL     1       4.837   4.233  16.395  0.00  0.00    +0.000 C 
BRANCH  25  26
ATOM     26  C   UNL     1       4.926   5.757  16.366  0.00  0.00    +0.000 C 
BRANCH  26  27
ATOM     27  C   UNL     1       6.082   6.293  17.176  0.00  0.00    +0.000 A 
ATOM     28  C   UNL     1       6.749   5.478  18.103  0.00  0.00    +0.000 A 
ATOM     29  C   UNL     1       7.837   5.977  18.823  0.00  0.00    +0.000 A 
ATOM     30  F   UNL     1       8.470   5.174  19.690  0.00  0.00    +0.000 F 
ATOM     31  C   UNL     1       8.279   7.277  18.649  0.00  0.00    +0.000 A 
ATOM     32  C   UNL     1       7.610   8.089  17.743  0.00  0.00    +0.000 A 
ATOM     33  F   UNL     1       8.026   9.350  17.563  0.00  0.00    +0.000 F 
ATOM     34  C   UNL     1       6.522   7.614  17.011  0.00  0.00    +0.000 A 
ENDBRANCH  26  27
ENDBRANCH  25  26
ENDBRANCH  22  25
ENDBRANCH  20  21
BRANCH  20  36
ATOM     35  C   UNL     1       4.520   2.209  20.335  0.00  0.00    +0.000 C 
ATOM     36  C   UNL     1       3.008   2.380  20.301  0.00  0.00    +0.000 C 
ENDBRANCH  20  36
ENDBRANCH   1  20
TORSDOF 12
ENDMDL
MODEL 7
REMARK VINA RESULT:      -7.0      6.084      9.765
REMARK  Name = 
REMARK  17 active torsions:
REMARK  status: ('A' for Active; 'I' for Inactive)
REMARK    1  A    between atoms: C_1  and  C_2
REMARK    2  A    between atoms: C_2  and  C_3
REMARK    3  A    between atoms: C_3  and  N_4
REMARK    4  A    between atoms: C_3  and  C_17
REMARK    5  A    between atoms: C_5  and  C_7
REMARK    6  A    between atoms: C_7  and  C_8
REMARK    7  A    between atoms: C_8  and  C_9
REMARK    8  A    between atoms: C_23  and  C_24
REMARK    9  A    between atoms: C_24  and  C_25
REMARK   10  A    between atoms: C_24  and  C_26
REMARK   11  A    between atoms: C_26  and  C_27
REMARK   12  A    between atoms: C_27  and  C_28
REMARK   13  A    between atoms: C_28  and  C_29
REMARK   14  A    between atoms: C_29  and  C_30
REMARK   15  A    between atoms: C_29  and  C_31
REMARK   16  A    between atoms: C_29  and  O_32
REMARK   17  A    between atoms: O_32  and  C_33
REMARK                            x       y       z     vdW  Elec       q    Type
REMARK                         _______ _______ _______ _____ _____    ______ ____
ROOT
ATOM      1  C   UNL     1       8.767  10.445  18.506  0.00  0.00    +0.000 C 
ATOM      2  O   UNL     1       8.168  10.889  17.526  0.00  0.00    +0.000 OA
ATOM      3  N   UNL     1       8.883   9.118  18.868  0.00  0.00    +0.000 N 
ATOM      4  C   UNL     1       8.152   8.151  18.226  0.00  0.00    +0.000 A 
ATOM      5  N   UNL     1       7.433   8.273  17.139  0.00  0.00    +0.000 NA
ATOM      6  C   UNL     1       6.766   7.096  16.894  0.00  0.00    +0.000 A 
ATOM      7  C   UNL     1       6.962   6.088  17.819  0.00  0.00    +0.000 A 
ATOM      8  S   UNL     1       8.127   6.618  18.976  0.00  0.00    +0.000 S 
ATOM      9  H   UNL     1       9.452   8.832  19.653  0.00  0.00    +0.000 HD
ENDROOT
BRANCH   7  10
ATOM     10  C   UNL     1       6.303   4.730  17.898  0.00  0.00    +0.000 C 
ATOM     11  C   UNL     1       5.344   4.539  16.718  0.00  0.00    +0.000 C 
BRANCH  10  12
ATOM     12  C   UNL     1       5.581   4.581  19.258  0.00  0.00    +0.000 C 
BRANCH  12  13
ATOM     13  C   UNL     1       4.079   4.894  19.262  0.00  0.00    +0.000 C 
BRANCH  13  14
ATOM     14  C   UNL     1       3.223   3.864  20.010  0.00  0.00    +0.000 C 
BRANCH  14  15
ATOM     15  C   UNL     1       1.976   3.342  19.239  0.00  0.00    +0.000 C 
ATOM     16  C   UNL     1       0.710   3.506  20.091  0.00  0.00    +0.000 C 
ATOM     17  C   UNL     1       1.835   4.087  17.902  0.00  0.00    +0.000 C 
BRANCH  15  18
ATOM     18  O   UNL     1       2.258   1.945  19.009  0.00  0.00    +0.000 OA
ATOM     19  C   UNL     1       3.365   1.632  18.176  0.00  0.00    +0.000 C 
ENDBRANCH  15  18
ENDBRANCH  14  15
ENDBRANCH  13  14
ENDBRANCH  12  13
ENDBRANCH  10  12
ENDBRANCH   7  10
BRANCH   1  20
ATOM     20  C   UNL     1       9.548  11.410  19.422  0.00  0.00    +0.000 C 
BRANCH  20  21
ATOM     21  N   UNL     1       9.137  11.115  20.797  0.00  0.00    +0.000 N 
ATOM     22  C   UNL     1       9.089  12.098  21.759  0.00  0.00    +0.000 C 
ATOM     23  O   UNL     1       9.452  13.250  21.542  0.00  0.00    +0.000 OA
ATOM     24  H   UNL     1       8.510  10.324  20.907  0.00  0.00    +0.000 HD
BRANCH  22  25
ATOM     25  C   UNL     1       8.623  11.598  23.117  0.00  0.00    +0.000 C 
BRANCH  25  26
ATOM     26  C   UNL     1       7.630  12.566  23.756  0.00  0.00    +0.000 C 
BRANCH  26  27
ATOM     27  C   UNL     1       6.994  12.012  25.009  0.00  0.00    +0.000 A 
ATOM     28  C   UNL     1       7.532  12.295  26.273  0.00  0.00    +0.000 A 
ATOM     29  C   UNL     1       6.916  11.802  27.425  0.00  0.00    +0.000 A 
ATOM     30  F   UNL     1       7.439  12.100  28.624  0.00  0.00    +0.000 F 
ATOM     31  C   UNL     1       5.773  11.025  27.354  0.00  0.00    +0.000 A 
ATOM     32  C   UNL     1       5.248  10.732  26.102  0.00  0.00    +0.000 A 
ATOM     33  F   UNL     1       4.141   9.982  26.016  0.00  0.00    +0.000 F 
ATOM     34  C   UNL     1       5.844  11.214  24.936  0.00  0.00    +0.000 A 
ENDBRANCH  26  27
ENDBRANCH  25  26
ENDBRANCH  22  25
ENDBRANCH  20  21
BRANCH  20  36
ATOM     35  C   UNL     1      11.779  12.265  18.512  0.00  0.00    +0.000 C 
ATOM     36  C   UNL     1      11.061  11.173  19.291  0.00  0.00    +0.000 C 
ENDBRANCH  20  36
ENDBRANCH   1  20
TORSDOF 12
ENDMDL
MODEL 8
REMARK VINA RESULT:      -7.0      4.258      9.784
REMARK  Name = 
REMARK  17 active torsions:
REMARK  status: ('A' for Active; 'I' for Inactive)
REMARK    1  A    between atoms: C_1  and  C_2
REMARK    2  A    between atoms: C_2  and  C_3
REMARK    3  A    between atoms: C_3  and  N_4
REMARK    4  A    between atoms: C_3  and  C_17
REMARK    5  A    between atoms: C_5  and  C_7
REMARK    6  A    between atoms: C_7  and  C_8
REMARK    7  A    between atoms: C_8  and  C_9
REMARK    8  A    between atoms: C_23  and  C_24
REMARK    9  A    between atoms: C_24  and  C_25
REMARK   10  A    between atoms: C_24  and  C_26
REMARK   11  A    between atoms: C_26  and  C_27
REMARK   12  A    between atoms: C_27  and  C_28
REMARK   13  A    between atoms: C_28  and  C_29
REMARK   14  A    between atoms: C_29  and  C_30
REMARK   15  A    between atoms: C_29  and  C_31
REMARK   16  A    between atoms: C_29  and  O_32
REMARK   17  A    between atoms: O_32  and  C_33
REMARK                            x       y       z     vdW  Elec       q    Type
REMARK                         _______ _______ _______ _____ _____    ______ ____
ROOT
ATOM      1  C   UNL     1       1.530   7.684  20.695  0.00  0.00    +0.000 C 
ATOM      2  O   UNL     1       1.300   6.663  21.343  0.00  0.00    +0.000 OA
ATOM      3  N   UNL     1       2.212   7.761  19.497  0.00  0.00    +0.000 N 
ATOM      4  C   UNL     1       2.876   6.669  18.998  0.00  0.00    +0.000 A 
ATOM      5  N   UNL     1       2.827   5.433  19.422  0.00  0.00    +0.000 NA
ATOM      6  C   UNL     1       3.731   4.669  18.722  0.00  0.00    +0.000 A 
ATOM      7  C   UNL     1       4.486   5.342  17.781  0.00  0.00    +0.000 A 
ATOM      8  S   UNL     1       3.945   6.979  17.703  0.00  0.00    +0.000 S 
ATOM      9  H   UNL     1       2.298   8.633  18.993  0.00  0.00    +0.000 HD
ENDROOT
BRANCH   7  10
ATOM     10  C   UNL     1       5.624   4.825  16.930  0.00  0.00    +0.000 C 
ATOM     11  C   UNL     1       6.705   5.903  16.783  0.00  0.00    +0.000 C 
BRANCH  10  12
ATOM     12  C   UNL     1       5.079   4.363  15.558  0.00  0.00    +0.000 C 
BRANCH  12  13
ATOM     13  C   UNL     1       6.072   4.405  14.390  0.00  0.00    +0.000 C 
BRANCH  13  14
ATOM     14  C   UNL     1       5.934   3.239  13.403  0.00  0.00    +0.000 C 
BRANCH  14  15
ATOM     15  C   UNL     1       6.440   3.518  11.959  0.00  0.00    +0.000 C 
ATOM     16  C   UNL     1       7.486   4.641  11.963  0.00  0.00    +0.000 C 
ATOM     17  C   UNL     1       7.022   2.233  11.348  0.00  0.00    +0.000 C 
BRANCH  15  18
ATOM     18  O   UNL     1       5.257   3.926  11.239  0.00  0.00    +0.000 OA
ATOM     19  C   UNL     1       4.135   3.056  11.283  0.00  0.00    +0.000 C 
ENDBRANCH  15  18
ENDBRANCH  14  15
ENDBRANCH  13  14
ENDBRANCH  12  13
ENDBRANCH  10  12
ENDBRANCH   7  10
BRANCH   1  20
ATOM     20  C   UNL     1       0.964   9.035  21.177  0.00  0.00    +0.000 C 
BRANCH  20  21
ATOM     21  N   UNL     1       0.504   9.752  19.985  0.00  0.00    +0.000 N 
ATOM     22  C   UNL     1       0.481  11.127  19.938  0.00  0.00    +0.000 C 
ATOM     23  O   UNL     1       0.771  11.824  20.905  0.00  0.00    +0.000 OA
ATOM     24  H   UNL     1       0.617   9.257  19.105  0.00  0.00    +0.000 HD
BRANCH  22  25
ATOM     25  C   UNL     1      -0.012  11.682  18.611  0.00  0.00    +0.000 C 
BRANCH  25  26
ATOM     26  C   UNL     1      -0.568  10.575  17.718  0.00  0.00    +0.000 C 
BRANCH  26  27
ATOM     27  C   UNL     1      -2.026  10.773  17.376  0.00  0.00    +0.000 A 
ATOM     28  C   UNL     1      -2.910  11.345  18.304  0.00  0.00    +0.000 A 
ATOM     29  C   UNL     1      -4.248  11.552  17.964  0.00  0.00    +0.000 A 
ATOM     30  F   UNL     1      -5.070  12.116  18.860  0.00  0.00    +0.000 F 
ATOM     31  C   UNL     1      -4.737  11.197  16.718  0.00  0.00    +0.000 A 
ATOM     32  C   UNL     1      -3.866  10.618  15.805  0.00  0.00    +0.000 A 
ATOM     33  F   UNL     1      -4.324  10.270  14.594  0.00  0.00    +0.000 F 
ATOM     34  C   UNL     1      -2.525  10.402  16.120  0.00  0.00    +0.000 A 
ENDBRANCH  26  27
ENDBRANCH  25  26
ENDBRANCH  22  25
ENDBRANCH  20  21
BRANCH  20  36
ATOM     35  C   UNL     1      -0.179   9.676  23.372  0.00  0.00    +0.000 C 
ATOM     36  C   UNL     1      -0.231   8.815  22.119  0.00  0.00    +0.000 C 
ENDBRANCH  20  36
ENDBRANCH   1  20
TORSDOF 12
ENDMDL
MODEL 9
REMARK VINA RESULT:      -7.0      1.252      1.395
REMARK  Name = 
REMARK  17 active torsions:
REMARK  status: ('A' for Active; 'I' for Inactive)
REMARK    1  A    between atoms: C_1  and  C_2
REMARK    2  A    between atoms: C_2  and  C_3
REMARK    3  A    between atoms: C_3  and  N_4
REMARK    4  A    between atoms: C_3  and  C_17
REMARK    5  A    between atoms: C_5  and  C_7
REMARK    6  A    between atoms: C_7  and  C_8
REMARK    7  A    between atoms: C_8  and  C_9
REMARK    8  A    between atoms: C_23  and  C_24
REMARK    9  A    between atoms: C_24  and  C_25
REMARK   10  A    between atoms: C_24  and  C_26
REMARK   11  A    between atoms: C_26  and  C_27
REMARK   12  A    between atoms: C_27  and  C_28
REMARK   13  A    between atoms: C_28  and  C_29
REMARK   14  A    between atoms: C_29  and  C_30
REMARK   15  A    between atoms: C_29  and  C_31
REMARK   16  A    between atoms: C_29  and  O_32
REMARK   17  A    between atoms: O_32  and  C_33
REMARK                            x       y       z     vdW  Elec       q    Type
REMARK                         _______ _______ _______ _____ _____    ______ ____
ROOT
ATOM      1  C   UNL     1       2.498   5.300  19.434  0.00  0.00    +0.000 C 
ATOM      2  O   UNL     1       2.259   5.006  20.606  0.00  0.00    +0.000 OA
ATOM      3  N   UNL     1       2.469   6.565  18.882  0.00  0.00    +0.000 N 
ATOM      4  C   UNL     1       1.974   7.629  19.593  0.00  0.00    +0.000 A 
ATOM      5  N   UNL     1       1.652   7.671  20.860  0.00  0.00    +0.000 NA
ATOM      6  C   UNL     1       1.085   8.889  21.152  0.00  0.00    +0.000 A 
ATOM      7  C   UNL     1       0.953   9.761  20.089  0.00  0.00    +0.000 A 
ATOM      8  S   UNL     1       1.683   9.051  18.695  0.00  0.00    +0.000 S 
ATOM      9  H   UNL     1       2.746   6.730  17.924  0.00  0.00    +0.000 HD
ENDROOT
BRANCH   7  10
ATOM     10  C   UNL     1       0.284  11.117  20.049  0.00  0.00    +0.000 C 
ATOM     11  C   UNL     1       0.308  11.759  21.441  0.00  0.00    +0.000 C 
BRANCH  10  12
ATOM     12  C   UNL     1      -1.157  10.970  19.506  0.00  0.00    +0.000 C 
BRANCH  12  13
ATOM     13  C   UNL     1      -1.296  10.869  17.982  0.00  0.00    +0.000 C 
BRANCH  13  14
ATOM     14  C   UNL     1      -2.393  11.762  17.389  0.00  0.00    +0.000 C 
BRANCH  14  15
ATOM     15  C   UNL     1      -3.519  11.018  16.615  0.00  0.00    +0.000 C 
ATOM     16  C   UNL     1      -3.495   9.519  16.941  0.00  0.00    +0.000 C 
ATOM     17  C   UNL     1      -4.886  11.630  16.959  0.00  0.00    +0.000 C 
BRANCH  15  18
ATOM     18  O   UNL     1      -3.204  11.242  15.224  0.00  0.00    +0.000 OA
ATOM     19  C   UNL     1      -3.331  10.137  14.340  0.00  0.00    +0.000 C 
ENDBRANCH  15  18
ENDBRANCH  14  15
ENDBRANCH  13  14
ENDBRANCH  12  13
ENDBRANCH  10  12
ENDBRANCH   7  10
BRANCH   1  20
ATOM     20  C   UNL     1       2.950   4.202  18.451  0.00  0.00    +0.000 C 
BRANCH  20  21
ATOM     21  N   UNL     1       3.732   4.866  17.404  0.00  0.00    +0.000 N 
ATOM     22  C   UNL     1       4.451   4.145  16.478  0.00  0.00    +0.000 C 
ATOM     23  O   UNL     1       4.537   2.922  16.520  0.00  0.00    +0.000 OA
ATOM     24  H   UNL     1       3.400   5.783  17.125  0.00  0.00    +0.000 HD
BRANCH  22  25
ATOM     25  C   UNL     1       5.181   5.012  15.466  0.00  0.00    +0.000 C 
BRANCH  25  26
ATOM     26  C   UNL     1       6.695   4.917  15.641  0.00  0.00    +0.000 C 
BRANCH  26  27
ATOM     27  C   UNL     1       7.204   5.726  16.809  0.00  0.00    +0.000 A 
ATOM     28  C   UNL     1       7.576   5.100  18.009  0.00  0.00    +0.000 A 
ATOM     29  C   UNL     1       8.075   5.857  19.071  0.00  0.00    +0.000 A 
ATOM     30  F   UNL     1       8.440   5.235  20.201  0.00  0.00    +0.000 F 
ATOM     31  C   UNL     1       8.209   7.232  18.974  0.00  0.00    +0.000 A 
ATOM     32  C   UNL     1       7.828   7.853  17.793  0.00  0.00    +0.000 A 
ATOM     33  F   UNL     1       7.952   9.183  17.683  0.00  0.00    +0.000 F 
ATOM     34  C   UNL     1       7.328   7.119  16.717  0.00  0.00    +0.000 A 
ENDBRANCH  26  27
ENDBRANCH  25  26
ENDBRANCH  22  25
ENDBRANCH  20  21
BRANCH  20  36
ATOM     35  C   UNL     1       3.154   1.837  19.401  0.00  0.00    +0.000 C 
ATOM     36  C   UNL     1       3.843   3.173  19.164  0.00  0.00    +0.000 C 
ENDBRANCH  20  36
ENDBRANCH   1  20
TORSDOF 12
ENDMDL
