MODEL 1
REMARK VINA RESULT:      -8.0      0.000      0.000
REMARK  Name = 
REMARK  4 active torsions:
REMARK  status: ('A' for Active; 'I' for Inactive)
REMARK    1  A    between atoms: N_1  and  C_2
REMARK    2  A    between atoms: C_2  and  C_3
REMARK    3  A    between atoms: C_6  and  C_7
REMARK    4  A    between atoms: C_8  and  C_9
REMARK                            x       y       z     vdW  Elec       q    Type
REMARK                         _______ _______ _______ _____ _____    ______ ____
ROOT
ATOM      1  C   UNL     1       4.488   5.824  17.854  0.00  0.00    +0.000 A 
ATOM      2  C   UNL     1       4.289   4.485  17.656  0.00  0.00    +0.000 A 
ATOM      3  C   UNL     1       5.322   3.676  16.991  0.00  0.00    +0.000 A 
ATOM      4  C   UNL     1       6.465   4.248  16.585  0.00  0.00    +0.000 A 
ATOM      5  N   UNL     1       6.666   5.607  16.789  0.00  0.00    +0.000 N 
ATOM      6  N   UNL     1       7.745   6.358  16.457  0.00  0.00    +0.000 NA
ATOM      7  C   UNL     1       7.392   7.568  16.887  0.00  0.00    +0.000 A 
ATOM      8  N   UNL     1       6.166   7.658  17.468  0.00  0.00    +0.000 NA
ATOM      9  C   UNL     1       5.717   6.420  17.406  0.00  0.00    +0.000 A 
ENDROOT
BRANCH   1  13
ATOM     10  C   UNL     1       1.510   8.272  19.832  0.00  0.00    +0.000 A 
ATOM     11  C   UNL     1       1.932   8.528  18.510  0.00  0.00    +0.000 A 
ATOM     12  C   UNL     1       2.890   7.739  17.866  0.00  0.00    +0.000 A 
ATOM     13  C   UNL     1       3.465   6.656  18.528  0.00  0.00    +0.000 A 
ATOM     14  C   UNL     1       3.054   6.357  19.829  0.00  0.00    +0.000 A 
ATOM     15  C   UNL     1       2.092   7.152  20.459  0.00  0.00    +0.000 A 
BRANCH  10  16
ATOM     16  C   UNL     1       0.432   9.172  20.547  0.00  0.00    +0.000 C 
ATOM     17  C   UNL     1      -0.443   8.612  21.707  0.00  0.00    +0.000 C 
ATOM     18  C   UNL     1       0.528   9.308  22.681  0.00  0.00    +0.000 C 
ATOM     19  C   UNL     1       0.863  10.290  21.540  0.00  0.00    +0.000 C 
BRANCH  16  20
ATOM     20  N   UNL     1      -0.464   9.769  19.555  0.00  0.00    +0.000 NA
ATOM     21  H   UNL     1      -1.403   9.375  19.591  0.00  0.00    +0.000 HD
ATOM     22  H   UNL     1      -0.152   9.609  18.598  0.00  0.00    +0.000 HD
ENDBRANCH  16  20
ENDBRANCH  10  16
ENDBRANCH   1  13
BRANCH   2  23
ATOM     23  C   UNL     1       3.040   3.837  18.125  0.00  0.00    +0.000 A 
ATOM     24  C   UNL     1       1.812   4.140  17.524  0.00  0.00    +0.000 A 
ATOM     25  C   UNL     1       0.629   3.598  18.032  0.00  0.00    +0.000 A 
ATOM     26  C   UNL     1       0.668   2.743  19.133  0.00  0.00    +0.000 A 
ATOM     27  C   UNL     1       1.890   2.410  19.716  0.00  0.00    +0.000 A 
ATOM     28  C   UNL     1       3.075   2.948  19.208  0.00  0.00    +0.000 A 
ENDBRANCH   2  23
TORSDOF 4
ENDMDL
MODEL 2
REMARK VINA RESULT:      -7.8      0.122      1.341
REMARK  Name = 
REMARK  4 active torsions:
REMARK  status: ('A' for Active; 'I' for Inactive)
REMARK    1  A    between atoms: N_1  and  C_2
REMARK    2  A    between atoms: C_2  and  C_3
REMARK    3  A    between atoms: C_6  and  C_7
REMARK    4  A    between atoms: C_8  and  C_9
REMARK                            x       y       z     vdW  Elec       q    Type
REMARK                         _______ _______ _______ _____ _____    ______ ____
ROOT
ATOM      1  C   UNL     1       4.404   5.838  17.911  0.00  0.00    +0.000 A 
ATOM      2  C   UNL     1       4.189   4.496  17.755  0.00  0.00    +0.000 A 
ATOM      3  C   UNL     1       5.203   3.658  17.097  0.00  0.00    +0.000 A 
ATOM      4  C   UNL     1       6.346   4.207  16.657  0.00  0.00    +0.000 A 
ATOM      5  N   UNL     1       6.564   5.569  16.820  0.00  0.00    +0.000 N 
ATOM      6  N   UNL     1       7.644   6.299  16.450  0.00  0.00    +0.000 NA
ATOM      7  C   UNL     1       7.310   7.524  16.852  0.00  0.00    +0.000 A 
ATOM      8  N   UNL     1       6.094   7.643  17.450  0.00  0.00    +0.000 NA
ATOM      9  C   UNL     1       5.633   6.408  17.428  0.00  0.00    +0.000 A 
ENDROOT
BRANCH   1  13
ATOM     10  C   UNL     1       1.452   8.341  19.859  0.00  0.00    +0.000 A 
ATOM     11  C   UNL     1       2.051   7.243  20.511  0.00  0.00    +0.000 A 
ATOM     12  C   UNL     1       3.006   6.434  19.889  0.00  0.00    +0.000 A 
ATOM     13  C   UNL     1       3.400   6.699  18.579  0.00  0.00    +0.000 A 
ATOM     14  C   UNL     1       2.849   7.793  17.909  0.00  0.00    +0.000 A 
ATOM     15  C   UNL     1       1.897   8.595  18.546  0.00  0.00    +0.000 A 
BRANCH  10  16
ATOM     16  C   UNL     1       0.374   9.243  20.572  0.00  0.00    +0.000 C 
ATOM     17  C   UNL     1      -0.511   8.683  21.724  0.00  0.00    +0.000 C 
ATOM     18  C   UNL     1       0.458   9.371  22.706  0.00  0.00    +0.000 C 
ATOM     19  C   UNL     1       0.805  10.356  21.571  0.00  0.00    +0.000 C 
BRANCH  16  20
ATOM     20  N   UNL     1      -0.513   9.848  19.576  0.00  0.00    +0.000 NA
ATOM     21  H   UNL     1      -0.716  10.826  19.780  0.00  0.00    +0.000 HD
ATOM     22  H   UNL     1      -1.426   9.397  19.538  0.00  0.00    +0.000 HD
ENDBRANCH  16  20
ENDBRANCH  10  16
ENDBRANCH   1  13
BRANCH   2  23
ATOM     23  C   UNL     1       2.941   3.874  18.260  0.00  0.00    +0.000 A 
ATOM     24  C   UNL     1       2.972   3.011  19.363  0.00  0.00    +0.000 A 
ATOM     25  C   UNL     1       1.809   2.356  19.774  0.00  0.00    +0.000 A 
ATOM     26  C   UNL     1       0.609   2.569  19.095  0.00  0.00    +0.000 A 
ATOM     27  C   UNL     1       0.564   3.453  18.018  0.00  0.00    +0.000 A 
ATOM     28  C   UNL     1       1.724   4.112  17.606  0.00  0.00    +0.000 A 
ENDBRANCH   2  23
TORSDOF 4
ENDMDL
MODEL 3
REMARK VINA RESULT:      -7.8      0.672      1.022
REMARK  Name = 
REMARK  4 active torsions:
REMARK  status: ('A' for Active; 'I' for Inactive)
REMARK    1  A    between atoms: N_1  and  C_2
REMARK    2  A    between atoms: C_2  and  C_3
REMARK    3  A    between atoms: C_6  and  C_7
REMARK    4  A    between atoms: C_8  and  C_9
REMARK                            x       y       z     vdW  Elec       q    Type
REMARK                         _______ _______ _______ _____ _____    ______ ____
ROOT
ATOM      1  C   UNL     1       4.470   5.834  17.884  0.00  0.00    +0.000 A 
ATOM      2  C   UNL     1       4.276   4.493  17.694  0.00  0.00    +0.000 A 
ATOM      3  C   UNL     1       5.309   3.685  17.029  0.00  0.00    +0.000 A 
ATOM      4  C   UNL     1       6.449   4.260  16.616  0.00  0.00    +0.000 A 
ATOM      5  N   UNL     1       6.646   5.621  16.814  0.00  0.00    +0.000 N 
ATOM      6  N   UNL     1       7.721   6.374  16.474  0.00  0.00    +0.000 NA
ATOM      7  C   UNL     1       7.364   7.585  16.900  0.00  0.00    +0.000 A 
ATOM      8  N   UNL     1       6.139   7.673  17.485  0.00  0.00    +0.000 NA
ATOM      9  C   UNL     1       5.696   6.433  17.429  0.00  0.00    +0.000 A 
ENDROOT
BRANCH   1  13
ATOM     10  C   UNL     1       1.490   8.280  19.860  0.00  0.00    +0.000 A 
ATOM     11  C   UNL     1       1.906   8.531  18.536  0.00  0.00    +0.000 A 
ATOM     12  C   UNL     1       2.864   7.743  17.892  0.00  0.00    +0.000 A 
ATOM     13  C   UNL     1       3.446   6.665  18.558  0.00  0.00    +0.000 A 
ATOM     14  C   UNL     1       3.041   6.371  19.861  0.00  0.00    +0.000 A 
ATOM     15  C   UNL     1       2.078   7.165  20.491  0.00  0.00    +0.000 A 
BRANCH  10  16
ATOM     16  C   UNL     1       0.410   9.179  20.575  0.00  0.00    +0.000 C 
ATOM     17  C   UNL     1       0.811  10.493  21.307  0.00  0.00    +0.000 C 
ATOM     18  C   UNL     1       0.352  11.251  20.045  0.00  0.00    +0.000 C 
ATOM     19  C   UNL     1      -0.572  10.054  19.743  0.00  0.00    +0.000 C 
BRANCH  16  20
ATOM     20  N   UNL     1      -0.383   8.371  21.504  0.00  0.00    +0.000 NA
ATOM     21  H   UNL     1      -0.476   8.809  22.419  0.00  0.00    +0.000 HD
ATOM     22  H   UNL     1       0.040   7.463  21.693  0.00  0.00    +0.000 HD
ENDBRANCH  16  20
ENDBRANCH  10  16
ENDBRANCH   1  13
BRANCH   2  23
ATOM     23  C   UNL     1       3.031   3.843  18.169  0.00  0.00    +0.000 A 
ATOM     24  C   UNL     1       1.805   4.111  17.548  0.00  0.00    +0.000 A 
ATOM     25  C   UNL     1       0.624   3.569  18.061  0.00  0.00    +0.000 A 
ATOM     26  C   UNL     1       0.663   2.748  19.187  0.00  0.00    +0.000 A 
ATOM     27  C   UNL     1       1.884   2.449  19.791  0.00  0.00    +0.000 A 
ATOM     28  C   UNL     1       3.066   2.987  19.279  0.00  0.00    +0.000 A 
ENDBRANCH   2  23
TORSDOF 4
ENDMDL
MODEL 4
REMARK VINA RESULT:      -7.7      0.724      1.716
REMARK  Name = 
REMARK  4 active torsions:
REMARK  status: ('A' for Active; 'I' for Inactive)
REMARK    1  A    between atoms: N_1  and  C_2
REMARK    2  A    between atoms: C_2  and  C_3
REMARK    3  A    between atoms: C_6  and  C_7
REMARK    4  A    between atoms: C_8  and  C_9
REMARK                            x       y       z     vdW  Elec       q    Type
REMARK                         _______ _______ _______ _____ _____    ______ ____
ROOT
ATOM      1  C   UNL     1       4.387   5.855  17.936  0.00  0.00    +0.000 A 
ATOM      2  C   UNL     1       4.171   4.509  17.812  0.00  0.00    +0.000 A 
ATOM      3  C   UNL     1       5.185   3.655  17.176  0.00  0.00    +0.000 A 
ATOM      4  C   UNL     1       6.329   4.191  16.726  0.00  0.00    +0.000 A 
ATOM      5  N   UNL     1       6.549   5.556  16.856  0.00  0.00    +0.000 N 
ATOM      6  N   UNL     1       7.631   6.275  16.471  0.00  0.00    +0.000 NA
ATOM      7  C   UNL     1       7.298   7.511  16.841  0.00  0.00    +0.000 A 
ATOM      8  N   UNL     1       6.081   7.645  17.434  0.00  0.00    +0.000 NA
ATOM      9  C   UNL     1       5.618   6.411  17.442  0.00  0.00    +0.000 A 
ENDROOT
BRANCH   1  13
ATOM     10  C   UNL     1       1.435   8.409  19.816  0.00  0.00    +0.000 A 
ATOM     11  C   UNL     1       2.037   7.331  20.498  0.00  0.00    +0.000 A 
ATOM     12  C   UNL     1       2.992   6.506  19.898  0.00  0.00    +0.000 A 
ATOM     13  C   UNL     1       3.383   6.733  18.580  0.00  0.00    +0.000 A 
ATOM     14  C   UNL     1       2.829   7.806  17.880  0.00  0.00    +0.000 A 
ATOM     15  C   UNL     1       1.877   8.626  18.495  0.00  0.00    +0.000 A 
BRANCH  10  16
ATOM     16  C   UNL     1       0.357   9.329  20.504  0.00  0.00    +0.000 C 
ATOM     17  C   UNL     1       0.751  10.694  21.142  0.00  0.00    +0.000 C 
ATOM     18  C   UNL     1       0.242  11.363  19.849  0.00  0.00    +0.000 C 
ATOM     19  C   UNL     1      -0.665  10.132  19.647  0.00  0.00    +0.000 C 
BRANCH  16  20
ATOM     20  N   UNL     1      -0.393   8.565  21.503  0.00  0.00    +0.000 NA
ATOM     21  H   UNL     1      -1.402   8.677  21.402  0.00  0.00    +0.000 HD
ATOM     22  H   UNL     1      -0.194   8.864  22.456  0.00  0.00    +0.000 HD
ENDBRANCH  16  20
ENDBRANCH  10  16
ENDBRANCH   1  13
BRANCH   2  23
ATOM     23  C   UNL     1       2.921   3.902  18.330  0.00  0.00    +0.000 A 
ATOM     24  C   UNL     1       2.939   3.112  19.486  0.00  0.00    +0.000 A 
ATOM     25  C   UNL     1       1.776   2.467  19.914  0.00  0.00    +0.000 A 
ATOM     26  C   UNL     1       0.589   2.617  19.198  0.00  0.00    +0.000 A 
ATOM     27  C   UNL     1       0.556   3.429  18.065  0.00  0.00    +0.000 A 
ATOM     28  C   UNL     1       1.716   4.078  17.636  0.00  0.00    +0.000 A 
ENDBRANCH   2  23
TORSDOF 4
ENDMDL
MODEL 5
REMARK VINA RESULT:      -7.6      1.031      1.666
REMARK  Name = 
REMARK  4 active torsions:
REMARK  status: ('A' for Active; 'I' for Inactive)
REMARK    1  A    between atoms: N_1  and  C_2
REMARK    2  A    between atoms: C_2  and  C_3
REMARK    3  A    between atoms: C_6  and  C_7
REMARK    4  A    between atoms: C_8  and  C_9
REMARK                            x       y       z     vdW  Elec       q    Type
REMARK                         _______ _______ _______ _____ _____    ______ ____
ROOT
ATOM      1  C   UNL     1       4.352   5.989  18.048  0.00  0.00    +0.000 A 
ATOM      2  C   UNL     1       4.159   4.636  18.115  0.00  0.00    +0.000 A 
ATOM      3  C   UNL     1       5.209   3.717  17.650  0.00  0.00    +0.000 A 
ATOM      4  C   UNL     1       6.362   4.204  17.168  0.00  0.00    +0.000 A 
ATOM      5  N   UNL     1       6.558   5.578  17.104  0.00  0.00    +0.000 N 
ATOM      6  N   UNL     1       7.645   6.253  16.658  0.00  0.00    +0.000 NA
ATOM      7  C   UNL     1       7.280   7.523  16.831  0.00  0.00    +0.000 A 
ATOM      8  N   UNL     1       6.039   7.719  17.351  0.00  0.00    +0.000 NA
ATOM      9  C   UNL     1       5.593   6.491  17.523  0.00  0.00    +0.000 A 
ENDROOT
BRANCH   1  13
ATOM     10  C   UNL     1       1.323   8.763  19.426  0.00  0.00    +0.000 A 
ATOM     11  C   UNL     1       1.791   8.765  18.096  0.00  0.00    +0.000 A 
ATOM     12  C   UNL     1       2.765   7.870  17.645  0.00  0.00    +0.000 A 
ATOM     13  C   UNL     1       3.312   6.932  18.519  0.00  0.00    +0.000 A 
ATOM     14  C   UNL     1       2.855   6.883  19.837  0.00  0.00    +0.000 A 
ATOM     15  C   UNL     1       1.877   7.782  20.273  0.00  0.00    +0.000 A 
BRANCH  10  16
ATOM     16  C   UNL     1       0.226   9.780  19.922  0.00  0.00    +0.000 C 
ATOM     17  C   UNL     1       0.561  11.285  20.138  0.00  0.00    +0.000 C 
ATOM     18  C   UNL     1      -0.070  11.550  18.756  0.00  0.00    +0.000 C 
ATOM     19  C   UNL     1      -0.899  10.266  18.962  0.00  0.00    +0.000 C 
BRANCH  16  20
ATOM     20  N   UNL     1      -0.408   9.281  21.144  0.00  0.00    +0.000 NA
ATOM     21  H   UNL     1      -0.219   9.875  21.951  0.00  0.00    +0.000 HD
ATOM     22  H   UNL     1      -0.067   8.360  21.415  0.00  0.00    +0.000 HD
ENDBRANCH  16  20
ENDBRANCH  10  16
ENDBRANCH   1  13
BRANCH   2  23
ATOM     23  C   UNL     1       2.898   4.086  18.670  0.00  0.00    +0.000 A 
ATOM     24  C   UNL     1       2.827   3.679  20.009  0.00  0.00    +0.000 A 
ATOM     25  C   UNL     1       1.667   3.075  20.498  0.00  0.00    +0.000 A 
ATOM     26  C   UNL     1       0.569   2.888  19.659  0.00  0.00    +0.000 A 
ATOM     27  C   UNL     1       0.620   3.323  18.335  0.00  0.00    +0.000 A 
ATOM     28  C   UNL     1       1.778   3.928  17.843  0.00  0.00    +0.000 A 
ENDBRANCH   2  23
TORSDOF 4
ENDMDL
MODEL 6
REMARK VINA RESULT:      -7.5      2.780      4.669
REMARK  Name = 
REMARK  4 active torsions:
REMARK  status: ('A' for Active; 'I' for Inactive)
REMARK    1  A    between atoms: N_1  and  C_2
REMARK    2  A    between atoms: C_2  and  C_3
REMARK    3  A    between atoms: C_6  and  C_7
REMARK    4  A    between atoms: C_8  and  C_9
REMARK                            x       y       z     vdW  Elec       q    Type
REMARK                         _______ _______ _______ _____ _____    ______ ____
ROOT
ATOM      1  C   UNL     1       3.241   4.692  19.660  0.00  0.00    +0.000 A 
ATOM      2  C   UNL     1       4.391   4.242  19.070  0.00  0.00    +0.000 A 
ATOM      3  C   UNL     1       4.893   2.892  19.366  0.00  0.00    +0.000 A 
ATOM      4  C   UNL     1       4.219   2.094  20.209  0.00  0.00    +0.000 A 
ATOM      5  N   UNL     1       3.050   2.551  20.803  0.00  0.00    +0.000 N 
ATOM      6  N   UNL     1       2.235   1.899  21.669  0.00  0.00    +0.000 NA
ATOM      7  C   UNL     1       1.286   2.804  21.901  0.00  0.00    +0.000 A 
ATOM      8  N   UNL     1       1.426   3.993  21.255  0.00  0.00    +0.000 NA
ATOM      9  C   UNL     1       2.536   3.824  20.564  0.00  0.00    +0.000 A 
ENDROOT
BRANCH   1  13
ATOM     10  C   UNL     1       1.678   8.643  18.815  0.00  0.00    +0.000 A 
ATOM     11  C   UNL     1       1.835   8.166  20.133  0.00  0.00    +0.000 A 
ATOM     12  C   UNL     1       2.342   6.894  20.412  0.00  0.00    +0.000 A 
ATOM     13  C   UNL     1       2.714   6.045  19.370  0.00  0.00    +0.000 A 
ATOM     14  C   UNL     1       2.596   6.492  18.052  0.00  0.00    +0.000 A 
ATOM     15  C   UNL     1       2.091   7.769  17.789  0.00  0.00    +0.000 A 
BRANCH  10  16
ATOM     16  C   UNL     1       1.101  10.079  18.515  0.00  0.00    +0.000 C 
ATOM     17  C   UNL     1      -0.354  10.271  17.996  0.00  0.00    +0.000 C 
ATOM     18  C   UNL     1      -0.751  10.608  19.447  0.00  0.00    +0.000 C 
ATOM     19  C   UNL     1       0.712  11.038  19.678  0.00  0.00    +0.000 C 
BRANCH  16  20
ATOM     20  N   UNL     1       2.000  10.804  17.614  0.00  0.00    +0.000 NA
ATOM     21  H   UNL     1       1.784  10.637  16.632  0.00  0.00    +0.000 HD
ATOM     22  H   UNL     1       2.973  10.519  17.718  0.00  0.00    +0.000 HD
ENDBRANCH  16  20
ENDBRANCH  10  16
ENDBRANCH   1  13
BRANCH   2  23
ATOM     23  C   UNL     1       5.130   5.106  18.117  0.00  0.00    +0.000 A 
ATOM     24  C   UNL     1       4.866   5.040  16.743  0.00  0.00    +0.000 A 
ATOM     25  C   UNL     1       5.631   5.786  15.845  0.00  0.00    +0.000 A 
ATOM     26  C   UNL     1       6.653   6.611  16.313  0.00  0.00    +0.000 A 
ATOM     27  C   UNL     1       6.900   6.708  17.682  0.00  0.00    +0.000 A 
ATOM     28  C   UNL     1       6.135   5.965  18.584  0.00  0.00    +0.000 A 
ENDBRANCH   2  23
TORSDOF 4
ENDMDL
MODEL 7
REMARK VINA RESULT:      -7.4      2.769      4.623
REMARK  Name = 
REMARK  4 active torsions:
REMARK  status: ('A' for Active; 'I' for Inactive)
REMARK    1  A    between atoms: N_1  and  C_2
REMARK    2  A    between atoms: C_2  and  C_3
REMARK    3  A    between atoms: C_6  and  C_7
REMARK    4  A    between atoms: C_8  and  C_9
REMARK                            x       y       z     vdW  Elec       q    Type
REMARK                         _______ _______ _______ _____ _____    ______ ____
ROOT
ATOM      1  C   UNL     1       3.204   4.653  19.624  0.00  0.00    +0.000 A 
ATOM      2  C   UNL     1       4.326   4.193  18.990  0.00  0.00    +0.000 A 
ATOM      3  C   UNL     1       4.831   2.841  19.274  0.00  0.00    +0.000 A 
ATOM      4  C   UNL     1       4.186   2.053  20.147  0.00  0.00    +0.000 A 
ATOM      5  N   UNL     1       3.045   2.521  20.786  0.00  0.00    +0.000 N 
ATOM      6  N   UNL     1       2.262   1.879  21.688  0.00  0.00    +0.000 NA
ATOM      7  C   UNL     1       1.328   2.791  21.953  0.00  0.00    +0.000 A 
ATOM      8  N   UNL     1       1.450   3.975  21.294  0.00  0.00    +0.000 NA
ATOM      9  C   UNL     1       2.530   3.795  20.560  0.00  0.00    +0.000 A 
ENDROOT
BRANCH   1  13
ATOM     10  C   UNL     1       1.672   8.624  18.810  0.00  0.00    +0.000 A 
ATOM     11  C   UNL     1       1.989   7.717  17.777  0.00  0.00    +0.000 A 
ATOM     12  C   UNL     1       2.480   6.434  18.034  0.00  0.00    +0.000 A 
ATOM     13  C   UNL     1       2.673   6.008  19.347  0.00  0.00    +0.000 A 
ATOM     14  C   UNL     1       2.347   6.869  20.397  0.00  0.00    +0.000 A 
ATOM     15  C   UNL     1       1.853   8.148  20.125  0.00  0.00    +0.000 A 
BRANCH  10  16
ATOM     16  C   UNL     1       1.122  10.069  18.506  0.00  0.00    +0.000 C 
ATOM     17  C   UNL     1      -0.338  10.288  18.011  0.00  0.00    +0.000 C 
ATOM     18  C   UNL     1      -0.701  10.647  19.466  0.00  0.00    +0.000 C 
ATOM     19  C   UNL     1       0.775  11.047  19.667  0.00  0.00    +0.000 C 
BRANCH  16  20
ATOM     20  N   UNL     1       2.020  10.766  17.583  0.00  0.00    +0.000 NA
ATOM     21  H   UNL     1       2.954  10.359  17.567  0.00  0.00    +0.000 HD
ATOM     22  H   UNL     1       2.166  11.741  17.838  0.00  0.00    +0.000 HD
ENDBRANCH  16  20
ENDBRANCH  10  16
ENDBRANCH   1  13
BRANCH   2  23
ATOM     23  C   UNL     1       5.031   5.046  18.004  0.00  0.00    +0.000 A 
ATOM     24  C   UNL     1       5.914   6.048  18.430  0.00  0.00    +0.000 A 
ATOM     25  C   UNL     1       6.500   6.909  17.499  0.00  0.00    +0.000 A 
ATOM     26  C   UNL     1       6.220   6.766  16.141  0.00  0.00    +0.000 A 
ATOM     27  C   UNL     1       5.369   5.750  15.706  0.00  0.00    +0.000 A 
ATOM     28  C   UNL     1       4.783   4.886  16.633  0.00  0.00    +0.000 A 
ENDBRANCH   2  23
TORSDOF 4
ENDMDL
MODEL 8
REMARK VINA RESULT:      -7.4      2.572      4.600
REMARK  Name = 
REMARK  4 active torsions:
REMARK  status: ('A' for Active; 'I' for Inactive)
REMARK    1  A    between atoms: N_1  and  C_2
REMARK    2  A    between atoms: C_2  and  C_3
REMARK    3  A    between atoms: C_6  and  C_7
REMARK    4  A    between atoms: C_8  and  C_9
REMARK                            x       y       z     vdW  Elec       q    Type
REMARK                         _______ _______ _______ _____ _____    ______ ____
ROOT
ATOM      1  C   UNL     1       3.057   4.672  18.696  0.00  0.00    +0.000 A 
ATOM      2  C   UNL     1       4.358   4.341  18.431  0.00  0.00    +0.000 A 
ATOM      3  C   UNL     1       4.767   2.929  18.391  0.00  0.00    +0.000 A 
ATOM      4  C   UNL     1       3.862   1.961  18.605  0.00  0.00    +0.000 A 
ATOM      5  N   UNL     1       2.541   2.299  18.870  0.00  0.00    +0.000 N 
ATOM      6  N   UNL     1       1.493   1.473  19.105  0.00  0.00    +0.000 NA
ATOM      7  C   UNL     1       0.491   2.332  19.290  0.00  0.00    +0.000 A 
ATOM      8  N   UNL     1       0.814   3.650  19.196  0.00  0.00    +0.000 NA
ATOM      9  C   UNL     1       2.104   3.620  18.928  0.00  0.00    +0.000 A 
ENDROOT
BRANCH   1  13
ATOM     10  C   UNL     1       1.764   8.805  18.809  0.00  0.00    +0.000 A 
ATOM     11  C   UNL     1       1.958   8.049  19.983  0.00  0.00    +0.000 A 
ATOM     12  C   UNL     1       2.379   6.716  19.953  0.00  0.00    +0.000 A 
ATOM     13  C   UNL     1       2.622   6.087  18.734  0.00  0.00    +0.000 A 
ATOM     14  C   UNL     1       2.465   6.811  17.550  0.00  0.00    +0.000 A 
ATOM     15  C   UNL     1       2.048   8.145  17.596  0.00  0.00    +0.000 A 
BRANCH  10  16
ATOM     16  C   UNL     1       1.287  10.307  18.858  0.00  0.00    +0.000 C 
ATOM     17  C   UNL     1      -0.189  10.693  18.547  0.00  0.00    +0.000 C 
ATOM     18  C   UNL     1      -0.418  10.755  20.070  0.00  0.00    +0.000 C 
ATOM     19  C   UNL     1       1.091  11.034  20.220  0.00  0.00    +0.000 C 
BRANCH  16  20
ATOM     20  N   UNL     1       2.155  11.138  18.022  0.00  0.00    +0.000 NA
ATOM     21  H   UNL     1       3.141  11.036  18.264  0.00  0.00    +0.000 HD
ATOM     22  H   UNL     1       1.965  12.134  18.128  0.00  0.00    +0.000 HD
ENDBRANCH  16  20
ENDBRANCH  10  16
ENDBRANCH   1  13
BRANCH   2  23
ATOM     23  C   UNL     1       5.361   5.402  18.167  0.00  0.00    +0.000 A 
ATOM     24  C   UNL     1       5.256   6.214  17.031  0.00  0.00    +0.000 A 
ATOM     25  C   UNL     1       6.255   7.146  16.740  0.00  0.00    +0.000 A 
ATOM     26  C   UNL     1       7.354   7.281  17.588  0.00  0.00    +0.000 A 
ATOM     27  C   UNL     1       7.448   6.499  18.739  0.00  0.00    +0.000 A 
ATOM     28  C   UNL     1       6.450   5.568  19.034  0.00  0.00    +0.000 A 
ENDBRANCH   2  23
TORSDOF 4
ENDMDL
MODEL 9
REMARK VINA RESULT:      -7.4      3.427      5.595
REMARK  Name = 
REMARK  4 active torsions:
REMARK  status: ('A' for Active; 'I' for Inactive)
REMARK    1  A    between atoms: N_1  and  C_2
REMARK    2  A    between atoms: C_2  and  C_3
REMARK    3  A    between atoms: C_6  and  C_7
REMARK    4  A    between atoms: C_8  and  C_9
REMARK                            x       y       z     vdW  Elec       q    Type
REMARK                         _______ _______ _______ _____ _____    ______ ____
ROOT
ATOM      1  C   UNL     1       5.853   4.396  15.081  0.00  0.00    +0.000 A 
ATOM      2  C   UNL     1       7.026   5.058  15.323  0.00  0.00    +0.000 A 
ATOM      3  C   UNL     1       7.983   5.286  14.231  0.00  0.00    +0.000 A 
ATOM      4  C   UNL     1       7.704   4.854  12.991  0.00  0.00    +0.000 A 
ATOM      5  N   UNL     1       6.511   4.186  12.747  0.00  0.00    +0.000 N 
ATOM      6  N   UNL     1       6.053   3.683  11.574  0.00  0.00    +0.000 NA
ATOM      7  C   UNL     1       4.878   3.164  11.928  0.00  0.00    +0.000 A 
ATOM      8  N   UNL     1       4.544   3.290  13.240  0.00  0.00    +0.000 NA
ATOM      9  C   UNL     1       5.575   3.936  13.747  0.00  0.00    +0.000 A 
ENDROOT
BRANCH   1  13
ATOM     10  C   UNL     1       2.966   3.705  18.237  0.00  0.00    +0.000 A 
ATOM     11  C   UNL     1       3.735   2.661  17.684  0.00  0.00    +0.000 A 
ATOM     12  C   UNL     1       4.671   2.878  16.668  0.00  0.00    +0.000 A 
ATOM     13  C   UNL     1       4.871   4.163  16.165  0.00  0.00    +0.000 A 
ATOM     14  C   UNL     1       4.146   5.227  16.705  0.00  0.00    +0.000 A 
ATOM     15  C   UNL     1       3.217   4.995  17.724  0.00  0.00    +0.000 A 
BRANCH  10  16
ATOM     16  C   UNL     1       1.913   3.445  19.380  0.00  0.00    +0.000 C 
ATOM     17  C   UNL     1       2.350   2.891  20.768  0.00  0.00    +0.000 C 
ATOM     18  C   UNL     1       2.291   4.342  21.286  0.00  0.00    +0.000 C 
ATOM     19  C   UNL     1       1.278   4.634  20.160  0.00  0.00    +0.000 C 
BRANCH  16  20
ATOM     20  N   UNL     1       0.826   2.602  18.880  0.00  0.00    +0.000 NA
ATOM     21  H   UNL     1      -0.046   3.117  18.766  0.00  0.00    +0.000 HD
ATOM     22  H   UNL     1       0.595   1.841  19.517  0.00  0.00    +0.000 HD
ENDBRANCH  16  20
ENDBRANCH  10  16
ENDBRANCH   1  13
BRANCH   2  23
ATOM     23  C   UNL     1       7.333   5.563  16.684  0.00  0.00    +0.000 A 
ATOM     24  C   UNL     1       7.385   6.939  16.938  0.00  0.00    +0.000 A 
ATOM     25  C   UNL     1       7.767   7.406  18.197  0.00  0.00    +0.000 A 
ATOM     26  C   UNL     1       8.087   6.503  19.211  0.00  0.00    +0.000 A 
ATOM     27  C   UNL     1       8.005   5.131  18.975  0.00  0.00    +0.000 A 
ATOM     28  C   UNL     1       7.620   4.661  17.718  0.00  0.00    +0.000 A 
ENDBRANCH   2  23
TORSDOF 4
ENDMDL
