MODEL 1
REMARK VINA RESULT:      -8.1      0.000      0.000
REMARK  Name = 
REMARK  6 active torsions:
REMARK  status: ('A' for Active; 'I' for Inactive)
REMARK    1  A    between atoms: C_1  and  C_2
REMARK    2  A    between atoms: C_4  and  C_5
REMARK    3  A    between atoms: C_6  and  C_7
REMARK    4  A    between atoms: C_15  and  C_16
REMARK    5  A    between atoms: C_16  and  O_17
REMARK    6  A    between atoms: O_17  and  C_18
REMARK                            x       y       z     vdW  Elec       q    Type
REMARK                         _______ _______ _______ _____ _____    ______ ____
ROOT
ATOM      1  C   UNL     1       2.033   8.189  18.968  0.00  0.00    +0.000 C 
ATOM      2  O   UNL     1       2.668   8.790  18.089  0.00  0.00    +0.000 OA
ATOM      3  N   UNL     1       2.199   6.798  19.108  0.00  0.00    +0.000 N 
ATOM      4  C   UNL     1       1.497   5.942  20.096  0.00  0.00    +0.000 C 
ATOM      5  C   UNL     1       2.361   4.826  20.712  0.00  0.00    +0.000 C 
ATOM      6  C   UNL     1       3.196   4.242  19.653  0.00  0.00    +0.000 A 
ATOM      7  N   UNL     1       3.899   3.086  19.708  0.00  0.00    +0.000 N 
ATOM      8  N   UNL     1       4.573   2.839  18.572  0.00  0.00    +0.000 NA
ATOM      9  C   UNL     1       4.332   3.912  17.798  0.00  0.00    +0.000 A 
ATOM     10  C   UNL     1       3.445   4.819  18.433  0.00  0.00    +0.000 A 
ATOM     11  C   UNL     1       2.864   6.110  17.980  0.00  0.00    +0.000 C 
ATOM     12  H   UNL     1       3.974   2.420  20.472  0.00  0.00    +0.000 HD
ENDROOT
BRANCH   1  18
ATOM     13  C   UNL     1      -0.446  10.400  23.068  0.00  0.00    +0.000 C 
ATOM     14  C   UNL     1      -0.047   9.930  21.716  0.00  0.00    +0.000 A 
ATOM     15  N   UNL     1      -0.533  10.387  20.585  0.00  0.00    +0.000 NA
ATOM     16  C   UNL     1       0.102   9.773  19.513  0.00  0.00    +0.000 A 
ATOM     17  C   UNL     1      -0.378  10.089  18.139  0.00  0.00    +0.000 C 
ATOM     18  C   UNL     1       1.153   8.930  19.859  0.00  0.00    +0.000 A 
ATOM     19  S   UNL     1       1.105   8.678  21.559  0.00  0.00    +0.000 S 
ENDBRANCH   1  18
BRANCH   9  20
ATOM     20  C   UNL     1       4.983   4.045  16.454  0.00  0.00    +0.000 C 
BRANCH  20  21
ATOM     21  O   UNL     1       6.406   4.004  16.590  0.00  0.00    +0.000 OA
BRANCH  21  22
ATOM     22  C   UNL     1       6.983   5.026  17.287  0.00  0.00    +0.000 A 
ATOM     23  C   UNL     1       6.875   6.280  16.683  0.00  0.00    +0.000 A 
ATOM     24  C   UNL     1       7.416   7.411  17.294  0.00  0.00    +0.000 A 
ATOM     25  C   UNL     1       8.055   7.295  18.527  0.00  0.00    +0.000 A 
ATOM     26  C   UNL     1       8.145   6.049  19.146  0.00  0.00    +0.000 A 
ATOM     27  C   UNL     1       7.610   4.914  18.529  0.00  0.00    +0.000 A 
ENDBRANCH  21  22
ENDBRANCH  20  21
ENDBRANCH   9  20
TORSDOF 4
ENDMDL
MODEL 2
REMARK VINA RESULT:      -7.9      2.241      2.949
REMARK  Name = 
REMARK  6 active torsions:
REMARK  status: ('A' for Active; 'I' for Inactive)
REMARK    1  A    between atoms: C_1  and  C_2
REMARK    2  A    between atoms: C_4  and  C_5
REMARK    3  A    between atoms: C_6  and  C_7
REMARK    4  A    between atoms: C_15  and  C_16
REMARK    5  A    between atoms: C_16  and  O_17
REMARK    6  A    between atoms: O_17  and  C_18
REMARK                            x       y       z     vdW  Elec       q    Type
REMARK                         _______ _______ _______ _____ _____    ______ ____
ROOT
ATOM      1  C   UNL     1       1.619  10.690  18.465  0.00  0.00    +0.000 C 
ATOM      2  O   UNL     1       2.337  10.809  17.462  0.00  0.00    +0.000 OA
ATOM      3  N   UNL     1       1.481   9.425  19.068  0.00  0.00    +0.000 N 
ATOM      4  C   UNL     1       0.647   9.123  20.256  0.00  0.00    +0.000 C 
ATOM      5  C   UNL     1       1.267   8.116  21.243  0.00  0.00    +0.000 C 
ATOM      6  C   UNL     1       1.914   7.045  20.472  0.00  0.00    +0.000 A 
ATOM      7  N   UNL     1       2.348   5.850  20.938  0.00  0.00    +0.000 N 
ATOM      8  N   UNL     1       2.909   5.097  19.976  0.00  0.00    +0.000 NA
ATOM      9  C   UNL     1       2.880   5.875  18.880  0.00  0.00    +0.000 A 
ATOM     10  C   UNL     1       2.237   7.112  19.140  0.00  0.00    +0.000 A 
ATOM     11  C   UNL     1       1.937   8.272  18.261  0.00  0.00    +0.000 C 
ATOM     12  H   UNL     1       2.304   5.478  21.882  0.00  0.00    +0.000 HD
ENDROOT
BRANCH   1  18
ATOM     13  C   UNL     1       0.312  15.140  20.982  0.00  0.00    +0.000 C 
ATOM     14  C   UNL     1       0.297  13.876  20.202  0.00  0.00    +0.000 A 
ATOM     15  N   UNL     1      -0.695  13.469  19.444  0.00  0.00    +0.000 NA
ATOM     16  C   UNL     1      -0.353  12.279  18.813  0.00  0.00    +0.000 A 
ATOM     17  C   UNL     1      -1.387  11.605  17.980  0.00  0.00    +0.000 C 
ATOM     18  C   UNL     1       0.957  11.859  19.024  0.00  0.00    +0.000 A 
ATOM     19  S   UNL     1       1.633  12.813  20.284  0.00  0.00    +0.000 S 
ENDBRANCH   1  18
BRANCH   9  20
ATOM     20  C   UNL     1       3.493   5.406  17.595  0.00  0.00    +0.000 C 
BRANCH  20  21
ATOM     21  O   UNL     1       4.742   4.758  17.852  0.00  0.00    +0.000 OA
BRANCH  21  22
ATOM     22  C   UNL     1       5.834   5.567  17.987  0.00  0.00    +0.000 A 
ATOM     23  C   UNL     1       6.685   5.230  19.041  0.00  0.00    +0.000 A 
ATOM     24  C   UNL     1       7.841   5.971  19.284  0.00  0.00    +0.000 A 
ATOM     25  C   UNL     1       8.163   7.046  18.459  0.00  0.00    +0.000 A 
ATOM     26  C   UNL     1       7.329   7.372  17.390  0.00  0.00    +0.000 A 
ATOM     27  C   UNL     1       6.165   6.634  17.151  0.00  0.00    +0.000 A 
ENDBRANCH  21  22
ENDBRANCH  20  21
ENDBRANCH   9  20
TORSDOF 4
ENDMDL
MODEL 3
REMARK VINA RESULT:      -7.7      3.992      6.542
REMARK  Name = 
REMARK  6 active torsions:
REMARK  status: ('A' for Active; 'I' for Inactive)
REMARK    1  A    between atoms: C_1  and  C_2
REMARK    2  A    between atoms: C_4  and  C_5
REMARK    3  A    between atoms: C_6  and  C_7
REMARK    4  A    between atoms: C_15  and  C_16
REMARK    5  A    between atoms: C_16  and  O_17
REMARK    6  A    between atoms: O_17  and  C_18
REMARK                            x       y       z     vdW  Elec       q    Type
REMARK                         _______ _______ _______ _____ _____    ______ ____
ROOT
ATOM      1  C   UNL     1      -1.108  12.059  22.420  0.00  0.00    +0.000 C 
ATOM      2  O   UNL     1      -1.249  11.178  23.281  0.00  0.00    +0.000 OA
ATOM      3  N   UNL     1      -0.340  11.785  21.272  0.00  0.00    +0.000 N 
ATOM      4  C   UNL     1      -0.067  12.739  20.170  0.00  0.00    +0.000 C 
ATOM      5  C   UNL     1      -0.072  12.117  18.761  0.00  0.00    +0.000 C 
ATOM      6  C   UNL     1       0.598  10.811  18.824  0.00  0.00    +0.000 A 
ATOM      7  N   UNL     1       1.029  10.061  17.782  0.00  0.00    +0.000 N 
ATOM      8  N   UNL     1       1.592   8.906  18.177  0.00  0.00    +0.000 NA
ATOM      9  C   UNL     1       1.454   8.905  19.515  0.00  0.00    +0.000 A 
ATOM     10  C   UNL     1       0.849  10.104  19.973  0.00  0.00    +0.000 A 
ATOM     11  C   UNL     1       0.516  10.580  21.341  0.00  0.00    +0.000 C 
ATOM     12  H   UNL     1       0.976  10.259  16.787  0.00  0.00    +0.000 HD
ENDROOT
BRANCH   1  18
ATOM     13  C   UNL     1      -2.368  17.095  23.368  0.00  0.00    +0.000 C 
ATOM     14  C   UNL     1      -2.399  15.642  23.059  0.00  0.00    +0.000 A 
ATOM     15  N   UNL     1      -3.420  15.004  22.536  0.00  0.00    +0.000 NA
ATOM     16  C   UNL     1      -3.089  13.672  22.323  0.00  0.00    +0.000 A 
ATOM     17  C   UNL     1      -4.151  12.757  21.822  0.00  0.00    +0.000 C 
ATOM     18  C   UNL     1      -1.762  13.348  22.590  0.00  0.00    +0.000 A 
ATOM     19  S   UNL     1      -1.041  14.669  23.420  0.00  0.00    +0.000 S 
ENDBRANCH   1  18
BRANCH   9  20
ATOM     20  C   UNL     1       1.901   7.727  20.327  0.00  0.00    +0.000 C 
BRANCH  20  21
ATOM     21  O   UNL     1       2.556   6.772  19.490  0.00  0.00    +0.000 OA
BRANCH  21  22
ATOM     22  C   UNL     1       2.036   5.509  19.480  0.00  0.00    +0.000 A 
ATOM     23  C   UNL     1       1.976   4.912  18.219  0.00  0.00    +0.000 A 
ATOM     24  C   UNL     1       1.472   3.620  18.070  0.00  0.00    +0.000 A 
ATOM     25  C   UNL     1       1.042   2.909  19.188  0.00  0.00    +0.000 A 
ATOM     26  C   UNL     1       1.122   3.491  20.452  0.00  0.00    +0.000 A 
ATOM     27  C   UNL     1       1.619   4.790  20.601  0.00  0.00    +0.000 A 
ENDBRANCH  21  22
ENDBRANCH  20  21
ENDBRANCH   9  20
TORSDOF 4
ENDMDL
MODEL 4
REMARK VINA RESULT:      -7.6      3.915      6.418
REMARK  Name = 
REMARK  6 active torsions:
REMARK  status: ('A' for Active; 'I' for Inactive)
REMARK    1  A    between atoms: C_1  and  C_2
REMARK    2  A    between atoms: C_4  and  C_5
REMARK    3  A    between atoms: C_6  and  C_7
REMARK    4  A    between atoms: C_15  and  C_16
REMARK    5  A    between atoms: C_16  and  O_17
REMARK    6  A    between atoms: O_17  and  C_18
REMARK                            x       y       z     vdW  Elec       q    Type
REMARK                         _______ _______ _______ _____ _____    ______ ____
ROOT
ATOM      1  C   UNL     1      -1.051  11.580  22.549  0.00  0.00    +0.000 C 
ATOM      2  O   UNL     1      -0.866  10.724  23.427  0.00  0.00    +0.000 OA
ATOM      3  N   UNL     1      -0.481  11.396  21.275  0.00  0.00    +0.000 N 
ATOM      4  C   UNL     1      -0.598  12.336  20.134  0.00  0.00    +0.000 C 
ATOM      5  C   UNL     1      -0.762  11.664  18.758  0.00  0.00    +0.000 C 
ATOM      6  C   UNL     1       0.130  10.498  18.697  0.00  0.00    +0.000 A 
ATOM      7  N   UNL     1       0.480   9.792  17.596  0.00  0.00    +0.000 N 
ATOM      8  N   UNL     1       1.305   8.770  17.881  0.00  0.00    +0.000 NA
ATOM      9  C   UNL     1       1.427   8.801  19.220  0.00  0.00    +0.000 A 
ATOM     10  C   UNL     1       0.717   9.894  19.780  0.00  0.00    +0.000 A 
ATOM     11  C   UNL     1       0.573  10.362  21.184  0.00  0.00    +0.000 C 
ATOM     12  H   UNL     1       0.202   9.936  16.630  0.00  0.00    +0.000 HD
ENDROOT
BRANCH   1  18
ATOM     13  C   UNL     1      -4.944  14.962  23.670  0.00  0.00    +0.000 C 
ATOM     14  C   UNL     1      -3.647  14.339  23.301  0.00  0.00    +0.000 A 
ATOM     15  N   UNL     1      -2.490  14.960  23.282  0.00  0.00    +0.000 NA
ATOM     16  C   UNL     1      -1.477  14.068  22.952  0.00  0.00    +0.000 A 
ATOM     17  C   UNL     1      -0.098  14.603  22.786  0.00  0.00    +0.000 C 
ATOM     18  C   UNL     1      -1.880  12.741  22.835  0.00  0.00    +0.000 A 
ATOM     19  S   UNL     1      -3.599  12.699  22.824  0.00  0.00    +0.000 S 
ENDBRANCH   1  18
BRANCH   9  20
ATOM     20  C   UNL     1       2.224   7.753  19.938  0.00  0.00    +0.000 C 
BRANCH  20  21
ATOM     21  O   UNL     1       2.591   6.708  19.033  0.00  0.00    +0.000 OA
BRANCH  21  22
ATOM     22  C   UNL     1       2.053   5.476  19.272  0.00  0.00    +0.000 A 
ATOM     23  C   UNL     1       1.930   4.663  18.143  0.00  0.00    +0.000 A 
ATOM     24  C   UNL     1       1.401   3.377  18.249  0.00  0.00    +0.000 A 
ATOM     25  C   UNL     1       1.010   2.888  19.493  0.00  0.00    +0.000 A 
ATOM     26  C   UNL     1       1.153   3.686  20.627  0.00  0.00    +0.000 A 
ATOM     27  C   UNL     1       1.675   4.979  20.520  0.00  0.00    +0.000 A 
ENDBRANCH  21  22
ENDBRANCH  20  21
ENDBRANCH   9  20
TORSDOF 4
ENDMDL
MODEL 5
REMARK VINA RESULT:      -7.5      2.414      3.065
REMARK  Name = 
REMARK  6 active torsions:
REMARK  status: ('A' for Active; 'I' for Inactive)
REMARK    1  A    between atoms: C_1  and  C_2
REMARK    2  A    between atoms: C_4  and  C_5
REMARK    3  A    between atoms: C_6  and  C_7
REMARK    4  A    between atoms: C_15  and  C_16
REMARK    5  A    between atoms: C_16  and  O_17
REMARK    6  A    between atoms: O_17  and  C_18
REMARK                            x       y       z     vdW  Elec       q    Type
REMARK                         _______ _______ _______ _____ _____    ______ ____
ROOT
ATOM      1  C   UNL     1       1.637  10.833  18.496  0.00  0.00    +0.000 C 
ATOM      2  O   UNL     1       2.363  10.893  17.493  0.00  0.00    +0.000 OA
ATOM      3  N   UNL     1       1.436   9.590  19.128  0.00  0.00    +0.000 N 
ATOM      4  C   UNL     1       0.584   9.357  20.319  0.00  0.00    +0.000 C 
ATOM      5  C   UNL     1       1.152   8.345  21.331  0.00  0.00    +0.000 C 
ATOM      6  C   UNL     1       1.749   7.226  20.589  0.00  0.00    +0.000 A 
ATOM      7  N   UNL     1       2.123   6.022  21.084  0.00  0.00    +0.000 N 
ATOM      8  N   UNL     1       2.651   5.221  20.143  0.00  0.00    +0.000 NA
ATOM      9  C   UNL     1       2.663   5.973  19.029  0.00  0.00    +0.000 A 
ATOM     10  C   UNL     1       2.080   7.246  19.257  0.00  0.00    +0.000 A 
ATOM     11  C   UNL     1       1.839   8.398  18.350  0.00  0.00    +0.000 C 
ATOM     12  H   UNL     1       2.058   5.675  22.036  0.00  0.00    +0.000 HD
ENDROOT
BRANCH   1  18
ATOM     13  C   UNL     1       0.547  15.414  20.877  0.00  0.00    +0.000 C 
ATOM     14  C   UNL     1       0.470  14.125  20.142  0.00  0.00    +0.000 A 
ATOM     15  N   UNL     1      -0.550  13.732  19.414  0.00  0.00    +0.000 NA
ATOM     16  C   UNL     1      -0.266  12.509  18.820  0.00  0.00    +0.000 A 
ATOM     17  C   UNL     1      -1.339  11.847  18.028  0.00  0.00    +0.000 C 
ATOM     18  C   UNL     1       1.030  12.045  19.024  0.00  0.00    +0.000 A 
ATOM     19  S   UNL     1       1.764  13.014  20.240  0.00  0.00    +0.000 S 
ENDBRANCH   1  18
BRANCH   9  20
ATOM     20  C   UNL     1       3.257   5.445  17.758  0.00  0.00    +0.000 C 
BRANCH  20  21
ATOM     21  O   UNL     1       4.194   6.384  17.225  0.00  0.00    +0.000 OA
BRANCH  21  22
ATOM     22  C   UNL     1       5.455   6.353  17.747  0.00  0.00    +0.000 A 
ATOM     23  C   UNL     1       6.322   7.325  17.243  0.00  0.00    +0.000 A 
ATOM     24  C   UNL     1       7.638   7.407  17.698  0.00  0.00    +0.000 A 
ATOM     25  C   UNL     1       8.090   6.526  18.677  0.00  0.00    +0.000 A 
ATOM     26  C   UNL     1       7.222   5.569  19.202  0.00  0.00    +0.000 A 
ATOM     27  C   UNL     1       5.905   5.480  18.739  0.00  0.00    +0.000 A 
ENDBRANCH  21  22
ENDBRANCH  20  21
ENDBRANCH   9  20
TORSDOF 4
ENDMDL
MODEL 6
REMARK VINA RESULT:      -7.5      2.252      3.051
REMARK  Name = 
REMARK  6 active torsions:
REMARK  status: ('A' for Active; 'I' for Inactive)
REMARK    1  A    between atoms: C_1  and  C_2
REMARK    2  A    between atoms: C_4  and  C_5
REMARK    3  A    between atoms: C_6  and  C_7
REMARK    4  A    between atoms: C_15  and  C_16
REMARK    5  A    between atoms: C_16  and  O_17
REMARK    6  A    between atoms: O_17  and  C_18
REMARK                            x       y       z     vdW  Elec       q    Type
REMARK                         _______ _______ _______ _____ _____    ______ ____
ROOT
ATOM      1  C   UNL     1       1.689   9.638  18.390  0.00  0.00    +0.000 C 
ATOM      2  O   UNL     1       2.272  10.256  17.487  0.00  0.00    +0.000 OA
ATOM      3  N   UNL     1       2.032   8.294  18.637  0.00  0.00    +0.000 N 
ATOM      4  C   UNL     1       1.414   7.423  19.665  0.00  0.00    +0.000 C 
ATOM      5  C   UNL     1       2.394   6.478  20.385  0.00  0.00    +0.000 C 
ATOM      6  C   UNL     1       3.338   5.940  19.395  0.00  0.00    +0.000 A 
ATOM      7  N   UNL     1       4.185   4.895  19.555  0.00  0.00    +0.000 N 
ATOM      8  N   UNL     1       4.927   4.664  18.459  0.00  0.00    +0.000 NA
ATOM      9  C   UNL     1       4.575   5.638  17.602  0.00  0.00    +0.000 A 
ATOM     10  C   UNL     1       3.553   6.459  18.143  0.00  0.00    +0.000 A 
ATOM     11  C   UNL     1       2.824   7.626  17.581  0.00  0.00    +0.000 C 
ATOM     12  H   UNL     1       4.319   4.300  20.367  0.00  0.00    +0.000 HD
ENDROOT
BRANCH   1  18
ATOM     13  C   UNL     1      -1.008  12.265  22.087  0.00  0.00    +0.000 C 
ATOM     14  C   UNL     1      -0.604  11.475  20.895  0.00  0.00    +0.000 A 
ATOM     15  N   UNL     1      -1.360  11.257  19.844  0.00  0.00    +0.000 NA
ATOM     16  C   UNL     1      -0.651  10.535  18.891  0.00  0.00    +0.000 A 
ATOM     17  C   UNL     1      -1.370  10.103  17.661  0.00  0.00    +0.000 C 
ATOM     18  C   UNL     1       0.687  10.314  19.200  0.00  0.00    +0.000 A 
ATOM     19  S   UNL     1       0.939  10.744  20.846  0.00  0.00    +0.000 S 
ENDBRANCH   1  18
BRANCH   9  20
ATOM     20  C   UNL     1       5.252   5.764  16.270  0.00  0.00    +0.000 C 
BRANCH  20  21
ATOM     21  O   UNL     1       5.352   4.482  15.645  0.00  0.00    +0.000 OA
BRANCH  21  22
ATOM     22  C   UNL     1       6.027   4.430  14.459  0.00  0.00    +0.000 A 
ATOM     23  C   UNL     1       5.444   3.613  13.489  0.00  0.00    +0.000 A 
ATOM     24  C   UNL     1       6.029   3.478  12.230  0.00  0.00    +0.000 A 
ATOM     25  C   UNL     1       7.195   4.177  11.928  0.00  0.00    +0.000 A 
ATOM     26  C   UNL     1       7.769   5.013  12.885  0.00  0.00    +0.000 A 
ATOM     27  C   UNL     1       7.188   5.142  14.151  0.00  0.00    +0.000 A 
ENDBRANCH  21  22
ENDBRANCH  20  21
ENDBRANCH   9  20
TORSDOF 4
ENDMDL
MODEL 7
REMARK VINA RESULT:      -7.5      2.473      3.209
REMARK  Name = 
REMARK  6 active torsions:
REMARK  status: ('A' for Active; 'I' for Inactive)
REMARK    1  A    between atoms: C_1  and  C_2
REMARK    2  A    between atoms: C_4  and  C_5
REMARK    3  A    between atoms: C_6  and  C_7
REMARK    4  A    between atoms: C_15  and  C_16
REMARK    5  A    between atoms: C_16  and  O_17
REMARK    6  A    between atoms: O_17  and  C_18
REMARK                            x       y       z     vdW  Elec       q    Type
REMARK                         _______ _______ _______ _____ _____    ______ ____
ROOT
ATOM      1  C   UNL     1       1.493  10.849  18.543  0.00  0.00    +0.000 C 
ATOM      2  O   UNL     1       2.204  11.005  17.540  0.00  0.00    +0.000 OA
ATOM      3  N   UNL     1       1.383   9.568  19.117  0.00  0.00    +0.000 N 
ATOM      4  C   UNL     1       0.560   9.222  20.301  0.00  0.00    +0.000 C 
ATOM      5  C   UNL     1       1.205   8.206  21.262  0.00  0.00    +0.000 C 
ATOM      6  C   UNL     1       1.870   7.166  20.465  0.00  0.00    +0.000 A 
ATOM      7  N   UNL     1       2.331   5.969  20.901  0.00  0.00    +0.000 N 
ATOM      8  N   UNL     1       2.903   5.250  19.920  0.00  0.00    +0.000 NA
ATOM      9  C   UNL     1       2.854   6.052  18.843  0.00  0.00    +0.000 A 
ATOM     10  C   UNL     1       2.187   7.270  19.134  0.00  0.00    +0.000 A 
ATOM     11  C   UNL     1       1.859   8.444  18.282  0.00  0.00    +0.000 C 
ATOM     12  H   UNL     1       2.298   5.575  21.837  0.00  0.00    +0.000 HD
ENDROOT
BRANCH   1  18
ATOM     13  C   UNL     1      -1.981  14.320  20.475  0.00  0.00    +0.000 C 
ATOM     14  C   UNL     1      -0.755  13.638  19.986  0.00  0.00    +0.000 A 
ATOM     15  N   UNL     1       0.473  14.053  20.195  0.00  0.00    +0.000 NA
ATOM     16  C   UNL     1       1.378  13.149  19.652  0.00  0.00    +0.000 A 
ATOM     17  C   UNL     1       2.827  13.491  19.703  0.00  0.00    +0.000 C 
ATOM     18  C   UNL     1       0.809  11.991  19.131  0.00  0.00    +0.000 A 
ATOM     19  S   UNL     1      -0.893  12.218  19.045  0.00  0.00    +0.000 S 
ENDBRANCH   1  18
BRANCH   9  20
ATOM     20  C   UNL     1       3.471   5.626  17.545  0.00  0.00    +0.000 C 
BRANCH  20  21
ATOM     21  O   UNL     1       4.701   4.938  17.787  0.00  0.00    +0.000 OA
BRANCH  21  22
ATOM     22  C   UNL     1       5.811   5.714  17.961  0.00  0.00    +0.000 A 
ATOM     23  C   UNL     1       6.675   5.282  18.969  0.00  0.00    +0.000 A 
ATOM     24  C   UNL     1       7.850   5.981  19.245  0.00  0.00    +0.000 A 
ATOM     25  C   UNL     1       8.177   7.110  18.498  0.00  0.00    +0.000 A 
ATOM     26  C   UNL     1       7.331   7.532  17.473  0.00  0.00    +0.000 A 
ATOM     27  C   UNL     1       6.148   6.836  17.202  0.00  0.00    +0.000 A 
ENDBRANCH  21  22
ENDBRANCH  20  21
ENDBRANCH   9  20
TORSDOF 4
ENDMDL
MODEL 8
REMARK VINA RESULT:      -7.5      2.159      2.946
REMARK  Name = 
REMARK  6 active torsions:
REMARK  status: ('A' for Active; 'I' for Inactive)
REMARK    1  A    between atoms: C_1  and  C_2
REMARK    2  A    between atoms: C_4  and  C_5
REMARK    3  A    between atoms: C_6  and  C_7
REMARK    4  A    between atoms: C_15  and  C_16
REMARK    5  A    between atoms: C_16  and  O_17
REMARK    6  A    between atoms: O_17  and  C_18
REMARK                            x       y       z     vdW  Elec       q    Type
REMARK                         _______ _______ _______ _____ _____    ______ ____
ROOT
ATOM      1  C   UNL     1       1.705   9.382  18.555  0.00  0.00    +0.000 C 
ATOM      2  O   UNL     1       2.227  10.024  17.633  0.00  0.00    +0.000 OA
ATOM      3  N   UNL     1       2.079   8.039  18.758  0.00  0.00    +0.000 N 
ATOM      4  C   UNL     1       1.531   7.141  19.803  0.00  0.00    +0.000 C 
ATOM      5  C   UNL     1       2.563   6.198  20.450  0.00  0.00    +0.000 C 
ATOM      6  C   UNL     1       3.457   5.692  19.400  0.00  0.00    +0.000 A 
ATOM      7  N   UNL     1       4.327   4.657  19.494  0.00  0.00    +0.000 N 
ATOM      8  N   UNL     1       5.011   4.456  18.355  0.00  0.00    +0.000 NA
ATOM      9  C   UNL     1       4.599   5.440  17.537  0.00  0.00    +0.000 A 
ATOM     10  C   UNL     1       3.596   6.236  18.148  0.00  0.00    +0.000 A 
ATOM     11  C   UNL     1       2.821   7.401  17.649  0.00  0.00    +0.000 C 
ATOM     12  H   UNL     1       4.514   4.051  20.287  0.00  0.00    +0.000 HD
ENDROOT
BRANCH   1  18
ATOM     13  C   UNL     1      -0.865  11.736  22.517  0.00  0.00    +0.000 C 
ATOM     14  C   UNL     1      -0.496  11.070  21.241  0.00  0.00    +0.000 A 
ATOM     15  N   UNL     1      -1.245  11.040  20.163  0.00  0.00    +0.000 NA
ATOM     16  C   UNL     1      -0.572  10.387  19.137  0.00  0.00    +0.000 A 
ATOM     17  C   UNL     1      -1.296  10.166  17.854  0.00  0.00    +0.000 C 
ATOM     18  C   UNL     1       0.739  10.028  19.431  0.00  0.00    +0.000 A 
ATOM     19  S   UNL     1       0.989  10.234  21.119  0.00  0.00    +0.000 S 
ENDBRANCH   1  18
BRANCH   9  20
ATOM     20  C   UNL     1       5.199   5.599  16.172  0.00  0.00    +0.000 C 
BRANCH  20  21
ATOM     21  O   UNL     1       5.758   4.359  15.732  0.00  0.00    +0.000 OA
BRANCH  21  22
ATOM     22  C   UNL     1       6.176   4.303  14.434  0.00  0.00    +0.000 A 
ATOM     23  C   UNL     1       7.292   5.090  14.144  0.00  0.00    +0.000 A 
ATOM     24  C   UNL     1       7.825   5.119  12.855  0.00  0.00    +0.000 A 
ATOM     25  C   UNL     1       7.253   4.341  11.851  0.00  0.00    +0.000 A 
ATOM     26  C   UNL     1       6.154   3.534  12.140  0.00  0.00    +0.000 A 
ATOM     27  C   UNL     1       5.614   3.512  13.430  0.00  0.00    +0.000 A 
ENDBRANCH  21  22
ENDBRANCH  20  21
ENDBRANCH   9  20
TORSDOF 4
ENDMDL
MODEL 9
REMARK VINA RESULT:      -7.5      2.486      3.534
REMARK  Name = 
REMARK  6 active torsions:
REMARK  status: ('A' for Active; 'I' for Inactive)
REMARK    1  A    between atoms: C_1  and  C_2
REMARK    2  A    between atoms: C_4  and  C_5
REMARK    3  A    between atoms: C_6  and  C_7
REMARK    4  A    between atoms: C_15  and  C_16
REMARK    5  A    between atoms: C_16  and  O_17
REMARK    6  A    between atoms: O_17  and  C_18
REMARK                            x       y       z     vdW  Elec       q    Type
REMARK                         _______ _______ _______ _____ _____    ______ ____
ROOT
ATOM      1  C   UNL     1       0.953  11.558  19.204  0.00  0.00    +0.000 C 
ATOM      2  O   UNL     1       1.650  11.873  18.229  0.00  0.00    +0.000 OA
ATOM      3  N   UNL     1       0.918  10.214  19.621  0.00  0.00    +0.000 N 
ATOM      4  C   UNL     1       0.121   9.684  20.754  0.00  0.00    +0.000 C 
ATOM      5  C   UNL     1       0.826   8.598  21.588  0.00  0.00    +0.000 C 
ATOM      6  C   UNL     1       1.545   7.700  20.674  0.00  0.00    +0.000 A 
ATOM      7  N   UNL     1       2.075   6.487  20.965  0.00  0.00    +0.000 N 
ATOM      8  N   UNL     1       2.682   5.924  19.907  0.00  0.00    +0.000 NA
ATOM      9  C   UNL     1       2.582   6.845  18.932  0.00  0.00    +0.000 A 
ATOM     10  C   UNL     1       1.849   7.979  19.365  0.00  0.00    +0.000 A 
ATOM     11  C   UNL     1       1.453   9.226  18.659  0.00  0.00    +0.000 C 
ATOM     12  H   UNL     1       2.068   5.983  21.847  0.00  0.00    +0.000 HD
ENDROOT
BRANCH   1  18
ATOM     13  C   UNL     1      -0.643  15.580  22.225  0.00  0.00    +0.000 C 
ATOM     14  C   UNL     1      -0.577  14.393  21.334  0.00  0.00    +0.000 A 
ATOM     15  N   UNL     1      -1.579  13.925  20.627  0.00  0.00    +0.000 NA
ATOM     16  C   UNL     1      -1.156  12.845  19.862  0.00  0.00    +0.000 A 
ATOM     17  C   UNL     1      -2.174  12.113  19.059  0.00  0.00    +0.000 C 
ATOM     18  C   UNL     1       0.209  12.582  19.922  0.00  0.00    +0.000 A 
ATOM     19  S   UNL     1       0.880  13.509  21.206  0.00  0.00    +0.000 S 
ENDBRANCH   1  18
BRANCH   9  20
ATOM     20  C   UNL     1       3.217   6.611  17.594  0.00  0.00    +0.000 C 
BRANCH  20  21
ATOM     21  O   UNL     1       4.220   5.597  17.695  0.00  0.00    +0.000 OA
BRANCH  21  22
ATOM     22  C   UNL     1       5.494   6.020  17.945  0.00  0.00    +0.000 A 
ATOM     23  C   UNL     1       6.150   5.328  18.965  0.00  0.00    +0.000 A 
ATOM     24  C   UNL     1       7.460   5.656  19.316  0.00  0.00    +0.000 A 
ATOM     25  C   UNL     1       8.128   6.670  18.633  0.00  0.00    +0.000 A 
ATOM     26  C   UNL     1       7.486   7.348  17.598  0.00  0.00    +0.000 A 
ATOM     27  C   UNL     1       6.170   7.026  17.252  0.00  0.00    +0.000 A 
ENDBRANCH  21  22
ENDBRANCH  20  21
ENDBRANCH   9  20
TORSDOF 4
ENDMDL
