MODEL 1
REMARK VINA RESULT:      -8.9      0.000      0.000
REMARK  Name = 
REMARK  8 active torsions:
REMARK  status: ('A' for Active; 'I' for Inactive)
REMARK    1  A    between atoms: C_1  and  O_2
REMARK    2  A    between atoms: O_2  and  C_3
REMARK    3  A    between atoms: C_7  and  C_8
REMARK    4  A    between atoms: C_8  and  N_9
REMARK    5  A    between atoms: C_8  and  C_13
REMARK    6  A    between atoms: C_10  and  C_11
REMARK    7  A    between atoms: C_15  and  C_16
REMARK    8  A    between atoms: C_20  and  C_21
REMARK                            x       y       z     vdW  Elec       q    Type
REMARK                         _______ _______ _______ _____ _____    ______ ____
ROOT
ATOM      1  C   UNL     1       4.634   5.124  17.936  0.00  0.00    +0.000 A 
ATOM      2  N   UNL     1       4.683   5.029  16.617  0.00  0.00    +0.000 NA
ATOM      3  C   UNL     1       5.989   4.813  16.193  0.00  0.00    +0.000 A 
ATOM      4  C   UNL     1       6.931   4.805  17.201  0.00  0.00    +0.000 A 
ATOM      5  S   UNL     1       6.191   5.161  18.694  0.00  0.00    +0.000 S 
ENDROOT
BRANCH   3   6
ATOM      6  C   UNL     1       6.323   4.625  14.789  0.00  0.00    +0.000 A 
ATOM      7  C   UNL     1       7.524   5.115  14.255  0.00  0.00    +0.000 A 
ATOM      8  C   UNL     1       7.815   4.965  12.902  0.00  0.00    +0.000 A 
ATOM      9  C   UNL     1       6.899   4.330  12.058  0.00  0.00    +0.000 A 
ATOM     10  C   UNL     1       5.695   3.825  12.572  0.00  0.00    +0.000 A 
ATOM     11  C   UNL     1       5.419   3.968  13.940  0.00  0.00    +0.000 A 
BRANCH  10  12
ATOM     12  C   UNL     1       4.689   3.147  11.667  0.00  0.00    +0.000 C 
ATOM     13  F   UNL     1       5.098   1.925  11.224  0.00  0.00    +0.000 F 
ATOM     14  F   UNL     1       3.493   2.941  12.283  0.00  0.00    +0.000 F 
ATOM     15  F   UNL     1       4.420   3.877  10.552  0.00  0.00    +0.000 F 
ENDBRANCH  10  12
ENDBRANCH   3   6
BRANCH   1  16
ATOM     16  C   UNL     1       3.334   5.196  18.748  0.00  0.00    +0.000 C 
BRANCH  16  21
ATOM     17  C   UNL     1       1.478   8.316  20.051  0.00  0.00    +0.000 A 
ATOM     18  C   UNL     1       1.515   9.133  18.923  0.00  0.00    +0.000 A 
ATOM     19  C   UNL     1       2.184   8.721  17.774  0.00  0.00    +0.000 A 
ATOM     20  C   UNL     1       2.796   7.464  17.728  0.00  0.00    +0.000 A 
ATOM     21  C   UNL     1       2.768   6.617  18.847  0.00  0.00    +0.000 A 
ATOM     22  C   UNL     1       2.148   7.091  20.023  0.00  0.00    +0.000 A 
BRANCH  17  24
ATOM     23  C   UNL     1       0.922  10.182  21.420  0.00  0.00    +0.000 C 
ATOM     24  O   UNL     1       0.749   8.806  21.100  0.00  0.00    +0.000 OA
ENDBRANCH  17  24
ENDBRANCH  16  21
BRANCH  16  25
ATOM     25  N   UNL     1       2.356   4.246  18.223  0.00  0.00    +0.000 N 
ATOM     26  C   UNL     1       1.436   3.483  18.868  0.00  0.00    +0.000 C 
ATOM     27  C   UNL     1       1.295   3.528  20.366  0.00  0.00    +0.000 C 
ATOM     28  O   UNL     1       0.705   2.766  18.190  0.00  0.00    +0.000 OA
ATOM     29  H   UNL     1       2.320   4.132  17.222  0.00  0.00    +0.000 HD
ENDBRANCH  16  25
ENDBRANCH   1  16
TORSDOF 6
ENDMDL
MODEL 2
REMARK VINA RESULT:      -8.7      0.965      1.585
REMARK  Name = 
REMARK  8 active torsions:
REMARK  status: ('A' for Active; 'I' for Inactive)
REMARK    1  A    between atoms: C_1  and  O_2
REMARK    2  A    between atoms: O_2  and  C_3
REMARK    3  A    between atoms: C_7  and  C_8
REMARK    4  A    between atoms: C_8  and  N_9
REMARK    5  A    between atoms: C_8  and  C_13
REMARK    6  A    between atoms: C_10  and  C_11
REMARK    7  A    between atoms: C_15  and  C_16
REMARK    8  A    between atoms: C_20  and  C_21
REMARK                            x       y       z     vdW  Elec       q    Type
REMARK                         _______ _______ _______ _____ _____    ______ ____
ROOT
ATOM      1  C   UNL     1       4.587   4.795  17.965  0.00  0.00    +0.000 A 
ATOM      2  N   UNL     1       4.618   4.698  16.646  0.00  0.00    +0.000 NA
ATOM      3  C   UNL     1       5.930   4.680  16.191  0.00  0.00    +0.000 A 
ATOM      4  C   UNL     1       6.887   4.825  17.174  0.00  0.00    +0.000 A 
ATOM      5  S   UNL     1       6.138   5.076  18.684  0.00  0.00    +0.000 S 
ENDROOT
BRANCH   3   6
ATOM      6  C   UNL     1       6.256   4.534  14.780  0.00  0.00    +0.000 A 
ATOM      7  C   UNL     1       7.452   5.041  14.252  0.00  0.00    +0.000 A 
ATOM      8  C   UNL     1       7.734   4.931  12.893  0.00  0.00    +0.000 A 
ATOM      9  C   UNL     1       6.814   4.320  12.037  0.00  0.00    +0.000 A 
ATOM     10  C   UNL     1       5.614   3.797  12.544  0.00  0.00    +0.000 A 
ATOM     11  C   UNL     1       5.347   3.900  13.918  0.00  0.00    +0.000 A 
BRANCH  10  12
ATOM     12  C   UNL     1       4.603   3.144  11.627  0.00  0.00    +0.000 C 
ATOM     13  F   UNL     1       4.288   3.904  10.541  0.00  0.00    +0.000 F 
ATOM     14  F   UNL     1       5.041   1.952  11.136  0.00  0.00    +0.000 F 
ATOM     15  F   UNL     1       3.425   2.885  12.255  0.00  0.00    +0.000 F 
ENDBRANCH  10  12
ENDBRANCH   3   6
BRANCH   1  16
ATOM     16  C   UNL     1       3.311   4.674  18.810  0.00  0.00    +0.000 C 
BRANCH  16  21
ATOM     17  C   UNL     1       2.106   8.313  18.385  0.00  0.00    +0.000 A 
ATOM     18  C   UNL     1       1.643   8.589  19.670  0.00  0.00    +0.000 A 
ATOM     19  C   UNL     1       1.654   7.601  20.650  0.00  0.00    +0.000 A 
ATOM     20  C   UNL     1       2.164   6.330  20.365  0.00  0.00    +0.000 A 
ATOM     21  C   UNL     1       2.643   6.027  19.081  0.00  0.00    +0.000 A 
ATOM     22  C   UNL     1       2.551   7.024  18.086  0.00  0.00    +0.000 A 
BRANCH  17  24
ATOM     23  C   UNL     1       1.603  10.613  18.028  0.00  0.00    +0.000 C 
ATOM     24  O   UNL     1       2.094   9.376  17.522  0.00  0.00    +0.000 OA
ENDBRANCH  17  24
ENDBRANCH  16  21
BRANCH  16  25
ATOM     25  N   UNL     1       2.392   3.715  18.204  0.00  0.00    +0.000 N 
ATOM     26  C   UNL     1       1.424   2.946  18.767  0.00  0.00    +0.000 C 
ATOM     27  C   UNL     1       1.149   2.995  20.245  0.00  0.00    +0.000 C 
ATOM     28  O   UNL     1       0.762   2.221  18.029  0.00  0.00    +0.000 OA
ATOM     29  H   UNL     1       2.446   3.597  17.203  0.00  0.00    +0.000 HD
ENDBRANCH  16  25
ENDBRANCH   1  16
TORSDOF 6
ENDMDL
MODEL 3
REMARK VINA RESULT:      -8.6      5.107      9.156
REMARK  Name = 
REMARK  8 active torsions:
REMARK  status: ('A' for Active; 'I' for Inactive)
REMARK    1  A    between atoms: C_1  and  O_2
REMARK    2  A    between atoms: O_2  and  C_3
REMARK    3  A    between atoms: C_7  and  C_8
REMARK    4  A    between atoms: C_8  and  N_9
REMARK    5  A    between atoms: C_8  and  C_13
REMARK    6  A    between atoms: C_10  and  C_11
REMARK    7  A    between atoms: C_15  and  C_16
REMARK    8  A    between atoms: C_20  and  C_21
REMARK                            x       y       z     vdW  Elec       q    Type
REMARK                         _______ _______ _______ _____ _____    ______ ____
ROOT
ATOM      1  C   UNL     1       2.542   6.694  19.203  0.00  0.00    +0.000 A 
ATOM      2  N   UNL     1       1.927   7.212  20.254  0.00  0.00    +0.000 NA
ATOM      3  C   UNL     1       1.456   8.486  19.962  0.00  0.00    +0.000 A 
ATOM      4  C   UNL     1       1.774   8.947  18.700  0.00  0.00    +0.000 A 
ATOM      5  S   UNL     1       2.752   7.808  17.894  0.00  0.00    +0.000 S 
ENDROOT
BRANCH   3   6
ATOM      6  C   UNL     1       0.699   9.270  20.927  0.00  0.00    +0.000 A 
ATOM      7  C   UNL     1       0.685   8.933  22.288  0.00  0.00    +0.000 A 
ATOM      8  C   UNL     1      -0.075   9.665  23.195  0.00  0.00    +0.000 A 
ATOM      9  C   UNL     1      -0.846  10.742  22.750  0.00  0.00    +0.000 A 
ATOM     10  C   UNL     1      -0.842  11.103  21.394  0.00  0.00    +0.000 A 
ATOM     11  C   UNL     1      -0.060  10.367  20.490  0.00  0.00    +0.000 A 
BRANCH  10  12
ATOM     12  C   UNL     1      -1.681  12.259  20.895  0.00  0.00    +0.000 C 
ATOM     13  F   UNL     1      -0.949  13.368  20.594  0.00  0.00    +0.000 F 
ATOM     14  F   UNL     1      -2.373  11.949  19.766  0.00  0.00    +0.000 F 
ATOM     15  F   UNL     1      -2.605  12.660  21.809  0.00  0.00    +0.000 F 
ENDBRANCH  10  12
ENDBRANCH   3   6
BRANCH   1  16
ATOM     16  C   UNL     1       3.035   5.242  19.121  0.00  0.00    +0.000 C 
BRANCH  16  21
ATOM     17  C   UNL     1       5.867   4.290  16.682  0.00  0.00    +0.000 A 
ATOM     18  C   UNL     1       6.987   4.665  17.421  0.00  0.00    +0.000 A 
ATOM     19  C   UNL     1       6.841   5.279  18.662  0.00  0.00    +0.000 A 
ATOM     20  C   UNL     1       5.567   5.492  19.197  0.00  0.00    +0.000 A 
ATOM     21  C   UNL     1       4.420   5.117  18.478  0.00  0.00    +0.000 A 
ATOM     22  C   UNL     1       4.596   4.566  17.190  0.00  0.00    +0.000 A 
BRANCH  17  24
ATOM     23  C   UNL     1       6.422   4.470  14.374  0.00  0.00    +0.000 C 
ATOM     24  O   UNL     1       6.136   3.651  15.503  0.00  0.00    +0.000 OA
ENDBRANCH  17  24
ENDBRANCH  16  21
BRANCH  16  25
ATOM     25  N   UNL     1       2.978   4.614  20.438  0.00  0.00    +0.000 N 
ATOM     26  C   UNL     1       2.078   3.738  20.957  0.00  0.00    +0.000 C 
ATOM     27  C   UNL     1       0.904   3.255  20.151  0.00  0.00    +0.000 C 
ATOM     28  O   UNL     1       2.262   3.333  22.102  0.00  0.00    +0.000 OA
ATOM     29  H   UNL     1       3.724   4.828  21.082  0.00  0.00    +0.000 HD
ENDBRANCH  16  25
ENDBRANCH   1  16
TORSDOF 6
ENDMDL
MODEL 4
REMARK VINA RESULT:      -8.4      4.282      6.920
REMARK  Name = 
REMARK  8 active torsions:
REMARK  status: ('A' for Active; 'I' for Inactive)
REMARK    1  A    between atoms: C_1  and  O_2
REMARK    2  A    between atoms: O_2  and  C_3
REMARK    3  A    between atoms: C_7  and  C_8
REMARK    4  A    between atoms: C_8  and  N_9
REMARK    5  A    between atoms: C_8  and  C_13
REMARK    6  A    between atoms: C_10  and  C_11
REMARK    7  A    between atoms: C_15  and  C_16
REMARK    8  A    between atoms: C_20  and  C_21
REMARK                            x       y       z     vdW  Elec       q    Type
REMARK                         _______ _______ _______ _____ _____    ______ ____
ROOT
ATOM      1  C   UNL     1       1.189   9.506  19.698  0.00  0.00    +0.000 A 
ATOM      2  N   UNL     1       1.815   8.690  18.866  0.00  0.00    +0.000 NA
ATOM      3  C   UNL     1       1.990   7.441  19.450  0.00  0.00    +0.000 A 
ATOM      4  C   UNL     1       1.543   7.342  20.752  0.00  0.00    +0.000 A 
ATOM      5  S   UNL     1       0.975   8.856  21.289  0.00  0.00    +0.000 S 
ENDROOT
BRANCH   3   6
ATOM      6  C   UNL     1       2.611   6.335  18.736  0.00  0.00    +0.000 A 
ATOM      7  C   UNL     1       3.685   6.545  17.859  0.00  0.00    +0.000 A 
ATOM      8  C   UNL     1       4.243   5.486  17.150  0.00  0.00    +0.000 A 
ATOM      9  C   UNL     1       3.727   4.196  17.301  0.00  0.00    +0.000 A 
ATOM     10  C   UNL     1       2.658   3.960  18.179  0.00  0.00    +0.000 A 
ATOM     11  C   UNL     1       2.112   5.033  18.900  0.00  0.00    +0.000 A 
BRANCH  10  12
ATOM     12  C   UNL     1       2.080   2.571  18.342  0.00  0.00    +0.000 C 
ATOM     13  F   UNL     1       2.454   1.963  19.502  0.00  0.00    +0.000 F 
ATOM     14  F   UNL     1       0.719   2.572  18.342  0.00  0.00    +0.000 F 
ATOM     15  F   UNL     1       2.459   1.731  17.342  0.00  0.00    +0.000 F 
ENDBRANCH  10  12
ENDBRANCH   3   6
BRANCH   1  16
ATOM     16  C   UNL     1       0.687  10.906  19.319  0.00  0.00    +0.000 C 
BRANCH  16  21
ATOM     17  C   UNL     1      -2.507  10.259  17.258  0.00  0.00    +0.000 A 
ATOM     18  C   UNL     1      -3.401  11.130  17.877  0.00  0.00    +0.000 A 
ATOM     19  C   UNL     1      -3.007  11.873  18.987  0.00  0.00    +0.000 A 
ATOM     20  C   UNL     1      -1.699  11.779  19.470  0.00  0.00    +0.000 A 
ATOM     21  C   UNL     1      -0.775  10.914  18.862  0.00  0.00    +0.000 A 
ATOM     22  C   UNL     1      -1.222  10.117  17.785  0.00  0.00    +0.000 A 
BRANCH  17  24
ATOM     23  C   UNL     1      -2.967  10.350  14.924  0.00  0.00    +0.000 C 
ATOM     24  O   UNL     1      -2.991   9.622  16.147  0.00  0.00    +0.000 OA
ENDBRANCH  17  24
ENDBRANCH  16  21
BRANCH  16  25
ATOM     25  N   UNL     1       0.930  11.844  20.412  0.00  0.00    +0.000 N 
ATOM     26  C   UNL     1       1.710  12.955  20.463  0.00  0.00    +0.000 C 
ATOM     27  C   UNL     1       2.506  13.405  19.268  0.00  0.00    +0.000 C 
ATOM     28  O   UNL     1       1.733  13.596  21.510  0.00  0.00    +0.000 OA
ATOM     29  H   UNL     1       0.437  11.678  21.277  0.00  0.00    +0.000 HD
ENDBRANCH  16  25
ENDBRANCH   1  16
TORSDOF 6
ENDMDL
MODEL 5
REMARK VINA RESULT:      -8.4      5.298      8.967
REMARK  Name = 
REMARK  8 active torsions:
REMARK  status: ('A' for Active; 'I' for Inactive)
REMARK    1  A    between atoms: C_1  and  O_2
REMARK    2  A    between atoms: O_2  and  C_3
REMARK    3  A    between atoms: C_7  and  C_8
REMARK    4  A    between atoms: C_8  and  N_9
REMARK    5  A    between atoms: C_8  and  C_13
REMARK    6  A    between atoms: C_10  and  C_11
REMARK    7  A    between atoms: C_15  and  C_16
REMARK    8  A    between atoms: C_20  and  C_21
REMARK                            x       y       z     vdW  Elec       q    Type
REMARK                         _______ _______ _______ _____ _____    ______ ____
ROOT
ATOM      1  C   UNL     1       2.440   6.566  19.283  0.00  0.00    +0.000 A 
ATOM      2  N   UNL     1       1.825   7.118  20.316  0.00  0.00    +0.000 NA
ATOM      3  C   UNL     1       1.430   8.415  20.010  0.00  0.00    +0.000 A 
ATOM      4  C   UNL     1       1.808   8.856  18.758  0.00  0.00    +0.000 A 
ATOM      5  S   UNL     1       2.747   7.665  17.981  0.00  0.00    +0.000 S 
ENDROOT
BRANCH   3   6
ATOM      6  C   UNL     1       0.689   9.239  20.953  0.00  0.00    +0.000 A 
ATOM      7  C   UNL     1       0.649   8.927  22.320  0.00  0.00    +0.000 A 
ATOM      8  C   UNL     1      -0.097   9.698  23.205  0.00  0.00    +0.000 A 
ATOM      9  C   UNL     1      -0.828  10.792  22.733  0.00  0.00    +0.000 A 
ATOM     10  C   UNL     1      -0.797  11.129  21.371  0.00  0.00    +0.000 A 
ATOM     11  C   UNL     1      -0.029  10.353  20.490  0.00  0.00    +0.000 A 
BRANCH  10  12
ATOM     12  C   UNL     1      -1.593  12.303  20.844  0.00  0.00    +0.000 C 
ATOM     13  F   UNL     1      -1.745  12.288  19.490  0.00  0.00    +0.000 F 
ATOM     14  F   UNL     1      -2.851  12.351  21.361  0.00  0.00    +0.000 F 
ATOM     15  F   UNL     1      -1.015  13.497  21.141  0.00  0.00    +0.000 F 
ENDBRANCH  10  12
ENDBRANCH   3   6
BRANCH   1  16
ATOM     16  C   UNL     1       2.859   5.091  19.216  0.00  0.00    +0.000 C 
BRANCH  16  21
ATOM     17  C   UNL     1       6.574   5.277  18.197  0.00  0.00    +0.000 A 
ATOM     18  C   UNL     1       6.528   4.698  16.931  0.00  0.00    +0.000 A 
ATOM     19  C   UNL     1       5.332   4.190  16.429  0.00  0.00    +0.000 A 
ATOM     20  C   UNL     1       4.156   4.291  17.178  0.00  0.00    +0.000 A 
ATOM     21  C   UNL     1       4.171   4.875  18.454  0.00  0.00    +0.000 A 
ATOM     22  C   UNL     1       5.410   5.313  18.969  0.00  0.00    +0.000 A 
BRANCH  17  24
ATOM     23  C   UNL     1       8.009   7.172  18.325  0.00  0.00    +0.000 C 
ATOM     24  O   UNL     1       7.791   5.785  18.560  0.00  0.00    +0.000 OA
ENDBRANCH  17  24
ENDBRANCH  16  21
BRANCH  16  25
ATOM     25  N   UNL     1       2.896   4.514  20.557  0.00  0.00    +0.000 N 
ATOM     26  C   UNL     1       2.112   3.564  21.129  0.00  0.00    +0.000 C 
ATOM     27  C   UNL     1       0.986   2.919  20.369  0.00  0.00    +0.000 C 
ATOM     28  O   UNL     1       2.361   3.231  22.285  0.00  0.00    +0.000 OA
ATOM     29  H   UNL     1       3.625   4.838  21.176  0.00  0.00    +0.000 HD
ENDBRANCH  16  25
ENDBRANCH   1  16
TORSDOF 6
ENDMDL
MODEL 6
REMARK VINA RESULT:      -8.3      1.162      1.752
REMARK  Name = 
REMARK  8 active torsions:
REMARK  status: ('A' for Active; 'I' for Inactive)
REMARK    1  A    between atoms: C_1  and  O_2
REMARK    2  A    between atoms: O_2  and  C_3
REMARK    3  A    between atoms: C_7  and  C_8
REMARK    4  A    between atoms: C_8  and  N_9
REMARK    5  A    between atoms: C_8  and  C_13
REMARK    6  A    between atoms: C_10  and  C_11
REMARK    7  A    between atoms: C_15  and  C_16
REMARK    8  A    between atoms: C_20  and  C_21
REMARK                            x       y       z     vdW  Elec       q    Type
REMARK                         _______ _______ _______ _____ _____    ______ ____
ROOT
ATOM      1  C   UNL     1       4.784   5.097  17.894  0.00  0.00    +0.000 A 
ATOM      2  N   UNL     1       4.796   4.880  16.589  0.00  0.00    +0.000 NA
ATOM      3  C   UNL     1       6.091   4.963  16.094  0.00  0.00    +0.000 A 
ATOM      4  C   UNL     1       7.048   5.304  17.028  0.00  0.00    +0.000 A 
ATOM      5  S   UNL     1       6.309   5.613  18.532  0.00  0.00    +0.000 S 
ENDROOT
BRANCH   3   6
ATOM      6  C   UNL     1       6.399   4.721  14.692  0.00  0.00    +0.000 A 
ATOM      7  C   UNL     1       7.590   5.188  14.117  0.00  0.00    +0.000 A 
ATOM      8  C   UNL     1       7.855   4.986  12.765  0.00  0.00    +0.000 A 
ATOM      9  C   UNL     1       6.924   4.320  11.964  0.00  0.00    +0.000 A 
ATOM     10  C   UNL     1       5.729   3.836  12.520  0.00  0.00    +0.000 A 
ATOM     11  C   UNL     1       5.479   4.033  13.886  0.00  0.00    +0.000 A 
BRANCH  10  12
ATOM     12  C   UNL     1       4.706   3.125  11.661  0.00  0.00    +0.000 C 
ATOM     13  F   UNL     1       3.525   2.901  12.302  0.00  0.00    +0.000 F 
ATOM     14  F   UNL     1       4.395   3.825  10.536  0.00  0.00    +0.000 F 
ATOM     15  F   UNL     1       5.139   1.905  11.242  0.00  0.00    +0.000 F 
ENDBRANCH  10  12
ENDBRANCH   3   6
BRANCH   1  16
ATOM     16  C   UNL     1       3.549   4.917  18.788  0.00  0.00    +0.000 C 
BRANCH  16  21
ATOM     17  C   UNL     1       2.146   8.475  18.286  0.00  0.00    +0.000 A 
ATOM     18  C   UNL     1       1.583   8.714  19.537  0.00  0.00    +0.000 A 
ATOM     19  C   UNL     1       1.591   7.724  20.516  0.00  0.00    +0.000 A 
ATOM     20  C   UNL     1       2.199   6.490  20.264  0.00  0.00    +0.000 A 
ATOM     21  C   UNL     1       2.780   6.223  19.015  0.00  0.00    +0.000 A 
ATOM     22  C   UNL     1       2.691   7.217  18.016  0.00  0.00    +0.000 A 
BRANCH  17  24
ATOM     23  C   UNL     1       2.038  10.836  18.004  0.00  0.00    +0.000 C 
ATOM     24  O   UNL     1       2.124   9.538  17.425  0.00  0.00    +0.000 OA
ENDBRANCH  17  24
ENDBRANCH  16  21
BRANCH  16  25
ATOM     25  N   UNL     1       2.694   3.856  18.262  0.00  0.00    +0.000 N 
ATOM     26  C   UNL     1       2.776   2.508  18.405  0.00  0.00    +0.000 C 
ATOM     27  C   UNL     1       3.877   1.873  19.210  0.00  0.00    +0.000 C 
ATOM     28  O   UNL     1       1.911   1.818  17.871  0.00  0.00    +0.000 OA
ATOM     29  H   UNL     1       1.893   4.139  17.718  0.00  0.00    +0.000 HD
ENDBRANCH  16  25
ENDBRANCH   1  16
TORSDOF 6
ENDMDL
MODEL 7
REMARK VINA RESULT:      -8.2      4.008      6.607
REMARK  Name = 
REMARK  8 active torsions:
REMARK  status: ('A' for Active; 'I' for Inactive)
REMARK    1  A    between atoms: C_1  and  O_2
REMARK    2  A    between atoms: O_2  and  C_3
REMARK    3  A    between atoms: C_7  and  C_8
REMARK    4  A    between atoms: C_8  and  N_9
REMARK    5  A    between atoms: C_8  and  C_13
REMARK    6  A    between atoms: C_10  and  C_11
REMARK    7  A    between atoms: C_15  and  C_16
REMARK    8  A    between atoms: C_20  and  C_21
REMARK                            x       y       z     vdW  Elec       q    Type
REMARK                         _______ _______ _______ _____ _____    ______ ____
ROOT
ATOM      1  C   UNL     1       1.240   9.386  19.675  0.00  0.00    +0.000 A 
ATOM      2  N   UNL     1       1.857   8.576  18.830  0.00  0.00    +0.000 NA
ATOM      3  C   UNL     1       2.044   7.325  19.405  0.00  0.00    +0.000 A 
ATOM      4  C   UNL     1       1.616   7.218  20.712  0.00  0.00    +0.000 A 
ATOM      5  S   UNL     1       1.049   8.727  21.265  0.00  0.00    +0.000 S 
ENDROOT
BRANCH   3   6
ATOM      6  C   UNL     1       2.659   6.225  18.677  0.00  0.00    +0.000 A 
ATOM      7  C   UNL     1       2.354   4.890  18.979  0.00  0.00    +0.000 A 
ATOM      8  C   UNL     1       2.979   3.846  18.305  0.00  0.00    +0.000 A 
ATOM      9  C   UNL     1       3.932   4.123  17.320  0.00  0.00    +0.000 A 
ATOM     10  C   UNL     1       4.248   5.451  16.995  0.00  0.00    +0.000 A 
ATOM     11  C   UNL     1       3.601   6.496  17.672  0.00  0.00    +0.000 A 
BRANCH  10  12
ATOM     12  C   UNL     1       5.287   5.765  15.941  0.00  0.00    +0.000 C 
ATOM     13  F   UNL     1       6.562   5.770  16.423  0.00  0.00    +0.000 F 
ATOM     14  F   UNL     1       5.278   4.868  14.918  0.00  0.00    +0.000 F 
ATOM     15  F   UNL     1       5.099   6.987  15.375  0.00  0.00    +0.000 F 
ENDBRANCH  10  12
ENDBRANCH   3   6
BRANCH   1  16
ATOM     16  C   UNL     1       0.728  10.786  19.310  0.00  0.00    +0.000 C 
BRANCH  16  21
ATOM     17  C   UNL     1      -2.308  10.161  17.014  0.00  0.00    +0.000 A 
ATOM     18  C   UNL     1      -3.267  10.968  17.621  0.00  0.00    +0.000 A 
ATOM     19  C   UNL     1      -2.970  11.657  18.794  0.00  0.00    +0.000 A 
ATOM     20  C   UNL     1      -1.691  11.576  19.354  0.00  0.00    +0.000 A 
ATOM     21  C   UNL     1      -0.703  10.775  18.760  0.00  0.00    +0.000 A 
ATOM     22  C   UNL     1      -1.054  10.028  17.615  0.00  0.00    +0.000 A 
BRANCH  17  24
ATOM     23  C   UNL     1      -3.334  10.412  14.881  0.00  0.00    +0.000 C 
ATOM     24  O   UNL     1      -2.699   9.575  15.841  0.00  0.00    +0.000 OA
ENDBRANCH  17  24
ENDBRANCH  16  21
BRANCH  16  25
ATOM     25  N   UNL     1       0.877  11.691  20.446  0.00  0.00    +0.000 N 
ATOM     26  C   UNL     1       1.559  12.861  20.556  0.00  0.00    +0.000 C 
ATOM     27  C   UNL     1       2.327  13.430  19.394  0.00  0.00    +0.000 C 
ATOM     28  O   UNL     1       1.515  13.455  21.631  0.00  0.00    +0.000 OA
ATOM     29  H   UNL     1       0.390  11.446  21.295  0.00  0.00    +0.000 HD
ENDBRANCH  16  25
ENDBRANCH   1  16
TORSDOF 6
ENDMDL
MODEL 8
REMARK VINA RESULT:      -8.1      4.136      6.573
REMARK  Name = 
REMARK  8 active torsions:
REMARK  status: ('A' for Active; 'I' for Inactive)
REMARK    1  A    between atoms: C_1  and  O_2
REMARK    2  A    between atoms: O_2  and  C_3
REMARK    3  A    between atoms: C_7  and  C_8
REMARK    4  A    between atoms: C_8  and  N_9
REMARK    5  A    between atoms: C_8  and  C_13
REMARK    6  A    between atoms: C_10  and  C_11
REMARK    7  A    between atoms: C_15  and  C_16
REMARK    8  A    between atoms: C_20  and  C_21
REMARK                            x       y       z     vdW  Elec       q    Type
REMARK                         _______ _______ _______ _____ _____    ______ ____
ROOT
ATOM      1  C   UNL     1       1.476   9.221  19.152  0.00  0.00    +0.000 A 
ATOM      2  N   UNL     1       2.068   8.362  18.339  0.00  0.00    +0.000 NA
ATOM      3  C   UNL     1       2.240   7.136  18.969  0.00  0.00    +0.000 A 
ATOM      4  C   UNL     1       1.826   7.097  20.285  0.00  0.00    +0.000 A 
ATOM      5  S   UNL     1       1.294   8.640  20.774  0.00  0.00    +0.000 S 
ENDROOT
BRANCH   3   6
ATOM      6  C   UNL     1       2.825   5.992  18.286  0.00  0.00    +0.000 A 
ATOM      7  C   UNL     1       2.056   4.865  17.962  0.00  0.00    +0.000 A 
ATOM      8  C   UNL     1       2.637   3.760  17.346  0.00  0.00    +0.000 A 
ATOM      9  C   UNL     1       4.003   3.762  17.053  0.00  0.00    +0.000 A 
ATOM     10  C   UNL     1       4.791   4.882  17.360  0.00  0.00    +0.000 A 
ATOM     11  C   UNL     1       4.192   5.996  17.968  0.00  0.00    +0.000 A 
BRANCH  10  12
ATOM     12  C   UNL     1       6.274   4.894  17.061  0.00  0.00    +0.000 C 
ATOM     13  F   UNL     1       6.741   6.117  16.685  0.00  0.00    +0.000 F 
ATOM     14  F   UNL     1       7.023   4.521  18.134  0.00  0.00    +0.000 F 
ATOM     15  F   UNL     1       6.606   4.043  16.053  0.00  0.00    +0.000 F 
ENDBRANCH  10  12
ENDBRANCH   3   6
BRANCH   1  16
ATOM     16  C   UNL     1       0.984  10.613  18.729  0.00  0.00    +0.000 C 
BRANCH  16  21
ATOM     17  C   UNL     1      -2.446  10.102  17.042  0.00  0.00    +0.000 A 
ATOM     18  C   UNL     1      -3.245  10.947  17.810  0.00  0.00    +0.000 A 
ATOM     19  C   UNL     1      -2.709  11.626  18.901  0.00  0.00    +0.000 A 
ATOM     20  C   UNL     1      -1.352  11.496  19.214  0.00  0.00    +0.000 A 
ATOM     21  C   UNL     1      -0.523  10.657  18.454  0.00  0.00    +0.000 A 
ATOM     22  C   UNL     1      -1.108   9.922  17.401  0.00  0.00    +0.000 A 
BRANCH  17  24
ATOM     23  C   UNL     1      -3.258  10.348  14.818  0.00  0.00    +0.000 C 
ATOM     24  O   UNL     1      -3.071   9.530  15.968  0.00  0.00    +0.000 OA
ENDBRANCH  17  24
ENDBRANCH  16  21
BRANCH  16  25
ATOM     25  N   UNL     1       1.398  11.615  19.707  0.00  0.00    +0.000 N 
ATOM     26  C   UNL     1       2.000  12.820  19.533  0.00  0.00    +0.000 C 
ATOM     27  C   UNL     1       2.352  13.326  18.160  0.00  0.00    +0.000 C 
ATOM     28  O   UNL     1       2.233  13.498  20.530  0.00  0.00    +0.000 OA
ATOM     29  H   UNL     1       1.199  11.419  20.677  0.00  0.00    +0.000 HD
ENDBRANCH  16  25
ENDBRANCH   1  16
TORSDOF 6
ENDMDL
MODEL 9
REMARK VINA RESULT:      -8.1      5.416      7.744
REMARK  Name = 
REMARK  8 active torsions:
REMARK  status: ('A' for Active; 'I' for Inactive)
REMARK    1  A    between atoms: C_1  and  O_2
REMARK    2  A    between atoms: O_2  and  C_3
REMARK    3  A    between atoms: C_7  and  C_8
REMARK    4  A    between atoms: C_8  and  N_9
REMARK    5  A    between atoms: C_8  and  C_13
REMARK    6  A    between atoms: C_10  and  C_11
REMARK    7  A    between atoms: C_15  and  C_16
REMARK    8  A    between atoms: C_20  and  C_21
REMARK                            x       y       z     vdW  Elec       q    Type
REMARK                         _______ _______ _______ _____ _____    ______ ____
ROOT
ATOM      1  C   UNL     1       0.843   9.879  19.638  0.00  0.00    +0.000 A 
ATOM      2  N   UNL     1       1.514   8.856  19.134  0.00  0.00    +0.000 NA
ATOM      3  C   UNL     1       1.641   7.845  20.078  0.00  0.00    +0.000 A 
ATOM      4  C   UNL     1       1.112   8.140  21.318  0.00  0.00    +0.000 A 
ATOM      5  S   UNL     1       0.523   9.739  21.335  0.00  0.00    +0.000 S 
ENDROOT
BRANCH   3   6
ATOM      6  C   UNL     1       2.297   6.582  19.774  0.00  0.00    +0.000 A 
ATOM      7  C   UNL     1       3.287   6.496  18.784  0.00  0.00    +0.000 A 
ATOM      8  C   UNL     1       3.878   5.275  18.472  0.00  0.00    +0.000 A 
ATOM      9  C   UNL     1       3.478   4.115  19.142  0.00  0.00    +0.000 A 
ATOM     10  C   UNL     1       2.495   4.179  20.141  0.00  0.00    +0.000 A 
ATOM     11  C   UNL     1       1.916   5.417  20.457  0.00  0.00    +0.000 A 
BRANCH  10  12
ATOM     12  C   UNL     1       2.042   2.929  20.865  0.00  0.00    +0.000 C 
ATOM     13  F   UNL     1       1.936   1.842  20.051  0.00  0.00    +0.000 F 
ATOM     14  F   UNL     1       2.896   2.568  21.862  0.00  0.00    +0.000 F 
ATOM     15  F   UNL     1       0.823   3.080  21.447  0.00  0.00    +0.000 F 
ENDBRANCH  10  12
ENDBRANCH   3   6
BRANCH   1  16
ATOM     16  C   UNL     1       0.377  11.093  18.822  0.00  0.00    +0.000 C 
BRANCH  16  21
ATOM     17  C   UNL     1      -3.447  11.561  18.638  0.00  0.00    +0.000 A 
ATOM     18  C   UNL     1      -3.786  10.590  17.699  0.00  0.00    +0.000 A 
ATOM     19  C   UNL     1      -2.796   9.833  17.077  0.00  0.00    +0.000 A 
ATOM     20  C   UNL     1      -1.452  10.015  17.418  0.00  0.00    +0.000 A 
ATOM     21  C   UNL     1      -1.082  10.982  18.366  0.00  0.00    +0.000 A 
ATOM     22  C   UNL     1      -2.099  11.787  18.924  0.00  0.00    +0.000 A 
BRANCH  17  24
ATOM     23  C   UNL     1      -4.219  13.069  20.310  0.00  0.00    +0.000 C 
ATOM     24  O   UNL     1      -4.507  12.204  19.217  0.00  0.00    +0.000 OA
ENDBRANCH  17  24
ENDBRANCH  16  21
BRANCH  16  25
ATOM     25  N   UNL     1       0.635  12.327  19.559  0.00  0.00    +0.000 N 
ATOM     26  C   UNL     1       1.561  13.299  19.352  0.00  0.00    +0.000 C 
ATOM     27  C   UNL     1       2.541  13.214  18.214  0.00  0.00    +0.000 C 
ATOM     28  O   UNL     1       1.563  14.264  20.112  0.00  0.00    +0.000 OA
ATOM     29  H   UNL     1       0.030  12.529  20.341  0.00  0.00    +0.000 HD
ENDBRANCH  16  25
ENDBRANCH   1  16
TORSDOF 6
ENDMDL
