MODEL 1
REMARK VINA RESULT:      -7.3      0.000      0.000
REMARK  Name = 
REMARK  6 active torsions:
REMARK  status: ('A' for Active; 'I' for Inactive)
REMARK    1  A    between atoms: C_1  and  O_2
REMARK    2  A    between atoms: O_2  and  C_3
REMARK    3  A    between atoms: C_8  and  O_9
REMARK    4  A    between atoms: O_9  and  C_10
REMARK    5  A    between atoms: C_18  and  C_19
REMARK    6  A    between atoms: C_22  and  C_24
REMARK                            x       y       z     vdW  Elec       q    Type
REMARK                         _______ _______ _______ _____ _____    ______ ____
ROOT
ATOM      1  C   UNL     1      -2.629  10.238  17.372  0.00  0.00    +0.000 A 
ATOM      2  C   UNL     1      -1.250  10.071  17.462  0.00  0.00    +0.000 A 
ATOM      3  C   UNL     1      -0.540  10.707  18.457  0.00  0.00    +0.000 A 
ATOM      4  C   UNL     1      -1.194  11.543  19.399  0.00  0.00    +0.000 A 
ATOM      5  C   UNL     1      -2.604  11.765  19.354  0.00  0.00    +0.000 A 
ATOM      6  C   UNL     1      -3.310  11.094  18.296  0.00  0.00    +0.000 A 
ATOM      7  C   UNL     1      -3.237  12.631  20.442  0.00  0.00    +0.000 A 
ATOM      8  C   UNL     1      -4.521  13.211  20.429  0.00  0.00    +0.000 A 
ATOM      9  C   UNL     1      -4.911  14.071  21.467  0.00  0.00    +0.000 A 
ATOM     10  C   UNL     1      -4.128  14.296  22.566  0.00  0.00    +0.000 A 
ATOM     11  C   UNL     1      -2.901  13.728  22.678  0.00  0.00    +0.000 A 
ATOM     12  C   UNL     1      -2.440  13.015  21.556  0.00  0.00    +0.000 A 
ATOM     13  C   UNL     1      -0.970  13.170  21.338  0.00  0.00    +0.000 C 
ATOM     14  C   UNL     1      -0.280  12.121  20.490  0.00  0.00    +0.000 C 
ATOM     15  N   UNL     1       0.996  12.698  19.828  0.00  0.00    +0.000 N 
ATOM     16  C   UNL     1       1.594  13.897  20.268  0.00  0.00    +0.000 C 
ATOM     17  O   UNL     1       1.163  14.547  21.227  0.00  0.00    +0.000 OA
ATOM     18  C   UNL     1       1.585  11.879  18.769  0.00  0.00    +0.000 C 
ATOM     19  C   UNL     1       0.952  10.516  18.549  0.00  0.00    +0.000 C 
ATOM     20  O   UNL     1      -4.614  15.235  23.411  0.00  0.00    +0.000 OA
ATOM     21  C   UNL     1      -5.829  15.585  22.728  0.00  0.00    +0.000 C 
ATOM     22  O   UNL     1      -6.030  14.849  21.498  0.00  0.00    +0.000 OA
ENDROOT
BRANCH  16  23
ATOM     23  C   UNL     1       2.843  14.490  19.655  0.00  0.00    +0.000 A 
ATOM     24  C   UNL     1       2.988  14.975  18.352  0.00  0.00    +0.000 A 
ATOM     25  C   UNL     1       4.252  15.266  17.830  0.00  0.00    +0.000 A 
ATOM     26  C   UNL     1       5.380  15.190  18.640  0.00  0.00    +0.000 A 
ATOM     27  C   UNL     1       5.235  14.881  19.986  0.00  0.00    +0.000 A 
ATOM     28  C   UNL     1       3.978  14.538  20.488  0.00  0.00    +0.000 A 
ENDBRANCH  16  23
BRANCH   1  30
ATOM     29  C   UNL     1      -3.042  10.006  15.020  0.00  0.00    +0.000 C 
ATOM     30  O   UNL     1      -3.321   9.604  16.367  0.00  0.00    +0.000 OA
ENDBRANCH   1  30
BRANCH   6  31
ATOM     31  O   UNL     1      -4.673  11.310  18.280  0.00  0.00    +0.000 OA
ATOM     32  C   UNL     1      -5.280  11.969  17.175  0.00  0.00    +0.000 C 
ENDBRANCH   6  31
BRANCH  14  33
ATOM     33  C   UNL     1       0.104  11.001  21.443  0.00  0.00    +0.000 C 
ATOM     34  N   UNL     1       0.423  10.072  22.233  0.00  0.00    +0.000 NA
ENDBRANCH  14  33
TORSDOF 4
ENDMDL
MODEL 2
REMARK VINA RESULT:      -7.3      0.727      1.100
REMARK  Name = 
REMARK  6 active torsions:
REMARK  status: ('A' for Active; 'I' for Inactive)
REMARK    1  A    between atoms: C_1  and  O_2
REMARK    2  A    between atoms: O_2  and  C_3
REMARK    3  A    between atoms: C_8  and  O_9
REMARK    4  A    between atoms: O_9  and  C_10
REMARK    5  A    between atoms: C_18  and  C_19
REMARK    6  A    between atoms: C_22  and  C_24
REMARK                            x       y       z     vdW  Elec       q    Type
REMARK                         _______ _______ _______ _____ _____    ______ ____
ROOT
ATOM      1  C   UNL     1      -3.026  10.744  17.297  0.00  0.00    +0.000 A 
ATOM      2  C   UNL     1      -1.679  10.407  17.384  0.00  0.00    +0.000 A 
ATOM      3  C   UNL     1      -0.943  10.777  18.488  0.00  0.00    +0.000 A 
ATOM      4  C   UNL     1      -1.538  11.509  19.549  0.00  0.00    +0.000 A 
ATOM      5  C   UNL     1      -2.912  11.896  19.515  0.00  0.00    +0.000 A 
ATOM      6  C   UNL     1      -3.645  11.502  18.343  0.00  0.00    +0.000 A 
ATOM      7  C   UNL     1      -3.489  12.630  20.725  0.00  0.00    +0.000 A 
ATOM      8  C   UNL     1      -4.700  13.348  20.788  0.00  0.00    +0.000 A 
ATOM      9  C   UNL     1      -5.033  14.056  21.952  0.00  0.00    +0.000 A 
ATOM     10  C   UNL     1      -4.275  13.998  23.088  0.00  0.00    +0.000 A 
ATOM     11  C   UNL     1      -3.123  13.282  23.124  0.00  0.00    +0.000 A 
ATOM     12  C   UNL     1      -2.699  12.723  21.905  0.00  0.00    +0.000 A 
ATOM     13  C   UNL     1      -1.214  12.743  21.746  0.00  0.00    +0.000 C 
ATOM     14  C   UNL     1      -0.610  11.783  20.742  0.00  0.00    +0.000 C 
ATOM     15  N   UNL     1       0.747  12.313  20.216  0.00  0.00    +0.000 N 
ATOM     16  C   UNL     1       1.455  13.343  20.871  0.00  0.00    +0.000 C 
ATOM     17  O   UNL     1       1.061  13.864  21.920  0.00  0.00    +0.000 OA
ATOM     18  C   UNL     1       1.284  11.626  19.042  0.00  0.00    +0.000 C 
ATOM     19  C   UNL     1       0.514  10.402  18.575  0.00  0.00    +0.000 C 
ATOM     20  O   UNL     1      -4.688  14.829  24.075  0.00  0.00    +0.000 OA
ATOM     21  C   UNL     1      -5.829  15.428  23.439  0.00  0.00    +0.000 C 
ATOM     22  O   UNL     1      -6.061  14.941  22.096  0.00  0.00    +0.000 OA
ENDROOT
BRANCH  16  23
ATOM     23  C   UNL     1       2.785  13.885  20.396  0.00  0.00    +0.000 A 
ATOM     24  C   UNL     1       3.915  14.137  21.179  0.00  0.00    +0.000 A 
ATOM     25  C   UNL     1       4.994  14.866  20.671  0.00  0.00    +0.000 A 
ATOM     26  C   UNL     1       5.011  15.255  19.335  0.00  0.00    +0.000 A 
ATOM     27  C   UNL     1       3.977  14.860  18.495  0.00  0.00    +0.000 A 
ATOM     28  C   UNL     1       2.878  14.179  19.021  0.00  0.00    +0.000 A 
ENDBRANCH  16  23
BRANCH   1  30
ATOM     29  C   UNL     1      -3.049  10.353  14.930  0.00  0.00    +0.000 C 
ATOM     30  O   UNL     1      -3.744  10.376  16.183  0.00  0.00    +0.000 OA
ENDBRANCH   1  30
BRANCH   6  31
ATOM     31  O   UNL     1      -4.974  11.873  18.337  0.00  0.00    +0.000 OA
ATOM     32  C   UNL     1      -5.991  10.896  18.523  0.00  0.00    +0.000 C 
ENDBRANCH   6  31
BRANCH  14  33
ATOM     33  C   UNL     1      -0.389  10.479  21.492  0.00  0.00    +0.000 C 
ATOM     34  N   UNL     1      -0.207   9.398  22.113  0.00  0.00    +0.000 NA
ENDBRANCH  14  33
TORSDOF 4
ENDMDL
MODEL 3
REMARK VINA RESULT:      -6.9      1.275      1.805
REMARK  Name = 
REMARK  6 active torsions:
REMARK  status: ('A' for Active; 'I' for Inactive)
REMARK    1  A    between atoms: C_1  and  O_2
REMARK    2  A    between atoms: O_2  and  C_3
REMARK    3  A    between atoms: C_8  and  O_9
REMARK    4  A    between atoms: O_9  and  C_10
REMARK    5  A    between atoms: C_18  and  C_19
REMARK    6  A    between atoms: C_22  and  C_24
REMARK                            x       y       z     vdW  Elec       q    Type
REMARK                         _______ _______ _______ _____ _____    ______ ____
ROOT
ATOM      1  C   UNL     1      -3.471  11.467  18.487  0.00  0.00    +0.000 A 
ATOM      2  C   UNL     1      -2.138  11.067  18.479  0.00  0.00    +0.000 A 
ATOM      3  C   UNL     1      -1.286  11.481  19.479  0.00  0.00    +0.000 A 
ATOM      4  C   UNL     1      -1.745  12.321  20.526  0.00  0.00    +0.000 A 
ATOM      5  C   UNL     1      -3.097  12.777  20.585  0.00  0.00    +0.000 A 
ATOM      6  C   UNL     1      -3.954  12.334  19.519  0.00  0.00    +0.000 A 
ATOM      7  C   UNL     1      -3.525  13.630  21.778  0.00  0.00    +0.000 A 
ATOM      8  C   UNL     1      -4.690  14.413  21.892  0.00  0.00    +0.000 A 
ATOM      9  C   UNL     1      -4.881  15.224  23.020  0.00  0.00    +0.000 A 
ATOM     10  C   UNL     1      -4.023  15.213  24.085  0.00  0.00    +0.000 A 
ATOM     11  C   UNL     1      -2.906  14.442  24.075  0.00  0.00    +0.000 A 
ATOM     12  C   UNL     1      -2.624  13.771  22.871  0.00  0.00    +0.000 A 
ATOM     13  C   UNL     1      -1.161  13.701  22.579  0.00  0.00    +0.000 C 
ATOM     14  C   UNL     1      -0.698  12.637  21.605  0.00  0.00    +0.000 C 
ATOM     15  N   UNL     1       0.626  13.053  20.919  0.00  0.00    +0.000 N 
ATOM     16  C   UNL     1       1.438  14.091  21.422  0.00  0.00    +0.000 C 
ATOM     17  O   UNL     1       1.168  14.711  22.456  0.00  0.00    +0.000 OA
ATOM     18  C   UNL     1       1.019  12.251  19.760  0.00  0.00    +0.000 C 
ATOM     19  C   UNL     1       0.154  11.038  19.464  0.00  0.00    +0.000 C 
ATOM     20  O   UNL     1      -4.303  16.137  25.035  0.00  0.00    +0.000 OA
ATOM     21  C   UNL     1      -5.471  16.745  24.458  0.00  0.00    +0.000 C 
ATOM     22  O   UNL     1      -5.849  16.171  23.184  0.00  0.00    +0.000 OA
ENDROOT
BRANCH  16  23
ATOM     23  C   UNL     1       2.741  14.524  20.787  0.00  0.00    +0.000 A 
ATOM     24  C   UNL     1       4.031  14.252  21.252  0.00  0.00    +0.000 A 
ATOM     25  C   UNL     1       5.142  14.914  20.719  0.00  0.00    +0.000 A 
ATOM     26  C   UNL     1       4.994  15.771  19.633  0.00  0.00    +0.000 A 
ATOM     27  C   UNL     1       3.745  15.918  19.044  0.00  0.00    +0.000 A 
ATOM     28  C   UNL     1       2.632  15.298  19.614  0.00  0.00    +0.000 A 
ENDBRANCH  16  23
BRANCH   1  30
ATOM     29  C   UNL     1      -3.700  10.684  16.230  0.00  0.00    +0.000 C 
ATOM     30  O   UNL     1      -4.306  11.053  17.475  0.00  0.00    +0.000 OA
ENDBRANCH   1  30
BRANCH   6  31
ATOM     31  O   UNL     1      -5.260  12.772  19.603  0.00  0.00    +0.000 OA
ATOM     32  C   UNL     1      -6.296  11.870  19.972  0.00  0.00    +0.000 C 
ENDBRANCH   6  31
BRANCH  14  33
ATOM     33  C   UNL     1      -0.467  11.384  22.435  0.00  0.00    +0.000 C 
ATOM     34  N   UNL     1      -0.275  10.346  23.124  0.00  0.00    +0.000 NA
ENDBRANCH  14  33
TORSDOF 4
ENDMDL
MODEL 4
REMARK VINA RESULT:      -6.8      1.061      1.359
REMARK  Name = 
REMARK  6 active torsions:
REMARK  status: ('A' for Active; 'I' for Inactive)
REMARK    1  A    between atoms: C_1  and  O_2
REMARK    2  A    between atoms: O_2  and  C_3
REMARK    3  A    between atoms: C_8  and  O_9
REMARK    4  A    between atoms: O_9  and  C_10
REMARK    5  A    between atoms: C_18  and  C_19
REMARK    6  A    between atoms: C_22  and  C_24
REMARK                            x       y       z     vdW  Elec       q    Type
REMARK                         _______ _______ _______ _____ _____    ______ ____
ROOT
ATOM      1  C   UNL     1      -3.478  11.415  18.205  0.00  0.00    +0.000 A 
ATOM      2  C   UNL     1      -2.141  11.082  18.006  0.00  0.00    +0.000 A 
ATOM      3  C   UNL     1      -1.182  11.511  18.896  0.00  0.00    +0.000 A 
ATOM      4  C   UNL     1      -1.532  12.300  20.022  0.00  0.00    +0.000 A 
ATOM      5  C   UNL     1      -2.883  12.686  20.277  0.00  0.00    +0.000 A 
ATOM      6  C   UNL     1      -3.856  12.229  19.321  0.00  0.00    +0.000 A 
ATOM      7  C   UNL     1      -3.184  13.485  21.544  0.00  0.00    +0.000 A 
ATOM      8  C   UNL     1      -4.358  14.206  21.838  0.00  0.00    +0.000 A 
ATOM      9  C   UNL     1      -4.431  14.977  23.008  0.00  0.00    +0.000 A 
ATOM     10  C   UNL     1      -3.437  14.981  23.947  0.00  0.00    +0.000 A 
ATOM     11  C   UNL     1      -2.297  14.267  23.762  0.00  0.00    +0.000 A 
ATOM     12  C   UNL     1      -2.150  13.642  22.510  0.00  0.00    +0.000 A 
ATOM     13  C   UNL     1      -0.739  13.652  22.022  0.00  0.00    +0.000 C 
ATOM     14  C   UNL     1      -0.364  12.639  20.960  0.00  0.00    +0.000 C 
ATOM     15  N   UNL     1       0.834  13.139  20.117  0.00  0.00    +0.000 N 
ATOM     16  C   UNL     1       1.659  14.202  20.540  0.00  0.00    +0.000 C 
ATOM     17  O   UNL     1       1.503  14.780  21.621  0.00  0.00    +0.000 OA
ATOM     18  C   UNL     1       1.103  12.388  18.890  0.00  0.00    +0.000 C 
ATOM     19  C   UNL     1       0.262  11.141  18.673  0.00  0.00    +0.000 C 
ATOM     20  O   UNL     1      -3.628  15.864  24.955  0.00  0.00    +0.000 OA
ATOM     21  C   UNL     1      -4.889  16.428  24.560  0.00  0.00    +0.000 C 
ATOM     22  O   UNL     1      -5.410  15.869  23.331  0.00  0.00    +0.000 OA
ENDROOT
BRANCH  16  23
ATOM     23  C   UNL     1       2.843  14.716  19.750  0.00  0.00    +0.000 A 
ATOM     24  C   UNL     1       2.838  15.151  18.422  0.00  0.00    +0.000 A 
ATOM     25  C   UNL     1       4.035  15.366  17.732  0.00  0.00    +0.000 A 
ATOM     26  C   UNL     1       5.255  15.263  18.394  0.00  0.00    +0.000 A 
ATOM     27  C   UNL     1       5.272  15.005  19.759  0.00  0.00    +0.000 A 
ATOM     28  C   UNL     1       4.077  14.738  20.429  0.00  0.00    +0.000 A 
ENDBRANCH  16  23
BRANCH   1  30
ATOM     29  C   UNL     1      -4.012  10.850  15.935  0.00  0.00    +0.000 C 
ATOM     30  O   UNL     1      -4.422  10.986  17.302  0.00  0.00    +0.000 OA
ENDBRANCH   1  30
BRANCH   6  31
ATOM     31  O   UNL     1      -5.157  12.600  19.594  0.00  0.00    +0.000 OA
ATOM     32  C   UNL     1      -6.099  11.631  20.038  0.00  0.00    +0.000 C 
ENDBRANCH   6  31
BRANCH  14  33
ATOM     33  C   UNL     1       0.034  11.378  21.710  0.00  0.00    +0.000 C 
ATOM     34  N   UNL     1       0.365  10.332  22.332  0.00  0.00    +0.000 NA
ENDBRANCH  14  33
TORSDOF 4
ENDMDL
MODEL 5
REMARK VINA RESULT:      -6.8      1.508      2.338
REMARK  Name = 
REMARK  6 active torsions:
REMARK  status: ('A' for Active; 'I' for Inactive)
REMARK    1  A    between atoms: C_1  and  O_2
REMARK    2  A    between atoms: O_2  and  C_3
REMARK    3  A    between atoms: C_8  and  O_9
REMARK    4  A    between atoms: O_9  and  C_10
REMARK    5  A    between atoms: C_18  and  C_19
REMARK    6  A    between atoms: C_22  and  C_24
REMARK                            x       y       z     vdW  Elec       q    Type
REMARK                         _______ _______ _______ _____ _____    ______ ____
ROOT
ATOM      1  C   UNL     1      -4.810  11.780  18.597  0.00  0.00    +0.000 A 
ATOM      2  C   UNL     1      -3.544  11.343  18.220  0.00  0.00    +0.000 A 
ATOM      3  C   UNL     1      -2.440  11.702  18.962  0.00  0.00    +0.000 A 
ATOM      4  C   UNL     1      -2.569  12.522  20.113  0.00  0.00    +0.000 A 
ATOM      5  C   UNL     1      -3.839  13.013  20.546  0.00  0.00    +0.000 A 
ATOM      6  C   UNL     1      -4.967  12.627  19.741  0.00  0.00    +0.000 A 
ATOM      7  C   UNL     1      -3.898  13.840  21.829  0.00  0.00    +0.000 A 
ATOM      8  C   UNL     1      -4.962  14.651  22.271  0.00  0.00    +0.000 A 
ATOM      9  C   UNL     1      -4.813  15.432  23.426  0.00  0.00    +0.000 A 
ATOM     10  C   UNL     1      -3.700  15.365  24.219  0.00  0.00    +0.000 A 
ATOM     11  C   UNL     1      -2.655  14.564  23.889  0.00  0.00    +0.000 A 
ATOM     12  C   UNL     1      -2.731  13.923  22.640  0.00  0.00    +0.000 A 
ATOM     13  C   UNL     1      -1.405  13.821  21.961  0.00  0.00    +0.000 C 
ATOM     14  C   UNL     1      -1.259  12.775  20.875  0.00  0.00    +0.000 C 
ATOM     15  N   UNL     1      -0.156  13.176  19.865  0.00  0.00    +0.000 N 
ATOM     16  C   UNL     1       0.798  14.175  20.153  0.00  0.00    +0.000 C 
ATOM     17  O   UNL     1       0.839  14.769  21.235  0.00  0.00    +0.000 OA
ATOM     18  C   UNL     1      -0.118  12.399  18.626  0.00  0.00    +0.000 C 
ATOM     19  C   UNL     1      -1.073  11.220  18.548  0.00  0.00    +0.000 C 
ATOM     20  O   UNL     1      -3.681  16.266  25.229  0.00  0.00    +0.000 OA
ATOM     21  C   UNL     1      -4.939  16.924  25.003  0.00  0.00    +0.000 C 
ATOM     22  O   UNL     1      -5.667  16.400  23.867  0.00  0.00    +0.000 OA
ENDROOT
BRANCH  16  23
ATOM     23  C   UNL     1       1.896  14.591  19.199  0.00  0.00    +0.000 A 
ATOM     24  C   UNL     1       3.039  13.858  18.866  0.00  0.00    +0.000 A 
ATOM     25  C   UNL     1       4.095  14.452  18.169  0.00  0.00    +0.000 A 
ATOM     26  C   UNL     1       3.978  15.754  17.692  0.00  0.00    +0.000 A 
ATOM     27  C   UNL     1       2.781  16.437  17.860  0.00  0.00    +0.000 A 
ATOM     28  C   UNL     1       1.750  15.859  18.603  0.00  0.00    +0.000 A 
ENDBRANCH  16  23
BRANCH   1  30
ATOM     29  C   UNL     1      -6.538  12.449  17.072  0.00  0.00    +0.000 C 
ATOM     30  O   UNL     1      -5.901  11.421  17.840  0.00  0.00    +0.000 OA
ENDBRANCH   1  30
BRANCH   6  31
ATOM     31  O   UNL     1      -6.185  13.099  20.185  0.00  0.00    +0.000 OA
ATOM     32  C   UNL     1      -7.103  12.221  20.824  0.00  0.00    +0.000 C 
ENDBRANCH   6  31
BRANCH  14  33
ATOM     33  C   UNL     1      -0.858  11.491  21.583  0.00  0.00    +0.000 C 
ATOM     34  N   UNL     1      -0.525  10.426  22.170  0.00  0.00    +0.000 NA
ENDBRANCH  14  33
TORSDOF 4
ENDMDL
MODEL 6
REMARK VINA RESULT:      -6.7      1.429      1.538
REMARK  Name = 
REMARK  6 active torsions:
REMARK  status: ('A' for Active; 'I' for Inactive)
REMARK    1  A    between atoms: C_1  and  O_2
REMARK    2  A    between atoms: O_2  and  C_3
REMARK    3  A    between atoms: C_8  and  O_9
REMARK    4  A    between atoms: O_9  and  C_10
REMARK    5  A    between atoms: C_18  and  C_19
REMARK    6  A    between atoms: C_22  and  C_24
REMARK                            x       y       z     vdW  Elec       q    Type
REMARK                         _______ _______ _______ _____ _____    ______ ____
ROOT
ATOM      1  C   UNL     1      -3.324  11.159  17.119  0.00  0.00    +0.000 A 
ATOM      2  C   UNL     1      -1.938  11.137  17.247  0.00  0.00    +0.000 A 
ATOM      3  C   UNL     1      -1.346  11.553  18.419  0.00  0.00    +0.000 A 
ATOM      4  C   UNL     1      -2.129  12.015  19.508  0.00  0.00    +0.000 A 
ATOM      5  C   UNL     1      -3.554  12.074  19.436  0.00  0.00    +0.000 A 
ATOM      6  C   UNL     1      -4.137  11.643  18.194  0.00  0.00    +0.000 A 
ATOM      7  C   UNL     1      -4.325  12.527  20.675  0.00  0.00    +0.000 A 
ATOM      8  C   UNL     1      -5.673  12.934  20.738  0.00  0.00    +0.000 A 
ATOM      9  C   UNL     1      -6.200  13.424  21.942  0.00  0.00    +0.000 A 
ATOM     10  C   UNL     1      -5.485  13.428  23.108  0.00  0.00    +0.000 A 
ATOM     11  C   UNL     1      -4.198  12.998  23.140  0.00  0.00    +0.000 A 
ATOM     12  C   UNL     1      -3.616  12.681  21.899  0.00  0.00    +0.000 A 
ATOM     13  C   UNL     1      -2.174  13.060  21.824  0.00  0.00    +0.000 C 
ATOM     14  C   UNL     1      -1.329  12.374  20.770  0.00  0.00    +0.000 C 
ATOM     15  N   UNL     1      -0.121  13.255  20.369  0.00  0.00    +0.000 N 
ATOM     16  C   UNL     1       0.304  14.349  21.153  0.00  0.00    +0.000 C 
ATOM     17  O   UNL     1      -0.235  14.654  22.222  0.00  0.00    +0.000 OA
ATOM     18  C   UNL     1       0.600  12.834  19.168  0.00  0.00    +0.000 C 
ATOM     19  C   UNL     1       0.155  11.520  18.549  0.00  0.00    +0.000 C 
ATOM     20  O   UNL     1      -6.113  14.035  24.143  0.00  0.00    +0.000 OA
ATOM     21  C   UNL     1      -7.343  14.415  23.504  0.00  0.00    +0.000 C 
ATOM     22  O   UNL     1      -7.411  14.027  22.111  0.00  0.00    +0.000 OA
ENDROOT
BRANCH  16  23
ATOM     23  C   UNL     1       1.483  15.229  20.802  0.00  0.00    +0.000 A 
ATOM     24  C   UNL     1       1.485  16.313  19.919  0.00  0.00    +0.000 A 
ATOM     25  C   UNL     1       2.685  16.889  19.491  0.00  0.00    +0.000 A 
ATOM     26  C   UNL     1       3.897  16.467  20.029  0.00  0.00    +0.000 A 
ATOM     27  C   UNL     1       3.901  15.512  21.038  0.00  0.00    +0.000 A 
ATOM     28  C   UNL     1       2.705  14.903  21.421  0.00  0.00    +0.000 A 
ENDBRANCH  16  23
BRANCH   1  30
ATOM     29  C   UNL     1      -3.045  10.132  14.968  0.00  0.00    +0.000 C 
ATOM     30  O   UNL     1      -3.899  10.750  15.939  0.00  0.00    +0.000 OA
ENDBRANCH   1  30
BRANCH   6  31
ATOM     31  O   UNL     1      -5.515  11.694  18.151  0.00  0.00    +0.000 OA
ATOM     32  C   UNL     1      -6.170  12.629  17.303  0.00  0.00    +0.000 C 
ENDBRANCH   6  31
BRANCH  14  33
ATOM     33  C   UNL     1      -0.831  11.088  21.408  0.00  0.00    +0.000 C 
ATOM     34  N   UNL     1      -0.418  10.021  21.938  0.00  0.00    +0.000 NA
ENDBRANCH  14  33
TORSDOF 4
ENDMDL
MODEL 7
REMARK VINA RESULT:      -6.6      2.501      5.663
REMARK  Name = 
REMARK  6 active torsions:
REMARK  status: ('A' for Active; 'I' for Inactive)
REMARK    1  A    between atoms: C_1  and  O_2
REMARK    2  A    between atoms: O_2  and  C_3
REMARK    3  A    between atoms: C_8  and  O_9
REMARK    4  A    between atoms: O_9  and  C_10
REMARK    5  A    between atoms: C_18  and  C_19
REMARK    6  A    between atoms: C_22  and  C_24
REMARK                            x       y       z     vdW  Elec       q    Type
REMARK                         _______ _______ _______ _____ _____    ______ ____
ROOT
ATOM      1  C   UNL     1      -1.050  14.390  23.691  0.00  0.00    +0.000 A 
ATOM      2  C   UNL     1       0.123  14.192  22.969  0.00  0.00    +0.000 A 
ATOM      3  C   UNL     1       0.080  13.585  21.733  0.00  0.00    +0.000 A 
ATOM      4  C   UNL     1      -1.150  13.149  21.177  0.00  0.00    +0.000 A 
ATOM      5  C   UNL     1      -2.388  13.312  21.872  0.00  0.00    +0.000 A 
ATOM      6  C   UNL     1      -2.302  13.939  23.164  0.00  0.00    +0.000 A 
ATOM      7  C   UNL     1      -3.674  12.869  21.178  0.00  0.00    +0.000 A 
ATOM      8  C   UNL     1      -4.936  12.666  21.771  0.00  0.00    +0.000 A 
ATOM      9  C   UNL     1      -5.994  12.154  21.006  0.00  0.00    +0.000 A 
ATOM     10  C   UNL     1      -5.888  11.935  19.660  0.00  0.00    +0.000 A 
ATOM     11  C   UNL     1      -4.720  12.161  19.005  0.00  0.00    +0.000 A 
ATOM     12  C   UNL     1      -3.613  12.499  19.805  0.00  0.00    +0.000 A 
ATOM     13  C   UNL     1      -2.336  11.915  19.299  0.00  0.00    +0.000 C 
ATOM     14  C   UNL     1      -1.046  12.559  19.763  0.00  0.00    +0.000 C 
ATOM     15  N   UNL     1       0.125  11.546  19.723  0.00  0.00    +0.000 N 
ATOM     16  C   UNL     1       0.044  10.334  19.006  0.00  0.00    +0.000 C 
ATOM     17  O   UNL     1      -0.946  10.016  18.338  0.00  0.00    +0.000 OA
ATOM     18  C   UNL     1       1.347  11.962  20.411  0.00  0.00    +0.000 C 
ATOM     19  C   UNL     1       1.356  13.379  20.958  0.00  0.00    +0.000 C 
ATOM     20  O   UNL     1      -6.970  11.338  19.106  0.00  0.00    +0.000 OA
ATOM     21  C   UNL     1      -7.807  11.208  20.267  0.00  0.00    +0.000 C 
ATOM     22  O   UNL     1      -7.202  11.728  21.475  0.00  0.00    +0.000 OA
ENDROOT
BRANCH  16  23
ATOM     23  C   UNL     1       1.165   9.321  18.934  0.00  0.00    +0.000 A 
ATOM     24  C   UNL     1       2.083   9.159  17.892  0.00  0.00    +0.000 A 
ATOM     25  C   UNL     1       2.910   8.034  17.831  0.00  0.00    +0.000 A 
ATOM     26  C   UNL     1       2.916   7.109  18.871  0.00  0.00    +0.000 A 
ATOM     27  C   UNL     1       2.139   7.345  19.998  0.00  0.00    +0.000 A 
ATOM     28  C   UNL     1       1.276   8.441  20.029  0.00  0.00    +0.000 A 
ENDBRANCH  16  23
BRANCH   1  30
ATOM     29  C   UNL     1      -0.576  16.359  24.978  0.00  0.00    +0.000 C 
ATOM     30  O   UNL     1      -0.988  14.988  24.928  0.00  0.00    +0.000 OA
ENDBRANCH   1  30
BRANCH   6  31
ATOM     31  O   UNL     1      -3.510  14.100  23.811  0.00  0.00    +0.000 OA
ATOM     32  C   UNL     1      -4.087  15.394  23.938  0.00  0.00    +0.000 C 
ENDBRANCH   6  31
BRANCH  14  33
ATOM     33  C   UNL     1      -0.771  13.691  18.787  0.00  0.00    +0.000 C 
ATOM     34  N   UNL     1      -0.542  14.631  17.977  0.00  0.00    +0.000 NA
ENDBRANCH  14  33
TORSDOF 4
ENDMDL
MODEL 8
REMARK VINA RESULT:      -6.5      2.123      2.438
REMARK  Name = 
REMARK  6 active torsions:
REMARK  status: ('A' for Active; 'I' for Inactive)
REMARK    1  A    between atoms: C_1  and  O_2
REMARK    2  A    between atoms: O_2  and  C_3
REMARK    3  A    between atoms: C_8  and  O_9
REMARK    4  A    between atoms: O_9  and  C_10
REMARK    5  A    between atoms: C_18  and  C_19
REMARK    6  A    between atoms: C_22  and  C_24
REMARK                            x       y       z     vdW  Elec       q    Type
REMARK                         _______ _______ _______ _____ _____    ______ ____
ROOT
ATOM      1  C   UNL     1      -2.625  11.521  17.542  0.00  0.00    +0.000 A 
ATOM      2  C   UNL     1      -1.289  11.789  17.826  0.00  0.00    +0.000 A 
ATOM      3  C   UNL     1      -0.930  12.280  19.063  0.00  0.00    +0.000 A 
ATOM      4  C   UNL     1      -1.907  12.526  20.062  0.00  0.00    +0.000 A 
ATOM      5  C   UNL     1      -3.296  12.284  19.829  0.00  0.00    +0.000 A 
ATOM      6  C   UNL     1      -3.634  11.783  18.524  0.00  0.00    +0.000 A 
ATOM      7  C   UNL     1      -4.276  12.519  20.977  0.00  0.00    +0.000 A 
ATOM      8  C   UNL     1      -5.678  12.628  20.892  0.00  0.00    +0.000 A 
ATOM      9  C   UNL     1      -6.425  12.951  22.034  0.00  0.00    +0.000 A 
ATOM     10  C   UNL     1      -5.858  13.066  23.273  0.00  0.00    +0.000 A 
ATOM     11  C   UNL     1      -4.520  12.918  23.446  0.00  0.00    +0.000 A 
ATOM     12  C   UNL     1      -3.753  12.776  22.276  0.00  0.00    +0.000 A 
ATOM     13  C   UNL     1      -2.427  13.455  22.369  0.00  0.00    +0.000 C 
ATOM     14  C   UNL     1      -1.345  13.002  21.410  0.00  0.00    +0.000 C 
ATOM     15  N   UNL     1      -0.318  14.133  21.159  0.00  0.00    +0.000 N 
ATOM     16  C   UNL     1      -0.226  15.264  21.998  0.00  0.00    +0.000 C 
ATOM     17  O   UNL     1      -0.931  15.410  23.002  0.00  0.00    +0.000 OA
ATOM     18  C   UNL     1       0.602  13.918  20.042  0.00  0.00    +0.000 C 
ATOM     19  C   UNL     1       0.520  12.562  19.362  0.00  0.00    +0.000 C 
ATOM     20  O   UNL     1      -6.710  13.488  24.237  0.00  0.00    +0.000 OA
ATOM     21  C   UNL     1      -7.917  13.621  23.467  0.00  0.00    +0.000 C 
ATOM     22  O   UNL     1      -7.749  13.277  22.071  0.00  0.00    +0.000 OA
ENDROOT
BRANCH  16  23
ATOM     23  C   UNL     1       0.766  16.387  21.793  0.00  0.00    +0.000 A 
ATOM     24  C   UNL     1       0.651  17.453  20.896  0.00  0.00    +0.000 A 
ATOM     25  C   UNL     1       1.743  18.284  20.624  0.00  0.00    +0.000 A 
ATOM     26  C   UNL     1       2.932  18.135  21.331  0.00  0.00    +0.000 A 
ATOM     27  C   UNL     1       3.007  17.194  22.350  0.00  0.00    +0.000 A 
ATOM     28  C   UNL     1       1.934  16.332  22.580  0.00  0.00    +0.000 A 
ENDBRANCH  16  23
BRANCH   1  30
ATOM     29  C   UNL     1      -3.023   9.619  16.135  0.00  0.00    +0.000 C 
ATOM     30  O   UNL     1      -2.967  11.042  16.300  0.00  0.00    +0.000 OA
ENDBRANCH   1  30
BRANCH   6  31
ATOM     31  O   UNL     1      -4.978  11.542  18.326  0.00  0.00    +0.000 OA
ATOM     32  C   UNL     1      -5.690  12.248  17.317  0.00  0.00    +0.000 C 
ENDBRANCH   6  31
BRANCH  14  33
ATOM     33  C   UNL     1      -0.654  11.829  22.086  0.00  0.00    +0.000 C 
ATOM     34  N   UNL     1      -0.080  10.857  22.647  0.00  0.00    +0.000 NA
ENDBRANCH  14  33
TORSDOF 4
ENDMDL
MODEL 9
REMARK VINA RESULT:      -6.4      1.777      2.089
REMARK  Name = 
REMARK  6 active torsions:
REMARK  status: ('A' for Active; 'I' for Inactive)
REMARK    1  A    between atoms: C_1  and  O_2
REMARK    2  A    between atoms: O_2  and  C_3
REMARK    3  A    between atoms: C_8  and  O_9
REMARK    4  A    between atoms: O_9  and  C_10
REMARK    5  A    between atoms: C_18  and  C_19
REMARK    6  A    between atoms: C_22  and  C_24
REMARK                            x       y       z     vdW  Elec       q    Type
REMARK                         _______ _______ _______ _____ _____    ______ ____
ROOT
ATOM      1  C   UNL     1      -2.597  11.451  17.605  0.00  0.00    +0.000 A 
ATOM      2  C   UNL     1      -1.241  11.402  17.913  0.00  0.00    +0.000 A 
ATOM      3  C   UNL     1      -0.800  11.798  19.157  0.00  0.00    +0.000 A 
ATOM      4  C   UNL     1      -1.710  12.265  20.140  0.00  0.00    +0.000 A 
ATOM      5  C   UNL     1      -3.112  12.351  19.883  0.00  0.00    +0.000 A 
ATOM      6  C   UNL     1      -3.535  11.940  18.571  0.00  0.00    +0.000 A 
ATOM      7  C   UNL     1      -4.031  12.808  21.015  0.00  0.00    +0.000 A 
ATOM      8  C   UNL     1      -5.368  13.239  20.906  0.00  0.00    +0.000 A 
ATOM      9  C   UNL     1      -6.040  13.728  22.036  0.00  0.00    +0.000 A 
ATOM     10  C   UNL     1      -5.483  13.709  23.285  0.00  0.00    +0.000 A 
ATOM     11  C   UNL     1      -4.219  13.256  23.481  0.00  0.00    +0.000 A 
ATOM     12  C   UNL     1      -3.486  12.938  22.323  0.00  0.00    +0.000 A 
ATOM     13  C   UNL     1      -2.039  13.292  22.440  0.00  0.00    +0.000 C 
ATOM     14  C   UNL     1      -1.076  12.599  21.499  0.00  0.00    +0.000 C 
ATOM     15  N   UNL     1       0.189  13.461  21.268  0.00  0.00    +0.000 N 
ATOM     16  C   UNL     1       0.526  14.540  22.112  0.00  0.00    +0.000 C 
ATOM     17  O   UNL     1      -0.142  14.847  23.105  0.00  0.00    +0.000 OA
ATOM     18  C   UNL     1       1.053  13.037  20.167  0.00  0.00    +0.000 C 
ATOM     19  C   UNL     1       0.671  11.736  19.481  0.00  0.00    +0.000 C 
ATOM     20  O   UNL     1      -6.230  14.319  24.236  0.00  0.00    +0.000 OA
ATOM     21  C   UNL     1      -7.360  14.726  23.446  0.00  0.00    +0.000 C 
ATOM     22  O   UNL     1      -7.252  14.352  22.052  0.00  0.00    +0.000 OA
ENDROOT
BRANCH  16  23
ATOM     23  C   UNL     1       1.755  15.402  21.927  0.00  0.00    +0.000 A 
ATOM     24  C   UNL     1       3.087  15.006  22.080  0.00  0.00    +0.000 A 
ATOM     25  C   UNL     1       4.117  15.950  22.126  0.00  0.00    +0.000 A 
ATOM     26  C   UNL     1       3.846  17.296  21.903  0.00  0.00    +0.000 A 
ATOM     27  C   UNL     1       2.554  17.687  21.574  0.00  0.00    +0.000 A 
ATOM     28  C   UNL     1       1.522  16.748  21.584  0.00  0.00    +0.000 A 
ENDBRANCH  16  23
BRANCH   1  30
ATOM     29  C   UNL     1      -2.804   9.696  15.982  0.00  0.00    +0.000 C 
ATOM     30  O   UNL     1      -3.020  11.062  16.356  0.00  0.00    +0.000 OA
ENDBRANCH   1  30
BRANCH   6  31
ATOM     31  O   UNL     1      -4.895  12.017  18.349  0.00  0.00    +0.000 OA
ATOM     32  C   UNL     1      -5.675  10.831  18.270  0.00  0.00    +0.000 C 
ENDBRANCH   6  31
BRANCH  14  33
ATOM     33  C   UNL     1      -0.687  11.298  22.183  0.00  0.00    +0.000 C 
ATOM     34  N   UNL     1      -0.364  10.220  22.751  0.00  0.00    +0.000 NA
ENDBRANCH  14  33
TORSDOF 4
ENDMDL
