MODEL 1
REMARK VINA RESULT:      -7.4      0.000      0.000
REMARK  Name = 
REMARK  3 active torsions:
REMARK  status: ('A' for Active; 'I' for Inactive)
REMARK    1  A    between atoms: C_2  and  C_11
REMARK    2  A    between atoms: N_3  and  C_4
REMARK    3  A    between atoms: C_4  and  C_5
REMARK                            x       y       z     vdW  Elec       q    Type
REMARK                         _______ _______ _______ _____ _____    ______ ____
ROOT
ATOM      1  O   UNL     1       5.373   5.394  19.163  0.00  0.00    +0.000 OA
ATOM      2  C   UNL     1       5.539   4.469  18.372  0.00  0.00    +0.000 C 
ATOM      3  N   UNL     1       5.256   3.165  18.682  0.00  0.00    +0.000 N 
ATOM      4  H   UNL     1       5.356   2.422  18.008  0.00  0.00    +0.000 HD
ENDROOT
BRANCH   2   5
ATOM      5  C   UNL     1       6.122   4.725  17.011  0.00  0.00    +0.000 A 
ATOM      6  C   UNL     1       5.698   3.915  15.892  0.00  0.00    +0.000 A 
ATOM      7  C   UNL     1       6.200   4.108  14.668  0.00  0.00    +0.000 A 
ATOM      8  C   UNL     1       7.208   5.157  14.419  0.00  0.00    +0.000 A 
ATOM      9  O   UNL     1       7.650   5.341  13.291  0.00  0.00    +0.000 OA
ATOM     10  O   UNL     1       7.614   5.892  15.501  0.00  0.00    +0.000 OA
ATOM     11  C   UNL     1       7.062   5.649  16.775  0.00  0.00    +0.000 A 
ENDBRANCH   2   5
BRANCH   3  12
ATOM     12  C   UNL     1       4.676   2.796  19.958  0.00  0.00    +0.000 C 
BRANCH  12  13
ATOM     13  C   UNL     1       3.165   2.817  19.932  0.00  0.00    +0.000 A 
ATOM     14  C   UNL     1       2.448   3.193  21.067  0.00  0.00    +0.000 A 
ATOM     15  C   UNL     1       1.058   3.188  21.020  0.00  0.00    +0.000 A 
ATOM     16  C   UNL     1       0.420   2.821  19.843  0.00  0.00    +0.000 A 
ATOM     17  C   UNL     1       1.203   2.480  18.753  0.00  0.00    +0.000 A 
ATOM     18  N   UNL     1       2.555   2.475  18.766  0.00  0.00    +0.000 NA
ENDBRANCH  12  13
ENDBRANCH   3  12
TORSDOF 3
ENDMDL
MODEL 2
REMARK VINA RESULT:      -7.0      1.378      1.711
REMARK  Name = 
REMARK  3 active torsions:
REMARK  status: ('A' for Active; 'I' for Inactive)
REMARK    1  A    between atoms: C_2  and  C_11
REMARK    2  A    between atoms: N_3  and  C_4
REMARK    3  A    between atoms: C_4  and  C_5
REMARK                            x       y       z     vdW  Elec       q    Type
REMARK                         _______ _______ _______ _____ _____    ______ ____
ROOT
ATOM      1  O   UNL     1       6.144   4.310  18.923  0.00  0.00    +0.000 OA
ATOM      2  C   UNL     1       5.536   4.891  18.027  0.00  0.00    +0.000 C 
ATOM      3  N   UNL     1       4.340   5.526  18.230  0.00  0.00    +0.000 N 
ATOM      4  H   UNL     1       3.875   6.036  17.496  0.00  0.00    +0.000 HD
ENDROOT
BRANCH   2   5
ATOM      5  C   UNL     1       6.067   4.890  16.622  0.00  0.00    +0.000 A 
ATOM      6  C   UNL     1       5.335   4.194  15.587  0.00  0.00    +0.000 A 
ATOM      7  C   UNL     1       5.780   4.164  14.326  0.00  0.00    +0.000 A 
ATOM      8  C   UNL     1       7.036   4.840  13.949  0.00  0.00    +0.000 A 
ATOM      9  O   UNL     1       7.428   4.824  12.788  0.00  0.00    +0.000 OA
ATOM     10  O   UNL     1       7.725   5.467  14.952  0.00  0.00    +0.000 OA
ATOM     11  C   UNL     1       7.221   5.468  16.269  0.00  0.00    +0.000 A 
ENDBRANCH   2   5
BRANCH   3  12
ATOM     12  C   UNL     1       3.737   5.608  19.546  0.00  0.00    +0.000 C 
BRANCH  12  13
ATOM     13  C   UNL     1       2.682   4.547  19.763  0.00  0.00    +0.000 A 
ATOM     14  C   UNL     1       2.046   3.957  18.672  0.00  0.00    +0.000 A 
ATOM     15  C   UNL     1       1.069   2.994  18.901  0.00  0.00    +0.000 A 
ATOM     16  C   UNL     1       0.759   2.638  20.207  0.00  0.00    +0.000 A 
ATOM     17  C   UNL     1       1.450   3.255  21.235  0.00  0.00    +0.000 A 
ATOM     18  N   UNL     1       2.406   4.194  21.046  0.00  0.00    +0.000 NA
ENDBRANCH  12  13
ENDBRANCH   3  12
TORSDOF 3
ENDMDL
MODEL 3
REMARK VINA RESULT:      -7.0      2.702      6.719
REMARK  Name = 
REMARK  3 active torsions:
REMARK  status: ('A' for Active; 'I' for Inactive)
REMARK    1  A    between atoms: C_2  and  C_11
REMARK    2  A    between atoms: N_3  and  C_4
REMARK    3  A    between atoms: C_4  and  C_5
REMARK                            x       y       z     vdW  Elec       q    Type
REMARK                         _______ _______ _______ _____ _____    ______ ____
ROOT
ATOM      1  O   UNL     1       4.750   6.847  16.986  0.00  0.00    +0.000 OA
ATOM      2  C   UNL     1       4.791   5.666  17.324  0.00  0.00    +0.000 C 
ATOM      3  N   UNL     1       5.822   4.831  16.985  0.00  0.00    +0.000 N 
ATOM      4  H   UNL     1       5.863   3.876  17.306  0.00  0.00    +0.000 HD
ENDROOT
BRANCH   2   5
ATOM      5  C   UNL     1       3.658   5.056  18.100  0.00  0.00    +0.000 A 
ATOM      6  C   UNL     1       2.761   4.133  17.441  0.00  0.00    +0.000 A 
ATOM      7  C   UNL     1       1.738   3.576  18.097  0.00  0.00    +0.000 A 
ATOM      8  C   UNL     1       1.488   3.887  19.517  0.00  0.00    +0.000 A 
ATOM      9  O   UNL     1       0.560   3.358  20.117  0.00  0.00    +0.000 OA
ATOM     10  O   UNL     1       2.335   4.785  20.111  0.00  0.00    +0.000 OA
ATOM     11  C   UNL     1       3.397   5.352  19.379  0.00  0.00    +0.000 A 
ENDBRANCH   2   5
BRANCH   3  12
ATOM     12  C   UNL     1       6.978   5.308  16.251  0.00  0.00    +0.000 C 
BRANCH  12  13
ATOM     13  C   UNL     1       6.950   4.893  14.799  0.00  0.00    +0.000 A 
ATOM     14  C   UNL     1       6.043   3.927  14.363  0.00  0.00    +0.000 A 
ATOM     15  C   UNL     1       6.049   3.552  13.023  0.00  0.00    +0.000 A 
ATOM     16  C   UNL     1       6.948   4.155  12.153  0.00  0.00    +0.000 A 
ATOM     17  C   UNL     1       7.802   5.119  12.660  0.00  0.00    +0.000 A 
ATOM     18  N   UNL     1       7.822   5.507  13.956  0.00  0.00    +0.000 NA
ENDBRANCH  12  13
ENDBRANCH   3  12
TORSDOF 3
ENDMDL
MODEL 4
REMARK VINA RESULT:      -7.0      2.023      2.849
REMARK  Name = 
REMARK  3 active torsions:
REMARK  status: ('A' for Active; 'I' for Inactive)
REMARK    1  A    between atoms: C_2  and  C_11
REMARK    2  A    between atoms: N_3  and  C_4
REMARK    3  A    between atoms: C_4  and  C_5
REMARK                            x       y       z     vdW  Elec       q    Type
REMARK                         _______ _______ _______ _____ _____    ______ ____
ROOT
ATOM      1  O   UNL     1       5.113   3.771  16.745  0.00  0.00    +0.000 OA
ATOM      2  C   UNL     1       5.564   4.246  17.785  0.00  0.00    +0.000 C 
ATOM      3  N   UNL     1       5.366   3.673  19.012  0.00  0.00    +0.000 N 
ATOM      4  H   UNL     1       5.779   4.050  19.851  0.00  0.00    +0.000 HD
ENDROOT
BRANCH   2   5
ATOM      5  C   UNL     1       6.332   5.537  17.761  0.00  0.00    +0.000 A 
ATOM      6  C   UNL     1       7.409   5.741  18.704  0.00  0.00    +0.000 A 
ATOM      7  C   UNL     1       8.110   6.880  18.718  0.00  0.00    +0.000 A 
ATOM      8  C   UNL     1       7.805   7.969  17.771  0.00  0.00    +0.000 A 
ATOM      9  O   UNL     1       8.464   9.003  17.777  0.00  0.00    +0.000 OA
ATOM     10  O   UNL     1       6.763   7.763  16.908  0.00  0.00    +0.000 OA
ATOM     11  C   UNL     1       6.047   6.549  16.932  0.00  0.00    +0.000 A 
ENDBRANCH   2   5
BRANCH   3  12
ATOM     12  C   UNL     1       4.654   2.419  19.160  0.00  0.00    +0.000 C 
BRANCH  12  13
ATOM     13  C   UNL     1       3.237   2.614  19.648  0.00  0.00    +0.000 A 
ATOM     14  C   UNL     1       2.177   2.619  18.743  0.00  0.00    +0.000 A 
ATOM     15  C   UNL     1       0.885   2.815  19.217  0.00  0.00    +0.000 A 
ATOM     16  C   UNL     1       0.681   2.992  20.580  0.00  0.00    +0.000 A 
ATOM     17  C   UNL     1       1.784   2.954  21.416  0.00  0.00    +0.000 A 
ATOM     18  N   UNL     1       3.053   2.764  20.987  0.00  0.00    +0.000 NA
ENDBRANCH  12  13
ENDBRANCH   3  12
TORSDOF 3
ENDMDL
MODEL 5
REMARK VINA RESULT:      -6.9      1.297      1.404
REMARK  Name = 
REMARK  3 active torsions:
REMARK  status: ('A' for Active; 'I' for Inactive)
REMARK    1  A    between atoms: C_2  and  C_11
REMARK    2  A    between atoms: N_3  and  C_4
REMARK    3  A    between atoms: C_4  and  C_5
REMARK                            x       y       z     vdW  Elec       q    Type
REMARK                         _______ _______ _______ _____ _____    ______ ____
ROOT
ATOM      1  O   UNL     1       6.888   4.393  18.504  0.00  0.00    +0.000 OA
ATOM      2  C   UNL     1       6.082   4.779  17.660  0.00  0.00    +0.000 C 
ATOM      3  N   UNL     1       4.823   5.212  17.977  0.00  0.00    +0.000 N 
ATOM      4  H   UNL     1       4.188   5.567  17.278  0.00  0.00    +0.000 HD
ENDROOT
BRANCH   2   5
ATOM      5  C   UNL     1       6.434   4.745  16.199  0.00  0.00    +0.000 A 
ATOM      6  C   UNL     1       5.631   3.955  15.293  0.00  0.00    +0.000 A 
ATOM      7  C   UNL     1       5.918   3.895  13.988  0.00  0.00    +0.000 A 
ATOM      8  C   UNL     1       7.068   4.632  13.430  0.00  0.00    +0.000 A 
ATOM      9  O   UNL     1       7.314   4.587  12.230  0.00  0.00    +0.000 OA
ATOM     10  O   UNL     1       7.829   5.350  14.313  0.00  0.00    +0.000 OA
ATOM     11  C   UNL     1       7.493   5.380  15.682  0.00  0.00    +0.000 A 
ENDBRANCH   2   5
BRANCH   3  12
ATOM     12  C   UNL     1       4.374   5.303  19.353  0.00  0.00    +0.000 C 
BRANCH  12  13
ATOM     13  C   UNL     1       3.191   4.407  19.634  0.00  0.00    +0.000 A 
ATOM     14  C   UNL     1       2.153   4.851  20.452  0.00  0.00    +0.000 A 
ATOM     15  C   UNL     1       1.083   4.000  20.707  0.00  0.00    +0.000 A 
ATOM     16  C   UNL     1       1.069   2.735  20.132  0.00  0.00    +0.000 A 
ATOM     17  C   UNL     1       2.127   2.377  19.314  0.00  0.00    +0.000 A 
ATOM     18  N   UNL     1       3.182   3.181  19.046  0.00  0.00    +0.000 NA
ENDBRANCH  12  13
ENDBRANCH   3  12
TORSDOF 3
ENDMDL
MODEL 6
REMARK VINA RESULT:      -6.9      1.035      1.390
REMARK  Name = 
REMARK  3 active torsions:
REMARK  status: ('A' for Active; 'I' for Inactive)
REMARK    1  A    between atoms: C_2  and  C_11
REMARK    2  A    between atoms: N_3  and  C_4
REMARK    3  A    between atoms: C_4  and  C_5
REMARK                            x       y       z     vdW  Elec       q    Type
REMARK                         _______ _______ _______ _____ _____    ______ ____
ROOT
ATOM      1  O   UNL     1       4.903   5.894  18.065  0.00  0.00    +0.000 OA
ATOM      2  C   UNL     1       5.339   4.850  17.586  0.00  0.00    +0.000 C 
ATOM      3  N   UNL     1       5.334   3.662  18.266  0.00  0.00    +0.000 N 
ATOM      4  H   UNL     1       5.655   2.804  17.844  0.00  0.00    +0.000 HD
ENDROOT
BRANCH   2   5
ATOM      5  C   UNL     1       5.958   4.840  16.217  0.00  0.00    +0.000 A 
ATOM      6  C   UNL     1       5.290   4.143  15.141  0.00  0.00    +0.000 A 
ATOM      7  C   UNL     1       5.814   4.106  13.911  0.00  0.00    +0.000 A 
ATOM      8  C   UNL     1       7.095   4.775  13.612  0.00  0.00    +0.000 A 
ATOM      9  O   UNL     1       7.560   4.752  12.478  0.00  0.00    +0.000 OA
ATOM     10  O   UNL     1       7.721   5.403  14.655  0.00  0.00    +0.000 OA
ATOM     11  C   UNL     1       7.135   5.412  15.936  0.00  0.00    +0.000 A 
ENDBRANCH   2   5
BRANCH   3  12
ATOM     12  C   UNL     1       4.751   3.544  19.588  0.00  0.00    +0.000 C 
BRANCH  12  13
ATOM     13  C   UNL     1       3.262   3.291  19.540  0.00  0.00    +0.000 A 
ATOM     14  C   UNL     1       2.733   2.387  18.620  0.00  0.00    +0.000 A 
ATOM     15  C   UNL     1       1.357   2.184  18.588  0.00  0.00    +0.000 A 
ATOM     16  C   UNL     1       0.547   2.878  19.477  0.00  0.00    +0.000 A 
ATOM     17  C   UNL     1       1.151   3.743  20.373  0.00  0.00    +0.000 A 
ATOM     18  N   UNL     1       2.485   3.962  20.431  0.00  0.00    +0.000 NA
ENDBRANCH  12  13
ENDBRANCH   3  12
TORSDOF 3
ENDMDL
MODEL 7
REMARK VINA RESULT:      -6.8      2.570      6.744
REMARK  Name = 
REMARK  3 active torsions:
REMARK  status: ('A' for Active; 'I' for Inactive)
REMARK    1  A    between atoms: C_2  and  C_11
REMARK    2  A    between atoms: N_3  and  C_4
REMARK    3  A    between atoms: C_4  and  C_5
REMARK                            x       y       z     vdW  Elec       q    Type
REMARK                         _______ _______ _______ _____ _____    ______ ____
ROOT
ATOM      1  O   UNL     1       5.198   6.311  17.907  0.00  0.00    +0.000 OA
ATOM      2  C   UNL     1       5.120   5.089  17.811  0.00  0.00    +0.000 C 
ATOM      3  N   UNL     1       5.968   4.348  17.033  0.00  0.00    +0.000 N 
ATOM      4  H   UNL     1       5.919   3.341  16.999  0.00  0.00    +0.000 HD
ENDROOT
BRANCH   2   5
ATOM      5  C   UNL     1       4.031   4.337  18.523  0.00  0.00    +0.000 A 
ATOM      6  C   UNL     1       2.656   4.750  18.355  0.00  0.00    +0.000 A 
ATOM      7  C   UNL     1       1.660   4.111  18.978  0.00  0.00    +0.000 A 
ATOM      8  C   UNL     1       1.934   2.961  19.862  0.00  0.00    +0.000 A 
ATOM      9  O   UNL     1       1.015   2.368  20.415  0.00  0.00    +0.000 OA
ATOM     10  O   UNL     1       3.246   2.608  20.027  0.00  0.00    +0.000 OA
ATOM     11  C   UNL     1       4.264   3.314  19.355  0.00  0.00    +0.000 A 
ENDBRANCH   2   5
BRANCH   3  12
ATOM     12  C   UNL     1       7.067   4.959  16.311  0.00  0.00    +0.000 C 
BRANCH  12  13
ATOM     13  C   UNL     1       6.994   4.699  14.824  0.00  0.00    +0.000 A 
ATOM     14  C   UNL     1       6.053   3.808  14.313  0.00  0.00    +0.000 A 
ATOM     15  C   UNL     1       6.017   3.576  12.942  0.00  0.00    +0.000 A 
ATOM     16  C   UNL     1       6.912   4.245  12.117  0.00  0.00    +0.000 A 
ATOM     17  C   UNL     1       7.803   5.129  12.700  0.00  0.00    +0.000 A 
ATOM     18  N   UNL     1       7.863   5.378  14.028  0.00  0.00    +0.000 NA
ENDBRANCH  12  13
ENDBRANCH   3  12
TORSDOF 3
ENDMDL
MODEL 8
REMARK VINA RESULT:      -6.8      1.559      1.760
REMARK  Name = 
REMARK  3 active torsions:
REMARK  status: ('A' for Active; 'I' for Inactive)
REMARK    1  A    between atoms: C_2  and  C_11
REMARK    2  A    between atoms: N_3  and  C_4
REMARK    3  A    between atoms: C_4  and  C_5
REMARK                            x       y       z     vdW  Elec       q    Type
REMARK                         _______ _______ _______ _____ _____    ______ ____
ROOT
ATOM      1  O   UNL     1       3.755   3.143  16.920  0.00  0.00    +0.000 OA
ATOM      2  C   UNL     1       4.875   3.539  17.233  0.00  0.00    +0.000 C 
ATOM      3  N   UNL     1       5.346   3.499  18.518  0.00  0.00    +0.000 N 
ATOM      4  H   UNL     1       6.283   3.788  18.753  0.00  0.00    +0.000 HD
ENDROOT
BRANCH   2   5
ATOM      5  C   UNL     1       5.783   4.148  16.203  0.00  0.00    +0.000 A 
ATOM      6  C   UNL     1       5.654   3.752  14.818  0.00  0.00    +0.000 A 
ATOM      7  C   UNL     1       6.449   4.267  13.874  0.00  0.00    +0.000 A 
ATOM      8  C   UNL     1       7.489   5.256  14.216  0.00  0.00    +0.000 A 
ATOM      9  O   UNL     1       8.202   5.737  13.343  0.00  0.00    +0.000 OA
ATOM     10  O   UNL     1       7.611   5.593  15.537  0.00  0.00    +0.000 OA
ATOM     11  C   UNL     1       6.755   5.021  16.499  0.00  0.00    +0.000 A 
ENDBRANCH   2   5
BRANCH   3  12
ATOM     12  C   UNL     1       4.567   2.922  19.596  0.00  0.00    +0.000 C 
BRANCH  12  13
ATOM     13  C   UNL     1       3.338   3.739  19.921  0.00  0.00    +0.000 A 
ATOM     14  C   UNL     1       2.137   3.104  20.235  0.00  0.00    +0.000 A 
ATOM     15  C   UNL     1       1.018   3.880  20.516  0.00  0.00    +0.000 A 
ATOM     16  C   UNL     1       1.126   5.265  20.487  0.00  0.00    +0.000 A 
ATOM     17  C   UNL     1       2.359   5.818  20.186  0.00  0.00    +0.000 A 
ATOM     18  N   UNL     1       3.466   5.092  19.909  0.00  0.00    +0.000 NA
ENDBRANCH  12  13
ENDBRANCH   3  12
TORSDOF 3
ENDMDL
MODEL 9
REMARK VINA RESULT:      -6.7      1.409      1.468
REMARK  Name = 
REMARK  3 active torsions:
REMARK  status: ('A' for Active; 'I' for Inactive)
REMARK    1  A    between atoms: C_2  and  C_11
REMARK    2  A    between atoms: N_3  and  C_4
REMARK    3  A    between atoms: C_4  and  C_5
REMARK                            x       y       z     vdW  Elec       q    Type
REMARK                         _______ _______ _______ _____ _____    ______ ____
ROOT
ATOM      1  O   UNL     1       5.454   3.931  19.359  0.00  0.00    +0.000 OA
ATOM      2  C   UNL     1       5.145   4.793  18.540  0.00  0.00    +0.000 C 
ATOM      3  N   UNL     1       4.114   5.673  18.740  0.00  0.00    +0.000 N 
ATOM      4  H   UNL     1       3.900   6.403  18.078  0.00  0.00    +0.000 HD
ENDROOT
BRANCH   2   5
ATOM      5  C   UNL     1       5.870   4.893  17.228  0.00  0.00    +0.000 A 
ATOM      6  C   UNL     1       5.150   5.318  16.049  0.00  0.00    +0.000 A 
ATOM      7  C   UNL     1       5.760   5.411  14.863  0.00  0.00    +0.000 A 
ATOM      8  C   UNL     1       7.191   5.080  14.717  0.00  0.00    +0.000 A 
ATOM      9  O   UNL     1       7.747   5.186  13.631  0.00  0.00    +0.000 OA
ATOM     10  O   UNL     1       7.843   4.653  15.842  0.00  0.00    +0.000 OA
ATOM     11  C   UNL     1       7.159   4.564  17.071  0.00  0.00    +0.000 A 
ENDBRANCH   2   5
BRANCH   3  12
ATOM     12  C   UNL     1       3.352   5.683  19.972  0.00  0.00    +0.000 C 
BRANCH  12  13
ATOM     13  C   UNL     1       2.397   4.516  20.070  0.00  0.00    +0.000 A 
ATOM     14  C   UNL     1       2.215   3.859  21.286  0.00  0.00    +0.000 A 
ATOM     15  C   UNL     1       1.342   2.778  21.344  0.00  0.00    +0.000 A 
ATOM     16  C   UNL     1       0.667   2.387  20.195  0.00  0.00    +0.000 A 
ATOM     17  C   UNL     1       0.888   3.103  19.031  0.00  0.00    +0.000 A 
ATOM     18  N   UNL     1       1.729   4.159  18.941  0.00  0.00    +0.000 NA
ENDBRANCH  12  13
ENDBRANCH   3  12
TORSDOF 3
ENDMDL
