MODEL 1
REMARK VINA RESULT:      -7.8      0.000      0.000
REMARK  Name = 
REMARK  10 active torsions:
REMARK  status: ('A' for Active; 'I' for Inactive)
REMARK    1  A    between atoms: C_1  and  C_2
REMARK    2  A    between atoms: C_2  and  C_3
REMARK    3  A    between atoms: C_5  and  N_6
REMARK    4  A    between atoms: N_9  and  C_10
REMARK    5  A    between atoms: C_12  and  C_13
REMARK    6  A    between atoms: C_12  and  C_14
REMARK    7  A    between atoms: C_16  and  C_17
REMARK    8  A    between atoms: C_16  and  C_18
REMARK    9  A    between atoms: C_23  and  C_24
REMARK   10  A    between atoms: C_23  and  C_25
REMARK                            x       y       z     vdW  Elec       q    Type
REMARK                         _______ _______ _______ _____ _____    ______ ____
ROOT
ATOM      1  N   UNL     1       0.371   9.909  20.104  0.00  0.00    +0.000 N 
ATOM      2  C   UNL     1       0.805   9.392  18.792  0.00  0.00    +0.000 C 
ATOM      3  C   UNL     1       2.129   8.624  18.936  0.00  0.00    +0.000 C 
ATOM      4  N   UNL     1       1.988   7.566  19.953  0.00  0.00    +0.000 N 
ATOM      5  C   UNL     1       1.541   8.069  21.267  0.00  0.00    +0.000 C 
ATOM      6  C   UNL     1       0.235   8.860  21.131  0.00  0.00    +0.000 C 
ENDROOT
BRANCH   1  11
ATOM      7  C   UNL     1       1.569  14.481  20.355  0.00  0.00    +0.000 C 
ATOM      8  C   UNL     1       0.317  13.709  19.903  0.00  0.00    +0.000 C 
ATOM      9  C   UNL     1      -0.136  14.227  18.527  0.00  0.00    +0.000 C 
ATOM     10  C   UNL     1       0.684  12.258  19.768  0.00  0.00    +0.000 C 
ATOM     11  C   UNL     1       0.031  11.241  20.321  0.00  0.00    +0.000 C 
ATOM     12  C   UNL     1      -1.159  11.489  21.196  0.00  0.00    +0.000 C 
ATOM     13  C   UNL     1      -1.459  12.964  21.548  0.00  0.00    +0.000 C 
ATOM     14  C   UNL     1      -1.167  13.189  23.042  0.00  0.00    +0.000 C 
ATOM     15  C   UNL     1      -2.959  13.194  21.274  0.00  0.00    +0.000 C 
ATOM     16  N   UNL     1      -0.782  14.023  20.801  0.00  0.00    +0.000 NA
ATOM     17  H   UNL     1      -0.561  14.818  21.396  0.00  0.00    +0.000 HD
ENDBRANCH   1  11
BRANCH   4  18
ATOM     18  C   UNL     1       2.337   6.249  19.726  0.00  0.00    +0.000 C 
ATOM     19  C   UNL     1       3.314   5.907  18.877  0.00  0.00    +0.000 C 
ATOM     20  C   UNL     1       3.818   4.523  18.656  0.00  0.00    +0.000 C 
ATOM     21  C   UNL     1       5.285   4.510  19.124  0.00  0.00    +0.000 C 
ATOM     22  C   UNL     1       3.729   4.202  17.157  0.00  0.00    +0.000 C 
ATOM     23  N   UNL     1       3.122   3.447  19.341  0.00  0.00    +0.000 NA
ATOM     24  C   UNL     1       1.999   3.728  20.236  0.00  0.00    +0.000 C 
ATOM     25  C   UNL     1       0.809   2.969  19.619  0.00  0.00    +0.000 C 
ATOM     26  C   UNL     1       2.332   3.100  21.607  0.00  0.00    +0.000 C 
ATOM     27  C   UNL     1       1.579   5.197  20.478  0.00  0.00    +0.000 C 
ATOM     28  H   UNL     1       3.768   2.773  19.738  0.00  0.00    +0.000 HD
ENDBRANCH   4  18
TORSDOF 2
ENDMDL
MODEL 2
REMARK VINA RESULT:      -7.8      0.088      8.732
REMARK  Name = 
REMARK  10 active torsions:
REMARK  status: ('A' for Active; 'I' for Inactive)
REMARK    1  A    between atoms: C_1  and  C_2
REMARK    2  A    between atoms: C_2  and  C_3
REMARK    3  A    between atoms: C_5  and  N_6
REMARK    4  A    between atoms: N_9  and  C_10
REMARK    5  A    between atoms: C_12  and  C_13
REMARK    6  A    between atoms: C_12  and  C_14
REMARK    7  A    between atoms: C_16  and  C_17
REMARK    8  A    between atoms: C_16  and  C_18
REMARK    9  A    between atoms: C_23  and  C_24
REMARK   10  A    between atoms: C_23  and  C_25
REMARK                            x       y       z     vdW  Elec       q    Type
REMARK                         _______ _______ _______ _____ _____    ______ ____
ROOT
ATOM      1  N   UNL     1       2.012   7.582  19.999  0.00  0.00    +0.000 N 
ATOM      2  C   UNL     1       2.137   8.649  18.987  0.00  0.00    +0.000 C 
ATOM      3  C   UNL     1       0.797   9.387  18.827  0.00  0.00    +0.000 C 
ATOM      4  N   UNL     1       0.338   9.885  20.135  0.00  0.00    +0.000 N 
ATOM      5  C   UNL     1       0.221   8.828  21.160  0.00  0.00    +0.000 C 
ATOM      6  C   UNL     1       1.544   8.068  21.309  0.00  0.00    +0.000 C 
ENDROOT
BRANCH   1  11
ATOM      7  C   UNL     1       3.784   4.250  17.141  0.00  0.00    +0.000 C 
ATOM      8  C   UNL     1       3.841   4.527  18.654  0.00  0.00    +0.000 C 
ATOM      9  C   UNL     1       5.300   4.446  19.135  0.00  0.00    +0.000 C 
ATOM     10  C   UNL     1       3.337   5.922  18.895  0.00  0.00    +0.000 C 
ATOM     11  C   UNL     1       2.391   6.263  19.762  0.00  0.00    +0.000 C 
ATOM     12  C   UNL     1       1.695   5.216  20.577  0.00  0.00    +0.000 C 
ATOM     13  C   UNL     1       2.014   3.745  20.224  0.00  0.00    +0.000 C 
ATOM     14  C   UNL     1       0.769   3.105  19.586  0.00  0.00    +0.000 C 
ATOM     15  C   UNL     1       2.343   3.028  21.549  0.00  0.00    +0.000 C 
ATOM     16  N   UNL     1       3.155   3.455  19.356  0.00  0.00    +0.000 NA
ATOM     17  H   UNL     1       2.966   2.667  18.741  0.00  0.00    +0.000 HD
ENDBRANCH   1  11
BRANCH   4  18
ATOM     18  C   UNL     1      -0.043  11.194  20.354  0.00  0.00    +0.000 C 
ATOM     19  C   UNL     1      -1.054  11.516  21.171  0.00  0.00    +0.000 C 
ATOM     20  C   UNL     1      -1.457  12.901  21.539  0.00  0.00    +0.000 C 
ATOM     21  C   UNL     1      -1.217  13.042  23.054  0.00  0.00    +0.000 C 
ATOM     22  C   UNL     1      -2.947  13.081  21.211  0.00  0.00    +0.000 C 
ATOM     23  N   UNL     1      -0.764  13.992  20.874  0.00  0.00    +0.000 NA
ATOM     24  C   UNL     1       0.309  13.727  19.916  0.00  0.00    +0.000 C 
ATOM     25  C   UNL     1      -0.181  14.357  18.598  0.00  0.00    +0.000 C 
ATOM     26  C   UNL     1       1.559  14.494  20.398  0.00  0.00    +0.000 C 
ATOM     27  C   UNL     1       0.728  12.264  19.640  0.00  0.00    +0.000 C 
ATOM     28  H   UNL     1      -0.524  14.736  21.521  0.00  0.00    +0.000 HD
ENDBRANCH   4  18
TORSDOF 2
ENDMDL
MODEL 3
REMARK VINA RESULT:      -7.8      0.078      2.113
REMARK  Name = 
REMARK  10 active torsions:
REMARK  status: ('A' for Active; 'I' for Inactive)
REMARK    1  A    between atoms: C_1  and  C_2
REMARK    2  A    between atoms: C_2  and  C_3
REMARK    3  A    between atoms: C_5  and  N_6
REMARK    4  A    between atoms: N_9  and  C_10
REMARK    5  A    between atoms: C_12  and  C_13
REMARK    6  A    between atoms: C_12  and  C_14
REMARK    7  A    between atoms: C_16  and  C_17
REMARK    8  A    between atoms: C_16  and  C_18
REMARK    9  A    between atoms: C_23  and  C_24
REMARK   10  A    between atoms: C_23  and  C_25
REMARK                            x       y       z     vdW  Elec       q    Type
REMARK                         _______ _______ _______ _____ _____    ______ ____
ROOT
ATOM      1  N   UNL     1       0.301   9.891  20.185  0.00  0.00    +0.000 N 
ATOM      2  C   UNL     1       0.737   9.403  18.863  0.00  0.00    +0.000 C 
ATOM      3  C   UNL     1       2.073   8.651  18.988  0.00  0.00    +0.000 C 
ATOM      4  N   UNL     1       1.951   7.575  19.987  0.00  0.00    +0.000 N 
ATOM      5  C   UNL     1       1.504   8.049  21.312  0.00  0.00    +0.000 C 
ATOM      6  C   UNL     1       0.185   8.823  21.195  0.00  0.00    +0.000 C 
ENDROOT
BRANCH   1  11
ATOM      7  C   UNL     1      -2.956  13.153  21.259  0.00  0.00    +0.000 C 
ATOM      8  C   UNL     1      -1.458  12.972  21.561  0.00  0.00    +0.000 C 
ATOM      9  C   UNL     1      -1.211  13.178  23.066  0.00  0.00    +0.000 C 
ATOM     10  C   UNL     1      -1.074  11.564  21.204  0.00  0.00    +0.000 C 
ATOM     11  C   UNL     1      -0.056  11.215  20.426  0.00  0.00    +0.000 C 
ATOM     12  C   UNL     1       0.804  12.261  19.785  0.00  0.00    +0.000 C 
ATOM     13  C   UNL     1       0.334  13.725  19.938  0.00  0.00    +0.000 C 
ATOM     14  C   UNL     1      -0.137  14.244  18.568  0.00  0.00    +0.000 C 
ATOM     15  C   UNL     1       1.556  14.541  20.407  0.00  0.00    +0.000 C 
ATOM     16  N   UNL     1      -0.712  14.037  20.911  0.00  0.00    +0.000 NA
ATOM     17  H   UNL     1      -1.329  14.772  20.575  0.00  0.00    +0.000 HD
ENDBRANCH   1  11
BRANCH   4  18
ATOM     18  C   UNL     1       2.318   6.267  19.737  0.00  0.00    +0.000 C 
ATOM     19  C   UNL     1       3.309   5.953  18.892  0.00  0.00    +0.000 C 
ATOM     20  C   UNL     1       3.832   4.581  18.649  0.00  0.00    +0.000 C 
ATOM     21  C   UNL     1       5.293   4.573  19.135  0.00  0.00    +0.000 C 
ATOM     22  C   UNL     1       3.764   4.291  17.142  0.00  0.00    +0.000 C 
ATOM     23  N   UNL     1       3.139   3.482  19.301  0.00  0.00    +0.000 NA
ATOM     24  C   UNL     1       2.003   3.731  20.188  0.00  0.00    +0.000 C 
ATOM     25  C   UNL     1       0.829   2.973  19.540  0.00  0.00    +0.000 C 
ATOM     26  C   UNL     1       2.326   3.078  21.549  0.00  0.00    +0.000 C 
ATOM     27  C   UNL     1       1.563   5.190  20.456  0.00  0.00    +0.000 C 
ATOM     28  H   UNL     1       3.788   2.807  19.691  0.00  0.00    +0.000 HD
ENDBRANCH   4  18
TORSDOF 2
ENDMDL
MODEL 4
REMARK VINA RESULT:      -7.8      0.146      8.594
REMARK  Name = 
REMARK  10 active torsions:
REMARK  status: ('A' for Active; 'I' for Inactive)
REMARK    1  A    between atoms: C_1  and  C_2
REMARK    2  A    between atoms: C_2  and  C_3
REMARK    3  A    between atoms: C_5  and  N_6
REMARK    4  A    between atoms: N_9  and  C_10
REMARK    5  A    between atoms: C_12  and  C_13
REMARK    6  A    between atoms: C_12  and  C_14
REMARK    7  A    between atoms: C_16  and  C_17
REMARK    8  A    between atoms: C_16  and  C_18
REMARK    9  A    between atoms: C_23  and  C_24
REMARK   10  A    between atoms: C_23  and  C_25
REMARK                            x       y       z     vdW  Elec       q    Type
REMARK                         _______ _______ _______ _____ _____    ______ ____
ROOT
ATOM      1  N   UNL     1       2.048   7.494  19.968  0.00  0.00    +0.000 N 
ATOM      2  C   UNL     1       2.155   8.551  18.944  0.00  0.00    +0.000 C 
ATOM      3  C   UNL     1       0.820   9.304  18.819  0.00  0.00    +0.000 C 
ATOM      4  N   UNL     1       0.408   9.820  20.136  0.00  0.00    +0.000 N 
ATOM      5  C   UNL     1       0.310   8.772  21.173  0.00  0.00    +0.000 C 
ATOM      6  C   UNL     1       1.628   7.997  21.288  0.00  0.00    +0.000 C 
ENDROOT
BRANCH   1  11
ATOM      7  C   UNL     1       3.738   4.127  17.102  0.00  0.00    +0.000 C 
ATOM      8  C   UNL     1       3.813   4.406  18.614  0.00  0.00    +0.000 C 
ATOM      9  C   UNL     1       5.275   4.302  19.082  0.00  0.00    +0.000 C 
ATOM     10  C   UNL     1       3.335   5.810  18.856  0.00  0.00    +0.000 C 
ATOM     11  C   UNL     1       2.403   6.169  19.731  0.00  0.00    +0.000 C 
ATOM     12  C   UNL     1       1.697   5.135  20.555  0.00  0.00    +0.000 C 
ATOM     13  C   UNL     1       1.988   3.659  20.203  0.00  0.00    +0.000 C 
ATOM     14  C   UNL     1       0.727   3.037  19.578  0.00  0.00    +0.000 C 
ATOM     15  C   UNL     1       2.318   2.939  21.527  0.00  0.00    +0.000 C 
ATOM     16  N   UNL     1       3.116   3.348  19.325  0.00  0.00    +0.000 NA
ATOM     17  H   UNL     1       2.908   2.562  18.714  0.00  0.00    +0.000 HD
ENDBRANCH   1  11
BRANCH   4  18
ATOM     18  C   UNL     1       0.051  11.135  20.355  0.00  0.00    +0.000 C 
ATOM     19  C   UNL     1       0.632  12.150  19.702  0.00  0.00    +0.000 C 
ATOM     20  C   UNL     1       0.234  13.581  19.804  0.00  0.00    +0.000 C 
ATOM     21  C   UNL     1      -0.269  13.998  18.409  0.00  0.00    +0.000 C 
ATOM     22  C   UNL     1       1.468  14.406  20.200  0.00  0.00    +0.000 C 
ATOM     23  N   UNL     1      -0.800  13.915  20.769  0.00  0.00    +0.000 NA
ATOM     24  C   UNL     1      -1.441  12.874  21.572  0.00  0.00    +0.000 C 
ATOM     25  C   UNL     1      -1.137  13.264  23.031  0.00  0.00    +0.000 C 
ATOM     26  C   UNL     1      -2.964  12.980  21.337  0.00  0.00    +0.000 C 
ATOM     27  C   UNL     1      -1.032  11.398  21.358  0.00  0.00    +0.000 C 
ATOM     28  H   UNL     1      -1.472  14.573  20.389  0.00  0.00    +0.000 HD
ENDBRANCH   4  18
TORSDOF 2
ENDMDL
MODEL 5
REMARK VINA RESULT:      -7.8      0.147      8.879
REMARK  Name = 
REMARK  10 active torsions:
REMARK  status: ('A' for Active; 'I' for Inactive)
REMARK    1  A    between atoms: C_1  and  C_2
REMARK    2  A    between atoms: C_2  and  C_3
REMARK    3  A    between atoms: C_5  and  N_6
REMARK    4  A    between atoms: N_9  and  C_10
REMARK    5  A    between atoms: C_12  and  C_13
REMARK    6  A    between atoms: C_12  and  C_14
REMARK    7  A    between atoms: C_16  and  C_17
REMARK    8  A    between atoms: C_16  and  C_18
REMARK    9  A    between atoms: C_23  and  C_24
REMARK   10  A    between atoms: C_23  and  C_25
REMARK                            x       y       z     vdW  Elec       q    Type
REMARK                         _______ _______ _______ _____ _____    ______ ____
ROOT
ATOM      1  N   UNL     1       1.913   7.636  20.080  0.00  0.00    +0.000 N 
ATOM      2  C   UNL     1       2.025   8.686  19.050  0.00  0.00    +0.000 C 
ATOM      3  C   UNL     1       0.687   9.432  18.906  0.00  0.00    +0.000 C 
ATOM      4  N   UNL     1       0.260   9.954  20.217  0.00  0.00    +0.000 N 
ATOM      5  C   UNL     1       0.158   8.913  21.260  0.00  0.00    +0.000 C 
ATOM      6  C   UNL     1       1.478   8.146  21.393  0.00  0.00    +0.000 C 
ENDROOT
BRANCH   1  11
ATOM      7  C   UNL     1       2.333   3.164  21.575  0.00  0.00    +0.000 C 
ATOM      8  C   UNL     1       2.011   3.834  20.228  0.00  0.00    +0.000 C 
ATOM      9  C   UNL     1       0.758   3.181  19.618  0.00  0.00    +0.000 C 
ATOM     10  C   UNL     1       1.715   5.284  20.483  0.00  0.00    +0.000 C 
ATOM     11  C   UNL     1       2.277   6.311  19.855  0.00  0.00    +0.000 C 
ATOM     12  C   UNL     1       3.332   6.079  18.817  0.00  0.00    +0.000 C 
ATOM     13  C   UNL     1       3.834   4.626  18.659  0.00  0.00    +0.000 C 
ATOM     14  C   UNL     1       5.283   4.541  19.170  0.00  0.00    +0.000 C 
ATOM     15  C   UNL     1       3.799   4.301  17.151  0.00  0.00    +0.000 C 
ATOM     16  N   UNL     1       3.079   3.542  19.287  0.00  0.00    +0.000 NA
ATOM     17  H   UNL     1       3.695   2.812  19.636  0.00  0.00    +0.000 HD
ENDBRANCH   1  11
BRANCH   4  18
ATOM     18  C   UNL     1      -0.106  11.269  20.423  0.00  0.00    +0.000 C 
ATOM     19  C   UNL     1      -1.133  11.608  21.213  0.00  0.00    +0.000 C 
ATOM     20  C   UNL     1      -1.525  13.000  21.567  0.00  0.00    +0.000 C 
ATOM     21  C   UNL     1      -1.323  13.140  23.087  0.00  0.00    +0.000 C 
ATOM     22  C   UNL     1      -3.002  13.203  21.199  0.00  0.00    +0.000 C 
ATOM     23  N   UNL     1      -0.798  14.079  20.919  0.00  0.00    +0.000 NA
ATOM     24  C   UNL     1       0.296  13.796  19.990  0.00  0.00    +0.000 C 
ATOM     25  C   UNL     1      -0.148  14.430  18.659  0.00  0.00    +0.000 C 
ATOM     26  C   UNL     1       1.545  14.544  20.505  0.00  0.00    +0.000 C 
ATOM     27  C   UNL     1       0.700  12.326  19.729  0.00  0.00    +0.000 C 
ATOM     28  H   UNL     1      -0.563  14.820  21.572  0.00  0.00    +0.000 HD
ENDBRANCH   4  18
TORSDOF 2
ENDMDL
MODEL 6
REMARK VINA RESULT:      -7.8      0.118      8.742
REMARK  Name = 
REMARK  10 active torsions:
REMARK  status: ('A' for Active; 'I' for Inactive)
REMARK    1  A    between atoms: C_1  and  C_2
REMARK    2  A    between atoms: C_2  and  C_3
REMARK    3  A    between atoms: C_5  and  N_6
REMARK    4  A    between atoms: N_9  and  C_10
REMARK    5  A    between atoms: C_12  and  C_13
REMARK    6  A    between atoms: C_12  and  C_14
REMARK    7  A    between atoms: C_16  and  C_17
REMARK    8  A    between atoms: C_16  and  C_18
REMARK    9  A    between atoms: C_23  and  C_24
REMARK   10  A    between atoms: C_23  and  C_25
REMARK                            x       y       z     vdW  Elec       q    Type
REMARK                         _______ _______ _______ _____ _____    ______ ____
ROOT
ATOM      1  N   UNL     1       1.951   7.526  20.073  0.00  0.00    +0.000 N 
ATOM      2  C   UNL     1       2.108   8.582  19.055  0.00  0.00    +0.000 C 
ATOM      3  C   UNL     1       0.792   9.362  18.892  0.00  0.00    +0.000 C 
ATOM      4  N   UNL     1       0.353   9.883  20.198  0.00  0.00    +0.000 N 
ATOM      5  C   UNL     1       0.204   8.836  21.230  0.00  0.00    +0.000 C 
ATOM      6  C   UNL     1       1.502   8.035  21.382  0.00  0.00    +0.000 C 
ENDROOT
BRANCH   1  11
ATOM      7  C   UNL     1       2.288   3.043  21.556  0.00  0.00    +0.000 C 
ATOM      8  C   UNL     1       1.972   3.722  20.212  0.00  0.00    +0.000 C 
ATOM      9  C   UNL     1       0.703   3.097  19.607  0.00  0.00    +0.000 C 
ATOM     10  C   UNL     1       1.707   5.178  20.472  0.00  0.00    +0.000 C 
ATOM     11  C   UNL     1       2.287   6.194  19.844  0.00  0.00    +0.000 C 
ATOM     12  C   UNL     1       3.332   5.944  18.799  0.00  0.00    +0.000 C 
ATOM     13  C   UNL     1       3.803   4.481  18.636  0.00  0.00    +0.000 C 
ATOM     14  C   UNL     1       5.253   4.366  19.140  0.00  0.00    +0.000 C 
ATOM     15  C   UNL     1       3.753   4.160  17.127  0.00  0.00    +0.000 C 
ATOM     16  N   UNL     1       3.030   3.411  19.265  0.00  0.00    +0.000 NA
ATOM     17  H   UNL     1       3.632   2.668  19.610  0.00  0.00    +0.000 HD
ENDBRANCH   1  11
BRANCH   4  18
ATOM     18  C   UNL     1       0.015  11.205  20.409  0.00  0.00    +0.000 C 
ATOM     19  C   UNL     1       0.628  12.209  19.768  0.00  0.00    +0.000 C 
ATOM     20  C   UNL     1       0.254  13.647  19.862  0.00  0.00    +0.000 C 
ATOM     21  C   UNL     1      -0.212  14.072  18.457  0.00  0.00    +0.000 C 
ATOM     22  C   UNL     1       1.494  14.450  20.283  0.00  0.00    +0.000 C 
ATOM     23  N   UNL     1      -0.794  13.999  20.805  0.00  0.00    +0.000 NA
ATOM     24  C   UNL     1      -1.471  12.971  21.595  0.00  0.00    +0.000 C 
ATOM     25  C   UNL     1      -1.190  13.356  23.059  0.00  0.00    +0.000 C 
ATOM     26  C   UNL     1      -2.986  13.105  21.327  0.00  0.00    +0.000 C 
ATOM     27  C   UNL     1      -1.084  11.488  21.389  0.00  0.00    +0.000 C 
ATOM     28  H   UNL     1      -1.446  14.669  20.410  0.00  0.00    +0.000 HD
ENDBRANCH   4  18
TORSDOF 2
ENDMDL
MODEL 7
REMARK VINA RESULT:      -7.7      0.133      2.990
REMARK  Name = 
REMARK  10 active torsions:
REMARK  status: ('A' for Active; 'I' for Inactive)
REMARK    1  A    between atoms: C_1  and  C_2
REMARK    2  A    between atoms: C_2  and  C_3
REMARK    3  A    between atoms: C_5  and  N_6
REMARK    4  A    between atoms: N_9  and  C_10
REMARK    5  A    between atoms: C_12  and  C_13
REMARK    6  A    between atoms: C_12  and  C_14
REMARK    7  A    between atoms: C_16  and  C_17
REMARK    8  A    between atoms: C_16  and  C_18
REMARK    9  A    between atoms: C_23  and  C_24
REMARK   10  A    between atoms: C_23  and  C_25
REMARK                            x       y       z     vdW  Elec       q    Type
REMARK                         _______ _______ _______ _____ _____    ______ ____
ROOT
ATOM      1  N   UNL     1       0.273   9.879  20.223  0.00  0.00    +0.000 N 
ATOM      2  C   UNL     1       0.730   9.359  18.920  0.00  0.00    +0.000 C 
ATOM      3  C   UNL     1       2.061   8.607  19.087  0.00  0.00    +0.000 C 
ATOM      4  N   UNL     1       1.919   7.555  20.110  0.00  0.00    +0.000 N 
ATOM      5  C   UNL     1       1.451   8.063  21.415  0.00  0.00    +0.000 C 
ATOM      6  C   UNL     1       0.137   8.837  21.256  0.00  0.00    +0.000 C 
ENDROOT
BRANCH   1  11
ATOM      7  C   UNL     1      -2.984  13.170  21.206  0.00  0.00    +0.000 C 
ATOM      8  C   UNL     1      -1.486  12.999  21.511  0.00  0.00    +0.000 C 
ATOM      9  C   UNL     1      -1.236  13.249  23.009  0.00  0.00    +0.000 C 
ATOM     10  C   UNL     1      -1.101  11.582  21.195  0.00  0.00    +0.000 C 
ATOM     11  C   UNL     1      -0.085  11.210  20.425  0.00  0.00    +0.000 C 
ATOM     12  C   UNL     1       0.773  12.238  19.752  0.00  0.00    +0.000 C 
ATOM     13  C   UNL     1       0.303  13.705  19.863  0.00  0.00    +0.000 C 
ATOM     14  C   UNL     1      -0.171  14.183  18.479  0.00  0.00    +0.000 C 
ATOM     15  C   UNL     1       1.525  14.536  20.306  0.00  0.00    +0.000 C 
ATOM     16  N   UNL     1      -0.742  14.045  20.829  0.00  0.00    +0.000 NA
ATOM     17  H   UNL     1      -1.360  14.770  20.472  0.00  0.00    +0.000 HD
ENDBRANCH   1  11
BRANCH   4  18
ATOM     18  C   UNL     1       2.287   6.241  19.897  0.00  0.00    +0.000 C 
ATOM     19  C   UNL     1       1.686   5.222  20.526  0.00  0.00    +0.000 C 
ATOM     20  C   UNL     1       1.951   3.779  20.276  0.00  0.00    +0.000 C 
ATOM     21  C   UNL     1       0.646   3.182  19.718  0.00  0.00    +0.000 C 
ATOM     22  C   UNL     1       2.322   3.111  21.609  0.00  0.00    +0.000 C 
ATOM     23  N   UNL     1       3.023   3.452  19.350  0.00  0.00    +0.000 NA
ATOM     24  C   UNL     1       3.775   4.506  18.670  0.00  0.00    +0.000 C 
ATOM     25  C   UNL     1       5.234   4.292  19.113  0.00  0.00    +0.000 C 
ATOM     26  C   UNL     1       3.672   4.241  17.152  0.00  0.00    +0.000 C 
ATOM     27  C   UNL     1       3.393   5.984  18.919  0.00  0.00    +0.000 C 
ATOM     28  H   UNL     1       2.759   2.702  18.720  0.00  0.00    +0.000 HD
ENDBRANCH   4  18
TORSDOF 2
ENDMDL
MODEL 8
REMARK VINA RESULT:      -7.7      0.108      2.115
REMARK  Name = 
REMARK  10 active torsions:
REMARK  status: ('A' for Active; 'I' for Inactive)
REMARK    1  A    between atoms: C_1  and  C_2
REMARK    2  A    between atoms: C_2  and  C_3
REMARK    3  A    between atoms: C_5  and  N_6
REMARK    4  A    between atoms: N_9  and  C_10
REMARK    5  A    between atoms: C_12  and  C_13
REMARK    6  A    between atoms: C_12  and  C_14
REMARK    7  A    between atoms: C_16  and  C_17
REMARK    8  A    between atoms: C_16  and  C_18
REMARK    9  A    between atoms: C_23  and  C_24
REMARK   10  A    between atoms: C_23  and  C_25
REMARK                            x       y       z     vdW  Elec       q    Type
REMARK                         _______ _______ _______ _____ _____    ______ ____
ROOT
ATOM      1  N   UNL     1       0.343   9.920  20.160  0.00  0.00    +0.000 N 
ATOM      2  C   UNL     1       0.806   9.393  18.862  0.00  0.00    +0.000 C 
ATOM      3  C   UNL     1       2.128   8.628  19.042  0.00  0.00    +0.000 C 
ATOM      4  N   UNL     1       1.967   7.579  20.065  0.00  0.00    +0.000 N 
ATOM      5  C   UNL     1       1.492   8.094  21.365  0.00  0.00    +0.000 C 
ATOM      6  C   UNL     1       0.187   8.881  21.194  0.00  0.00    +0.000 C 
ENDROOT
BRANCH   1  11
ATOM      7  C   UNL     1       1.526  14.499  20.374  0.00  0.00    +0.000 C 
ATOM      8  C   UNL     1       0.282  13.718  19.915  0.00  0.00    +0.000 C 
ATOM      9  C   UNL     1      -0.155  14.219  18.527  0.00  0.00    +0.000 C 
ATOM     10  C   UNL     1       0.654  12.267  19.802  0.00  0.00    +0.000 C 
ATOM     11  C   UNL     1      -0.003  11.255  20.357  0.00  0.00    +0.000 C 
ATOM     12  C   UNL     1      -1.205  11.509  21.215  0.00  0.00    +0.000 C 
ATOM     13  C   UNL     1      -1.513  12.987  21.546  0.00  0.00    +0.000 C 
ATOM     14  C   UNL     1      -1.241  13.230  23.041  0.00  0.00    +0.000 C 
ATOM     15  C   UNL     1      -3.011  13.209  21.250  0.00  0.00    +0.000 C 
ATOM     16  N   UNL     1      -0.829  14.040  20.795  0.00  0.00    +0.000 NA
ATOM     17  H   UNL     1      -0.618  14.842  21.384  0.00  0.00    +0.000 HD
ENDBRANCH   1  11
BRANCH   4  18
ATOM     18  C   UNL     1       2.322   6.261  19.858  0.00  0.00    +0.000 C 
ATOM     19  C   UNL     1       1.702   5.249  20.480  0.00  0.00    +0.000 C 
ATOM     20  C   UNL     1       1.955   3.803  20.234  0.00  0.00    +0.000 C 
ATOM     21  C   UNL     1       0.650   3.220  19.660  0.00  0.00    +0.000 C 
ATOM     22  C   UNL     1       2.302   3.132  21.572  0.00  0.00    +0.000 C 
ATOM     23  N   UNL     1       3.035   3.464  19.322  0.00  0.00    +0.000 NA
ATOM     24  C   UNL     1       3.807   4.509  18.650  0.00  0.00    +0.000 C 
ATOM     25  C   UNL     1       5.258   4.279  19.112  0.00  0.00    +0.000 C 
ATOM     26  C   UNL     1       3.720   4.245  17.132  0.00  0.00    +0.000 C 
ATOM     27  C   UNL     1       3.438   5.991  18.894  0.00  0.00    +0.000 C 
ATOM     28  H   UNL     1       2.771   2.716  18.688  0.00  0.00    +0.000 HD
ENDBRANCH   4  18
TORSDOF 2
ENDMDL
MODEL 9
REMARK VINA RESULT:      -7.7      1.719      8.718
REMARK  Name = 
REMARK  10 active torsions:
REMARK  status: ('A' for Active; 'I' for Inactive)
REMARK    1  A    between atoms: C_1  and  C_2
REMARK    2  A    between atoms: C_2  and  C_3
REMARK    3  A    between atoms: C_5  and  N_6
REMARK    4  A    between atoms: N_9  and  C_10
REMARK    5  A    between atoms: C_12  and  C_13
REMARK    6  A    between atoms: C_12  and  C_14
REMARK    7  A    between atoms: C_16  and  C_17
REMARK    8  A    between atoms: C_16  and  C_18
REMARK    9  A    between atoms: C_23  and  C_24
REMARK   10  A    between atoms: C_23  and  C_25
REMARK                            x       y       z     vdW  Elec       q    Type
REMARK                         _______ _______ _______ _____ _____    ______ ____
ROOT
ATOM      1  N   UNL     1       2.535   6.616  18.940  0.00  0.00    +0.000 N 
ATOM      2  C   UNL     1       1.703   6.756  20.150  0.00  0.00    +0.000 C 
ATOM      3  C   UNL     1       1.804   8.188  20.701  0.00  0.00    +0.000 C 
ATOM      4  N   UNL     1       1.454   9.157  19.648  0.00  0.00    +0.000 N 
ATOM      5  C   UNL     1       2.272   9.019  18.426  0.00  0.00    +0.000 C 
ATOM      6  C   UNL     1       2.200   7.587  17.883  0.00  0.00    +0.000 C 
ENDROOT
BRANCH   1  11
ATOM      7  C   UNL     1       6.219   4.740  16.634  0.00  0.00    +0.000 C 
ATOM      8  C   UNL     1       5.756   4.769  18.102  0.00  0.00    +0.000 C 
ATOM      9  C   UNL     1       6.932   5.183  19.003  0.00  0.00    +0.000 C 
ATOM     10  C   UNL     1       4.672   5.801  18.231  0.00  0.00    +0.000 C 
ATOM     11  C   UNL     1       3.478   5.605  18.779  0.00  0.00    +0.000 C 
ATOM     12  C   UNL     1       3.096   4.253  19.302  0.00  0.00    +0.000 C 
ATOM     13  C   UNL     1       4.081   3.099  19.007  0.00  0.00    +0.000 C 
ATOM     14  C   UNL     1       3.434   2.138  17.995  0.00  0.00    +0.000 C 
ATOM     15  C   UNL     1       4.319   2.361  20.341  0.00  0.00    +0.000 C 
ATOM     16  N   UNL     1       5.422   3.417  18.519  0.00  0.00    +0.000 NA
ATOM     17  H   UNL     1       5.749   2.728  17.846  0.00  0.00    +0.000 HD
ENDBRANCH   1  11
BRANCH   4  18
ATOM     18  C   UNL     1       0.523  10.161  19.824  0.00  0.00    +0.000 C 
ATOM     19  C   UNL     1      -0.241  10.610  18.819  0.00  0.00    +0.000 C 
ATOM     20  C   UNL     1      -1.335  11.612  18.950  0.00  0.00    +0.000 C 
ATOM     21  C   UNL     1      -2.642  10.885  18.583  0.00  0.00    +0.000 C 
ATOM     22  C   UNL     1      -1.065  12.763  17.969  0.00  0.00    +0.000 C 
ATOM     23  N   UNL     1      -1.518  12.228  20.253  0.00  0.00    +0.000 NA
ATOM     24  C   UNL     1      -0.681  11.844  21.390  0.00  0.00    +0.000 C 
ATOM     25  C   UNL     1       0.026  13.145  21.812  0.00  0.00    +0.000 C 
ATOM     26  C   UNL     1      -1.624  11.398  22.528  0.00  0.00    +0.000 C 
ATOM     27  C   UNL     1       0.385  10.739  21.200  0.00  0.00    +0.000 C 
ATOM     28  H   UNL     1      -2.499  12.293  20.505  0.00  0.00    +0.000 HD
ENDBRANCH   4  18
TORSDOF 2
ENDMDL
