MODEL 1
REMARK VINA RESULT:      -8.3      0.000      0.000
REMARK  Name = 
REMARK  7 active torsions:
REMARK  status: ('A' for Active; 'I' for Inactive)
REMARK    1  A    between atoms: C_1  and  C_2
REMARK    2  A    between atoms: C_7  and  C_8
REMARK    3  A    between atoms: C_8  and  C_9
REMARK    4  A    between atoms: C_14  and  C_15
REMARK    5  A    between atoms: C_15  and  C_16
REMARK    6  A    between atoms: N_25  and  C_26
REMARK    7  A    between atoms: C_26  and  C_27
REMARK                            x       y       z     vdW  Elec       q    Type
REMARK                         _______ _______ _______ _____ _____    ______ ____
ROOT
ATOM      1  C   UNL     1       4.568   4.737  17.440  0.00  0.00    +0.000 C 
ATOM      2  N   UNL     1       3.258   4.477  16.890  0.00  0.00    +0.000 N 
ATOM      3  C   UNL     1       2.675   3.334  17.338  0.00  0.00    +0.000 C 
ATOM      4  O   UNL     1       1.573   2.950  16.944  0.00  0.00    +0.000 OA
ATOM      5  N   UNL     1       3.472   2.754  18.260  0.00  0.00    +0.000 N 
ATOM      6  C   UNL     1       4.658   3.432  18.323  0.00  0.00    +0.000 C 
ATOM      7  O   UNL     1       5.612   3.104  19.017  0.00  0.00    +0.000 OA
ATOM      8  H   UNL     1       2.815   4.958  16.121  0.00  0.00    +0.000 HD
ENDROOT
BRANCH   1  14
ATOM      9  C   UNL     1       1.895   8.971  18.147  0.00  0.00    +0.000 C 
ATOM     10  O   UNL     1       2.065   9.984  17.470  0.00  0.00    +0.000 OA
ATOM     11  N   UNL     1       2.409   7.729  17.782  0.00  0.00    +0.000 N 
ATOM     12  C   UNL     1       2.188   6.533  18.603  0.00  0.00    +0.000 C 
ATOM     13  C   UNL     1       3.463   6.159  19.347  0.00  0.00    +0.000 C 
ATOM     14  C   UNL     1       4.660   5.990  18.378  0.00  0.00    +0.000 C 
ATOM     15  C   UNL     1       4.815   7.350  17.650  0.00  0.00    +0.000 C 
ATOM     16  C   UNL     1       3.559   7.747  16.875  0.00  0.00    +0.000 C 
BRANCH   9  17
ATOM     17  C   UNL     1       1.215   9.035  19.496  0.00  0.00    +0.000 C 
BRANCH  17  24
ATOM     18  C   UNL     1      -1.440   9.923  18.020  0.00  0.00    +0.000 C 
ATOM     19  C   UNL     1      -0.785  10.679  19.145  0.00  0.00    +0.000 A 
ATOM     20  C   UNL     1      -1.423  11.865  19.557  0.00  0.00    +0.000 A 
ATOM     21  C   UNL     1      -0.913  12.649  20.587  0.00  0.00    +0.000 A 
ATOM     22  C   UNL     1       0.245  12.257  21.240  0.00  0.00    +0.000 A 
ATOM     23  C   UNL     1       0.883  11.079  20.858  0.00  0.00    +0.000 A 
ATOM     24  C   UNL     1       0.386  10.265  19.814  0.00  0.00    +0.000 A 
ENDBRANCH  17  24
ENDBRANCH   9  17
ENDBRANCH   1  14
BRANCH   1  25
ATOM     25  C   UNL     1       5.569   4.774  16.301  0.00  0.00    +0.000 A 
ATOM     26  C   UNL     1       5.324   4.168  15.072  0.00  0.00    +0.000 A 
ATOM     27  C   UNL     1       6.225   4.316  14.021  0.00  0.00    +0.000 A 
ATOM     28  C   UNL     1       7.390   5.025  14.250  0.00  0.00    +0.000 A 
ATOM     29  N   UNL     1       7.714   5.555  15.455  0.00  0.00    +0.000 NA
ATOM     30  C   UNL     1       6.814   5.419  16.433  0.00  0.00    +0.000 A 
ENDBRANCH   1  25
BRANCH   5  31
ATOM     31  C   UNL     1       3.089   1.618  19.079  0.00  0.00    +0.000 C 
BRANCH  31  32
ATOM     32  C   UNL     1       2.207   1.951  20.291  0.00  0.00    +0.000 C 
ATOM     33  C   UNL     1       1.037   2.871  19.982  0.00  0.00    +0.000 C 
ATOM     34  C   UNL     1       0.990   3.846  21.131  0.00  0.00    +0.000 C 
ATOM     35  C   UNL     1       2.358   3.775  21.767  0.00  0.00    +0.000 C 
ATOM     36  O   UNL     1       3.015   2.599  21.291  0.00  0.00    +0.000 OA
ENDBRANCH  31  32
ENDBRANCH   5  31
TORSDOF 6
ENDMDL
MODEL 2
REMARK VINA RESULT:      -8.1      0.503      1.280
REMARK  Name = 
REMARK  7 active torsions:
REMARK  status: ('A' for Active; 'I' for Inactive)
REMARK    1  A    between atoms: C_1  and  C_2
REMARK    2  A    between atoms: C_7  and  C_8
REMARK    3  A    between atoms: C_8  and  C_9
REMARK    4  A    between atoms: C_14  and  C_15
REMARK    5  A    between atoms: C_15  and  C_16
REMARK    6  A    between atoms: N_25  and  C_26
REMARK    7  A    between atoms: C_26  and  C_27
REMARK                            x       y       z     vdW  Elec       q    Type
REMARK                         _______ _______ _______ _____ _____    ______ ____
ROOT
ATOM      1  C   UNL     1       4.533   4.645  17.519  0.00  0.00    +0.000 C 
ATOM      2  N   UNL     1       3.240   4.414  16.918  0.00  0.00    +0.000 N 
ATOM      3  C   UNL     1       2.607   3.294  17.355  0.00  0.00    +0.000 C 
ATOM      4  O   UNL     1       1.511   2.937  16.920  0.00  0.00    +0.000 OA
ATOM      5  N   UNL     1       3.349   2.703  18.315  0.00  0.00    +0.000 N 
ATOM      6  C   UNL     1       4.550   3.349  18.419  0.00  0.00    +0.000 C 
ATOM      7  O   UNL     1       5.465   3.003  19.156  0.00  0.00    +0.000 OA
ATOM      8  H   UNL     1       2.843   4.899  16.126  0.00  0.00    +0.000 HD
ENDROOT
BRANCH   1  14
ATOM      9  C   UNL     1       2.083   9.048  17.936  0.00  0.00    +0.000 C 
ATOM     10  O   UNL     1       2.375  10.036  17.264  0.00  0.00    +0.000 OA
ATOM     11  N   UNL     1       2.546   7.771  17.632  0.00  0.00    +0.000 N 
ATOM     12  C   UNL     1       2.180   6.605  18.446  0.00  0.00    +0.000 C 
ATOM     13  C   UNL     1       3.359   6.167  19.303  0.00  0.00    +0.000 C 
ATOM     14  C   UNL     1       4.623   5.906  18.445  0.00  0.00    +0.000 C 
ATOM     15  C   UNL     1       4.926   7.240  17.717  0.00  0.00    +0.000 C 
ATOM     16  C   UNL     1       3.770   7.701  16.830  0.00  0.00    +0.000 C 
BRANCH   9  17
ATOM     17  C   UNL     1       1.293   9.179  19.219  0.00  0.00    +0.000 C 
BRANCH  17  24
ATOM     18  C   UNL     1       0.339  11.062  21.576  0.00  0.00    +0.000 C 
ATOM     19  C   UNL     1      -0.379  10.892  20.264  0.00  0.00    +0.000 A 
ATOM     20  C   UNL     1      -1.559  11.641  20.095  0.00  0.00    +0.000 A 
ATOM     21  C   UNL     1      -2.310  11.568  18.925  0.00  0.00    +0.000 A 
ATOM     22  C   UNL     1      -1.888  10.751  17.889  0.00  0.00    +0.000 A 
ATOM     23  C   UNL     1      -0.715  10.012  18.030  0.00  0.00    +0.000 A 
ATOM     24  C   UNL     1       0.065  10.069  19.208  0.00  0.00    +0.000 A 
ENDBRANCH  17  24
ENDBRANCH   9  17
ENDBRANCH   1  14
BRANCH   1  25
ATOM     25  C   UNL     1       5.580   4.639  16.421  0.00  0.00    +0.000 A 
ATOM     26  C   UNL     1       5.251   4.495  15.076  0.00  0.00    +0.000 A 
ATOM     27  C   UNL     1       6.235   4.600  14.096  0.00  0.00    +0.000 A 
ATOM     28  C   UNL     1       7.545   4.790  14.496  0.00  0.00    +0.000 A 
ATOM     29  N   UNL     1       7.925   4.845  15.796  0.00  0.00    +0.000 NA
ATOM     30  C   UNL     1       6.953   4.769  16.710  0.00  0.00    +0.000 A 
ENDBRANCH   1  25
BRANCH   5  31
ATOM     31  C   UNL     1       2.900   1.589  19.131  0.00  0.00    +0.000 C 
BRANCH  31  32
ATOM     32  C   UNL     1       2.065   1.971  20.361  0.00  0.00    +0.000 C 
ATOM     33  C   UNL     1       0.952   2.967  20.081  0.00  0.00    +0.000 C 
ATOM     34  C   UNL     1       0.991   3.936  21.235  0.00  0.00    +0.000 C 
ATOM     35  C   UNL     1       2.363   3.773  21.843  0.00  0.00    +0.000 C 
ATOM     36  O   UNL     1       2.933   2.559  21.348  0.00  0.00    +0.000 OA
ENDBRANCH  31  32
ENDBRANCH   5  31
TORSDOF 6
ENDMDL
MODEL 3
REMARK VINA RESULT:      -7.5      4.711     11.276
REMARK  Name = 
REMARK  7 active torsions:
REMARK  status: ('A' for Active; 'I' for Inactive)
REMARK    1  A    between atoms: C_1  and  C_2
REMARK    2  A    between atoms: C_7  and  C_8
REMARK    3  A    between atoms: C_8  and  C_9
REMARK    4  A    between atoms: C_14  and  C_15
REMARK    5  A    between atoms: C_15  and  C_16
REMARK    6  A    between atoms: N_25  and  C_26
REMARK    7  A    between atoms: C_26  and  C_27
REMARK                            x       y       z     vdW  Elec       q    Type
REMARK                         _______ _______ _______ _____ _____    ______ ____
ROOT
ATOM      1  C   UNL     1      -0.931  14.358  21.430  0.00  0.00    +0.000 C 
ATOM      2  N   UNL     1      -1.238  14.773  20.080  0.00  0.00    +0.000 N 
ATOM      3  C   UNL     1      -0.387  15.701  19.569  0.00  0.00    +0.000 C 
ATOM      4  O   UNL     1      -0.527  16.183  18.444  0.00  0.00    +0.000 OA
ATOM      5  N   UNL     1       0.592  15.956  20.463  0.00  0.00    +0.000 N 
ATOM      6  C   UNL     1       0.316  15.304  21.633  0.00  0.00    +0.000 C 
ATOM      7  O   UNL     1       0.984  15.397  22.655  0.00  0.00    +0.000 OA
ATOM      8  H   UNL     1      -2.074  14.564  19.556  0.00  0.00    +0.000 HD
ENDROOT
BRANCH   1  14
ATOM      9  C   UNL     1       0.050  10.507  18.304  0.00  0.00    +0.000 C 
ATOM     10  O   UNL     1      -0.827   9.754  17.883  0.00  0.00    +0.000 OA
ATOM     11  N   UNL     1      -0.237  11.723  18.919  0.00  0.00    +0.000 N 
ATOM     12  C   UNL     1       0.827  12.607  19.409  0.00  0.00    +0.000 C 
ATOM     13  C   UNL     1       0.904  12.552  20.929  0.00  0.00    +0.000 C 
ATOM     14  C   UNL     1      -0.466  12.869  21.581  0.00  0.00    +0.000 C 
ATOM     15  C   UNL     1      -1.455  11.809  21.031  0.00  0.00    +0.000 C 
ATOM     16  C   UNL     1      -1.572  11.850  19.508  0.00  0.00    +0.000 C 
BRANCH   9  17
ATOM     17  C   UNL     1       1.506  10.099  18.289  0.00  0.00    +0.000 C 
BRANCH  17  24
ATOM     18  C   UNL     1       0.989   8.896  21.171  0.00  0.00    +0.000 C 
ATOM     19  C   UNL     1       1.647   8.160  20.035  0.00  0.00    +0.000 A 
ATOM     20  C   UNL     1       2.050   6.837  20.297  0.00  0.00    +0.000 A 
ATOM     21  C   UNL     1       2.669   6.055  19.326  0.00  0.00    +0.000 A 
ATOM     22  C   UNL     1       2.888   6.577  18.061  0.00  0.00    +0.000 A 
ATOM     23  C   UNL     1       2.483   7.880  17.776  0.00  0.00    +0.000 A 
ATOM     24  C   UNL     1       1.853   8.694  18.745  0.00  0.00    +0.000 A 
ENDBRANCH  17  24
ENDBRANCH   9  17
ENDBRANCH   1  14
BRANCH   1  25
ATOM     25  C   UNL     1      -2.111  14.704  22.318  0.00  0.00    +0.000 A 
ATOM     26  C   UNL     1      -2.152  14.371  23.669  0.00  0.00    +0.000 A 
ATOM     27  C   UNL     1      -3.208  14.800  24.468  0.00  0.00    +0.000 A 
ATOM     28  C   UNL     1      -4.237  15.509  23.875  0.00  0.00    +0.000 A 
ATOM     29  N   UNL     1      -4.285  15.778  22.547  0.00  0.00    +0.000 NA
ATOM     30  C   UNL     1      -3.242  15.376  21.814  0.00  0.00    +0.000 A 
ENDBRANCH   1  25
BRANCH   5  31
ATOM     31  C   UNL     1       1.769  16.759  20.184  0.00  0.00    +0.000 C 
BRANCH  31  32
ATOM     32  C   UNL     1       2.846  16.070  19.334  0.00  0.00    +0.000 C 
ATOM     33  C   UNL     1       3.736  15.109  20.105  0.00  0.00    +0.000 C 
ATOM     34  C   UNL     1       5.131  15.368  19.594  0.00  0.00    +0.000 C 
ATOM     35  C   UNL     1       5.069  16.733  18.952  0.00  0.00    +0.000 C 
ATOM     36  O   UNL     1       3.697  17.077  18.755  0.00  0.00    +0.000 OA
ENDBRANCH  31  32
ENDBRANCH   5  31
TORSDOF 6
ENDMDL
MODEL 4
REMARK VINA RESULT:      -7.4      5.055     10.193
REMARK  Name = 
REMARK  7 active torsions:
REMARK  status: ('A' for Active; 'I' for Inactive)
REMARK    1  A    between atoms: C_1  and  C_2
REMARK    2  A    between atoms: C_7  and  C_8
REMARK    3  A    between atoms: C_8  and  C_9
REMARK    4  A    between atoms: C_14  and  C_15
REMARK    5  A    between atoms: C_15  and  C_16
REMARK    6  A    between atoms: N_25  and  C_26
REMARK    7  A    between atoms: C_26  and  C_27
REMARK                            x       y       z     vdW  Elec       q    Type
REMARK                         _______ _______ _______ _____ _____    ______ ____
ROOT
ATOM      1  C   UNL     1      -1.693  12.990  21.450  0.00  0.00    +0.000 C 
ATOM      2  N   UNL     1      -0.723  12.346  22.306  0.00  0.00    +0.000 N 
ATOM      3  C   UNL     1      -0.292  11.137  21.860  0.00  0.00    +0.000 C 
ATOM      4  O   UNL     1       0.510  10.444  22.486  0.00  0.00    +0.000 OA
ATOM      5  N   UNL     1      -0.855  10.873  20.661  0.00  0.00    +0.000 N 
ATOM      6  C   UNL     1      -1.777  11.840  20.372  0.00  0.00    +0.000 C 
ATOM      7  O   UNL     1      -2.501  11.838  19.385  0.00  0.00    +0.000 OA
ATOM      8  H   UNL     1      -0.459  12.623  23.240  0.00  0.00    +0.000 HD
ENDROOT
BRANCH   1  14
ATOM      9  C   UNL     1       2.317  16.044  21.841  0.00  0.00    +0.000 C 
ATOM     10  O   UNL     1       2.381  16.953  22.667  0.00  0.00    +0.000 OA
ATOM     11  N   UNL     1       1.365  15.031  21.912  0.00  0.00    +0.000 N 
ATOM     12  C   UNL     1       1.311  13.953  20.917  0.00  0.00    +0.000 C 
ATOM     13  C   UNL     1       0.133  14.159  19.975  0.00  0.00    +0.000 C 
ATOM     14  C   UNL     1      -1.200  14.303  20.753  0.00  0.00    +0.000 C 
ATOM     15  C   UNL     1      -1.015  15.521  21.693  0.00  0.00    +0.000 C 
ATOM     16  C   UNL     1       0.148  15.340  22.668  0.00  0.00    +0.000 C 
BRANCH   9  17
ATOM     17  C   UNL     1       3.201  16.036  20.614  0.00  0.00    +0.000 C 
BRANCH  17  24
ATOM     18  C   UNL     1       4.194  15.430  17.671  0.00  0.00    +0.000 C 
ATOM     19  C   UNL     1       3.109  16.409  18.030  0.00  0.00    +0.000 A 
ATOM     20  C   UNL     1       2.502  17.091  16.958  0.00  0.00    +0.000 A 
ATOM     21  C   UNL     1       1.487  18.021  17.164  0.00  0.00    +0.000 A 
ATOM     22  C   UNL     1       1.045  18.281  18.451  0.00  0.00    +0.000 A 
ATOM     23  C   UNL     1       1.623  17.606  19.525  0.00  0.00    +0.000 A 
ATOM     24  C   UNL     1       2.655  16.658  19.342  0.00  0.00    +0.000 A 
ENDBRANCH  17  24
ENDBRANCH   9  17
ENDBRANCH   1  14
BRANCH   1  25
ATOM     25  C   UNL     1      -2.975  13.182  22.238  0.00  0.00    +0.000 A 
ATOM     26  C   UNL     1      -3.154  12.654  23.514  0.00  0.00    +0.000 A 
ATOM     27  C   UNL     1      -4.306  12.943  24.241  0.00  0.00    +0.000 A 
ATOM     28  C   UNL     1      -5.286  13.713  23.641  0.00  0.00    +0.000 A 
ATOM     29  N   UNL     1      -5.196  14.171  22.368  0.00  0.00    +0.000 NA
ATOM     30  C   UNL     1      -4.066  13.900  21.709  0.00  0.00    +0.000 A 
ENDBRANCH   1  25
BRANCH   5  31
ATOM     31  C   UNL     1      -0.486   9.756  19.809  0.00  0.00    +0.000 C 
BRANCH  31  32
ATOM     32  C   UNL     1       1.004   9.670  19.450  0.00  0.00    +0.000 C 
ATOM     33  C   UNL     1       1.292   9.672  17.958  0.00  0.00    +0.000 C 
ATOM     34  C   UNL     1       2.365   8.631  17.763  0.00  0.00    +0.000 C 
ATOM     35  C   UNL     1       2.304   7.764  18.998  0.00  0.00    +0.000 C 
ATOM     36  O   UNL     1       1.545   8.452  19.993  0.00  0.00    +0.000 OA
ENDBRANCH  31  32
ENDBRANCH   5  31
TORSDOF 6
ENDMDL
MODEL 5
REMARK VINA RESULT:      -7.4      4.477     10.901
REMARK  Name = 
REMARK  7 active torsions:
REMARK  status: ('A' for Active; 'I' for Inactive)
REMARK    1  A    between atoms: C_1  and  C_2
REMARK    2  A    between atoms: C_7  and  C_8
REMARK    3  A    between atoms: C_8  and  C_9
REMARK    4  A    between atoms: C_14  and  C_15
REMARK    5  A    between atoms: C_15  and  C_16
REMARK    6  A    between atoms: N_25  and  C_26
REMARK    7  A    between atoms: C_26  and  C_27
REMARK                            x       y       z     vdW  Elec       q    Type
REMARK                         _______ _______ _______ _____ _____    ______ ____
ROOT
ATOM      1  C   UNL     1      -0.340  14.066  21.428  0.00  0.00    +0.000 C 
ATOM      2  N   UNL     1      -0.656  14.525  20.095  0.00  0.00    +0.000 N 
ATOM      3  C   UNL     1       0.238  15.407  19.576  0.00  0.00    +0.000 C 
ATOM      4  O   UNL     1       0.100  15.918  18.464  0.00  0.00    +0.000 OA
ATOM      5  N   UNL     1       1.255  15.582  20.447  0.00  0.00    +0.000 N 
ATOM      6  C   UNL     1       0.970  14.927  21.613  0.00  0.00    +0.000 C 
ATOM      7  O   UNL     1       1.669  14.958  22.617  0.00  0.00    +0.000 OA
ATOM      8  H   UNL     1      -1.518  14.380  19.591  0.00  0.00    +0.000 HD
ENDROOT
BRANCH   1  14
ATOM      9  C   UNL     1       0.364  10.234  18.206  0.00  0.00    +0.000 C 
ATOM     10  O   UNL     1      -0.562   9.547  17.779  0.00  0.00    +0.000 OA
ATOM     11  N   UNL     1       0.161  11.451  18.852  0.00  0.00    +0.000 N 
ATOM     12  C   UNL     1       1.283  12.256  19.349  0.00  0.00    +0.000 C 
ATOM     13  C   UNL     1       1.372  12.162  20.865  0.00  0.00    +0.000 C 
ATOM     14  C   UNL     1       0.032  12.549  21.541  0.00  0.00    +0.000 C 
ATOM     15  C   UNL     1      -1.026  11.565  20.979  0.00  0.00    +0.000 C 
ATOM     16  C   UNL     1      -1.158  11.647  19.459  0.00  0.00    +0.000 C 
BRANCH   9  17
ATOM     17  C   UNL     1       1.792   9.737  18.165  0.00  0.00    +0.000 C 
BRANCH  17  24
ATOM     18  C   UNL     1       1.185   8.584  21.050  0.00  0.00    +0.000 C 
ATOM     19  C   UNL     1       1.816   7.807  19.926  0.00  0.00    +0.000 A 
ATOM     20  C   UNL     1       2.149   6.467  20.203  0.00  0.00    +0.000 A 
ATOM     21  C   UNL     1       2.738   5.647  19.244  0.00  0.00    +0.000 A 
ATOM     22  C   UNL     1       2.996   6.148  17.978  0.00  0.00    +0.000 A 
ATOM     23  C   UNL     1       2.661   7.467  17.680  0.00  0.00    +0.000 A 
ATOM     24  C   UNL     1       2.063   8.320  18.636  0.00  0.00    +0.000 A 
ENDBRANCH  17  24
ENDBRANCH   9  17
ENDBRANCH   1  14
BRANCH   1  25
ATOM     25  C   UNL     1      -1.472  14.470  22.355  0.00  0.00    +0.000 A 
ATOM     26  C   UNL     1      -2.651  15.043  21.887  0.00  0.00    +0.000 A 
ATOM     27  C   UNL     1      -3.703  15.301  22.762  0.00  0.00    +0.000 A 
ATOM     28  C   UNL     1      -3.523  15.031  24.106  0.00  0.00    +0.000 A 
ATOM     29  N   UNL     1      -2.360  14.559  24.620  0.00  0.00    +0.000 NA
ATOM     30  C   UNL     1      -1.381  14.296  23.750  0.00  0.00    +0.000 A 
ENDBRANCH   1  25
BRANCH   5  31
ATOM     31  C   UNL     1       2.474  16.314  20.150  0.00  0.00    +0.000 C 
BRANCH  31  32
ATOM     32  C   UNL     1       3.718  15.446  19.914  0.00  0.00    +0.000 C 
ATOM     33  C   UNL     1       5.032  16.209  19.947  0.00  0.00    +0.000 C 
ATOM     34  C   UNL     1       5.840  15.652  18.802  0.00  0.00    +0.000 C 
ATOM     35  C   UNL     1       4.833  14.983  17.896  0.00  0.00    +0.000 C 
ATOM     36  O   UNL     1       3.613  14.821  18.622  0.00  0.00    +0.000 OA
ENDBRANCH  31  32
ENDBRANCH   5  31
TORSDOF 6
ENDMDL
MODEL 6
REMARK VINA RESULT:      -7.2      3.958      7.831
REMARK  Name = 
REMARK  7 active torsions:
REMARK  status: ('A' for Active; 'I' for Inactive)
REMARK    1  A    between atoms: C_1  and  C_2
REMARK    2  A    between atoms: C_7  and  C_8
REMARK    3  A    between atoms: C_8  and  C_9
REMARK    4  A    between atoms: C_14  and  C_15
REMARK    5  A    between atoms: C_15  and  C_16
REMARK    6  A    between atoms: N_25  and  C_26
REMARK    7  A    between atoms: C_26  and  C_27
REMARK                            x       y       z     vdW  Elec       q    Type
REMARK                         _______ _______ _______ _____ _____    ______ ____
ROOT
ATOM      1  C   UNL     1      -0.238  10.929  19.059  0.00  0.00    +0.000 C 
ATOM      2  N   UNL     1      -0.518  10.900  20.476  0.00  0.00    +0.000 N 
ATOM      3  C   UNL     1       0.098   9.896  21.153  0.00  0.00    +0.000 C 
ATOM      4  O   UNL     1      -0.060   9.713  22.361  0.00  0.00    +0.000 OA
ATOM      5  N   UNL     1       0.888   9.201  20.306  0.00  0.00    +0.000 N 
ATOM      6  C   UNL     1       0.688   9.651  19.030  0.00  0.00    +0.000 C 
ATOM      7  O   UNL     1       1.210   9.169  18.033  0.00  0.00    +0.000 OA
ATOM      8  H   UNL     1      -1.217  11.437  20.968  0.00  0.00    +0.000 HD
ENDROOT
BRANCH   1  14
ATOM      9  C   UNL     1       0.826  15.545  20.827  0.00  0.00    +0.000 C 
ATOM     10  O   UNL     1       0.077  16.507  20.664  0.00  0.00    +0.000 OA
ATOM     11  N   UNL     1       0.420  14.232  20.605  0.00  0.00    +0.000 N 
ATOM     12  C   UNL     1       1.330  13.098  20.811  0.00  0.00    +0.000 C 
ATOM     13  C   UNL     1       1.790  12.538  19.473  0.00  0.00    +0.000 C 
ATOM     14  C   UNL     1       0.589  12.165  18.567  0.00  0.00    +0.000 C 
ATOM     15  C   UNL     1      -0.223  13.471  18.378  0.00  0.00    +0.000 C 
ATOM     16  C   UNL     1      -0.720  14.052  19.702  0.00  0.00    +0.000 C 
BRANCH   9  17
ATOM     17  C   UNL     1       2.287  15.738  21.165  0.00  0.00    +0.000 C 
BRANCH  17  24
ATOM     18  C   UNL     1       5.207  14.578  21.543  0.00  0.00    +0.000 C 
ATOM     19  C   UNL     1       4.616  15.015  20.229  0.00  0.00    +0.000 A 
ATOM     20  C   UNL     1       5.444  14.883  19.097  0.00  0.00    +0.000 A 
ATOM     21  C   UNL     1       5.009  15.254  17.828  0.00  0.00    +0.000 A 
ATOM     22  C   UNL     1       3.728  15.753  17.659  0.00  0.00    +0.000 A 
ATOM     23  C   UNL     1       2.889  15.878  18.764  0.00  0.00    +0.000 A 
ATOM     24  C   UNL     1       3.306  15.509  20.064  0.00  0.00    +0.000 A 
ENDBRANCH  17  24
ENDBRANCH   9  17
ENDBRANCH   1  14
BRANCH   1  25
ATOM     25  C   UNL     1      -1.545  10.753  18.309  0.00  0.00    +0.000 A 
ATOM     26  C   UNL     1      -1.633  10.028  17.123  0.00  0.00    +0.000 A 
ATOM     27  C   UNL     1      -2.870   9.805  16.525  0.00  0.00    +0.000 A 
ATOM     28  C   UNL     1      -3.992  10.370  17.103  0.00  0.00    +0.000 A 
ATOM     29  N   UNL     1      -3.944  11.159  18.205  0.00  0.00    +0.000 NA
ATOM     30  C   UNL     1      -2.744  11.329  18.770  0.00  0.00    +0.000 A 
ENDBRANCH   1  25
BRANCH   5  31
ATOM     31  C   UNL     1       1.830   8.176  20.717  0.00  0.00    +0.000 C 
BRANCH  31  32
ATOM     32  C   UNL     1       1.730   6.849  19.951  0.00  0.00    +0.000 C 
ATOM     33  C   UNL     1       1.459   5.637  20.825  0.00  0.00    +0.000 C 
ATOM     34  C   UNL     1       2.360   4.554  20.288  0.00  0.00    +0.000 C 
ATOM     35  C   UNL     1       3.421   5.280  19.495  0.00  0.00    +0.000 C 
ATOM     36  O   UNL     1       2.972   6.616  19.261  0.00  0.00    +0.000 OA
ENDBRANCH  31  32
ENDBRANCH   5  31
TORSDOF 6
ENDMDL
MODEL 7
REMARK VINA RESULT:      -7.1      3.731      9.662
REMARK  Name = 
REMARK  7 active torsions:
REMARK  status: ('A' for Active; 'I' for Inactive)
REMARK    1  A    between atoms: C_1  and  C_2
REMARK    2  A    between atoms: C_7  and  C_8
REMARK    3  A    between atoms: C_8  and  C_9
REMARK    4  A    between atoms: C_14  and  C_15
REMARK    5  A    between atoms: C_15  and  C_16
REMARK    6  A    between atoms: N_25  and  C_26
REMARK    7  A    between atoms: C_26  and  C_27
REMARK                            x       y       z     vdW  Elec       q    Type
REMARK                         _______ _______ _______ _____ _____    ______ ____
ROOT
ATOM      1  C   UNL     1      -0.680  11.554  20.403  0.00  0.00    +0.000 C 
ATOM      2  N   UNL     1      -0.455  11.488  21.828  0.00  0.00    +0.000 N 
ATOM      3  C   UNL     1      -1.473  11.978  22.583  0.00  0.00    +0.000 C 
ATOM      4  O   UNL     1      -1.428  12.024  23.813  0.00  0.00    +0.000 OA
ATOM      5  N   UNL     1      -2.490  12.353  21.778  0.00  0.00    +0.000 N 
ATOM      6  C   UNL     1      -2.095  12.249  20.473  0.00  0.00    +0.000 C 
ATOM      7  O   UNL     1      -2.775  12.585  19.511  0.00  0.00    +0.000 OA
ATOM      8  H   UNL     1       0.410  11.265  22.297  0.00  0.00    +0.000 HD
ENDROOT
BRANCH   1  14
ATOM      9  C   UNL     1       2.444   7.939  18.749  0.00  0.00    +0.000 C 
ATOM     10  O   UNL     1       2.983   7.982  17.644  0.00  0.00    +0.000 OA
ATOM     11  N   UNL     1       1.825   9.044  19.325  0.00  0.00    +0.000 N 
ATOM     12  C   UNL     1       1.192   8.971  20.648  0.00  0.00    +0.000 C 
ATOM     13  C   UNL     1      -0.324   8.958  20.510  0.00  0.00    +0.000 C 
ATOM     14  C   UNL     1      -0.832  10.169  19.687  0.00  0.00    +0.000 C 
ATOM     15  C   UNL     1      -0.143  10.061  18.303  0.00  0.00    +0.000 C 
ATOM     16  C   UNL     1       1.382  10.091  18.401  0.00  0.00    +0.000 C 
BRANCH   9  17
ATOM     17  C   UNL     1       2.313   6.636  19.506  0.00  0.00    +0.000 C 
BRANCH  17  24
ATOM     18  C   UNL     1       5.242   5.457  19.299  0.00  0.00    +0.000 C 
ATOM     19  C   UNL     1       4.018   4.840  18.678  0.00  0.00    +0.000 A 
ATOM     20  C   UNL     1       4.217   3.645  17.958  0.00  0.00    +0.000 A 
ATOM     21  C   UNL     1       3.162   2.981  17.339  0.00  0.00    +0.000 A 
ATOM     22  C   UNL     1       1.877   3.492  17.436  0.00  0.00    +0.000 A 
ATOM     23  C   UNL     1       1.657   4.664  18.155  0.00  0.00    +0.000 A 
ATOM     24  C   UNL     1       2.711   5.358  18.793  0.00  0.00    +0.000 A 
ENDBRANCH  17  24
ENDBRANCH   9  17
ENDBRANCH   1  14
BRANCH   1  25
ATOM     25  C   UNL     1       0.399  12.425  19.787  0.00  0.00    +0.000 A 
ATOM     26  C   UNL     1       0.204  13.128  18.601  0.00  0.00    +0.000 A 
ATOM     27  C   UNL     1       1.184  13.996  18.128  0.00  0.00    +0.000 A 
ATOM     28  C   UNL     1       2.371  14.095  18.832  0.00  0.00    +0.000 A 
ATOM     29  N   UNL     1       2.641  13.362  19.940  0.00  0.00    +0.000 NA
ATOM     30  C   UNL     1       1.668  12.559  20.382  0.00  0.00    +0.000 A 
ENDBRANCH   1  25
BRANCH   5  31
ATOM     31  C   UNL     1      -3.805  12.753  22.247  0.00  0.00    +0.000 C 
BRANCH  31  32
ATOM     32  C   UNL     1      -3.906  14.195  22.764  0.00  0.00    +0.000 C 
ATOM     33  C   UNL     1      -2.781  15.108  22.305  0.00  0.00    +0.000 C 
ATOM     34  C   UNL     1      -2.409  15.917  23.521  0.00  0.00    +0.000 C 
ATOM     35  C   UNL     1      -2.952  15.139  24.695  0.00  0.00    +0.000 C 
ATOM     36  O   UNL     1      -3.887  14.176  24.204  0.00  0.00    +0.000 OA
ENDBRANCH  31  32
ENDBRANCH   5  31
TORSDOF 6
ENDMDL
MODEL 8
REMARK VINA RESULT:      -7.1      2.106      5.120
REMARK  Name = 
REMARK  7 active torsions:
REMARK  status: ('A' for Active; 'I' for Inactive)
REMARK    1  A    between atoms: C_1  and  C_2
REMARK    2  A    between atoms: C_7  and  C_8
REMARK    3  A    between atoms: C_8  and  C_9
REMARK    4  A    between atoms: C_14  and  C_15
REMARK    5  A    between atoms: C_15  and  C_16
REMARK    6  A    between atoms: N_25  and  C_26
REMARK    7  A    between atoms: C_26  and  C_27
REMARK                            x       y       z     vdW  Elec       q    Type
REMARK                         _______ _______ _______ _____ _____    ______ ____
ROOT
ATOM      1  C   UNL     1       3.873   4.516  18.810  0.00  0.00    +0.000 C 
ATOM      2  N   UNL     1       4.909   5.410  19.274  0.00  0.00    +0.000 N 
ATOM      3  C   UNL     1       6.062   5.356  18.558  0.00  0.00    +0.000 C 
ATOM      4  O   UNL     1       7.053   6.030  18.841  0.00  0.00    +0.000 OA
ATOM      5  N   UNL     1       5.913   4.497  17.528  0.00  0.00    +0.000 N 
ATOM      6  C   UNL     1       4.705   3.865  17.638  0.00  0.00    +0.000 C 
ATOM      7  O   UNL     1       4.313   2.978  16.890  0.00  0.00    +0.000 OA
ATOM      8  H   UNL     1       4.915   5.939  20.134  0.00  0.00    +0.000 HD
ENDROOT
BRANCH   1  14
ATOM      9  C   UNL     1       1.436   8.889  19.516  0.00  0.00    +0.000 C 
ATOM     10  O   UNL     1       0.586   9.042  20.393  0.00  0.00    +0.000 OA
ATOM     11  N   UNL     1       2.307   7.803  19.496  0.00  0.00    +0.000 N 
ATOM     12  C   UNL     1       3.316   7.645  18.442  0.00  0.00    +0.000 C 
ATOM     13  C   UNL     1       2.900   6.550  17.471  0.00  0.00    +0.000 C 
ATOM     14  C   UNL     1       2.609   5.216  18.205  0.00  0.00    +0.000 C 
ATOM     15  C   UNL     1       1.477   5.527  19.218  0.00  0.00    +0.000 C 
ATOM     16  C   UNL     1       1.868   6.609  20.223  0.00  0.00    +0.000 C 
BRANCH   9  17
ATOM     17  C   UNL     1       1.506   9.817  18.324  0.00  0.00    +0.000 C 
BRANCH  17  24
ATOM     18  C   UNL     1      -1.595  10.325  17.951  0.00  0.00    +0.000 C 
ATOM     19  C   UNL     1      -0.575  11.394  18.238  0.00  0.00    +0.000 A 
ATOM     20  C   UNL     1      -1.063  12.710  18.348  0.00  0.00    +0.000 A 
ATOM     21  C   UNL     1      -0.216  13.783  18.611  0.00  0.00    +0.000 A 
ATOM     22  C   UNL     1       1.141  13.561  18.783  0.00  0.00    +0.000 A 
ATOM     23  C   UNL     1       1.641  12.264  18.693  0.00  0.00    +0.000 A 
ATOM     24  C   UNL     1       0.803  11.157  18.426  0.00  0.00    +0.000 A 
ENDBRANCH  17  24
ENDBRANCH   9  17
ENDBRANCH   1  14
BRANCH   1  25
ATOM     25  C   UNL     1       3.537   3.549  19.930  0.00  0.00    +0.000 A 
ATOM     26  C   UNL     1       2.293   3.533  20.554  0.00  0.00    +0.000 A 
ATOM     27  C   UNL     1       1.995   2.560  21.505  0.00  0.00    +0.000 A 
ATOM     28  C   UNL     1       2.982   1.656  21.853  0.00  0.00    +0.000 A 
ATOM     29  N   UNL     1       4.236   1.691  21.339  0.00  0.00    +0.000 NA
ATOM     30  C   UNL     1       4.480   2.619  20.409  0.00  0.00    +0.000 A 
ENDBRANCH   1  25
BRANCH   5  31
ATOM     31  C   UNL     1       6.877   4.325  16.456  0.00  0.00    +0.000 C 
BRANCH  31  32
ATOM     32  C   UNL     1       6.453   4.897  15.095  0.00  0.00    +0.000 C 
ATOM     33  C   UNL     1       5.978   3.856  14.096  0.00  0.00    +0.000 C 
ATOM     34  C   UNL     1       6.595   4.262  12.781  0.00  0.00    +0.000 C 
ATOM     35  C   UNL     1       7.740   5.176  13.148  0.00  0.00    +0.000 C 
ATOM     36  O   UNL     1       7.575   5.581  14.508  0.00  0.00    +0.000 OA
ENDBRANCH  31  32
ENDBRANCH   5  31
TORSDOF 6
ENDMDL
MODEL 9
REMARK VINA RESULT:      -7.0      2.047      5.261
REMARK  Name = 
REMARK  7 active torsions:
REMARK  status: ('A' for Active; 'I' for Inactive)
REMARK    1  A    between atoms: C_1  and  C_2
REMARK    2  A    between atoms: C_7  and  C_8
REMARK    3  A    between atoms: C_8  and  C_9
REMARK    4  A    between atoms: C_14  and  C_15
REMARK    5  A    between atoms: C_15  and  C_16
REMARK    6  A    between atoms: N_25  and  C_26
REMARK    7  A    between atoms: C_26  and  C_27
REMARK                            x       y       z     vdW  Elec       q    Type
REMARK                         _______ _______ _______ _____ _____    ______ ____
ROOT
ATOM      1  C   UNL     1       3.856   4.492  18.896  0.00  0.00    +0.000 C 
ATOM      2  N   UNL     1       4.889   5.384  19.368  0.00  0.00    +0.000 N 
ATOM      3  C   UNL     1       6.040   5.346  18.647  0.00  0.00    +0.000 C 
ATOM      4  O   UNL     1       7.029   6.022  18.935  0.00  0.00    +0.000 OA
ATOM      5  N   UNL     1       5.890   4.502  17.605  0.00  0.00    +0.000 N 
ATOM      6  C   UNL     1       4.686   3.862  17.711  0.00  0.00    +0.000 C 
ATOM      7  O   UNL     1       4.295   2.984  16.952  0.00  0.00    +0.000 OA
ATOM      8  H   UNL     1       4.896   5.901  20.236  0.00  0.00    +0.000 HD
ENDROOT
BRANCH   1  14
ATOM      9  C   UNL     1       1.279   8.743  19.819  0.00  0.00    +0.000 C 
ATOM     10  O   UNL     1       0.407   8.817  20.684  0.00  0.00    +0.000 OA
ATOM     11  N   UNL     1       2.182   7.685  19.751  0.00  0.00    +0.000 N 
ATOM     12  C   UNL     1       3.217   7.622  18.713  0.00  0.00    +0.000 C 
ATOM     13  C   UNL     1       2.854   6.579  17.665  0.00  0.00    +0.000 C 
ATOM     14  C   UNL     1       2.585   5.194  18.307  0.00  0.00    +0.000 C 
ATOM     15  C   UNL     1       1.423   5.409  19.311  0.00  0.00    +0.000 C 
ATOM     16  C   UNL     1       1.762   6.436  20.391  0.00  0.00    +0.000 C 
BRANCH   9  17
ATOM     17  C   UNL     1       1.348   9.746  18.689  0.00  0.00    +0.000 C 
BRANCH  17  24
ATOM     18  C   UNL     1       0.588  12.717  19.472  0.00  0.00    +0.000 C 
ATOM     19  C   UNL     1      -0.283  11.787  18.671  0.00  0.00    +0.000 A 
ATOM     20  C   UNL     1      -1.523  12.302  18.245  0.00  0.00    +0.000 A 
ATOM     21  C   UNL     1      -2.414  11.537  17.498  0.00  0.00    +0.000 A 
ATOM     22  C   UNL     1      -2.078  10.239  17.147  0.00  0.00    +0.000 A 
ATOM     23  C   UNL     1      -0.850   9.715  17.546  0.00  0.00    +0.000 A 
ATOM     24  C   UNL     1       0.072  10.471  18.305  0.00  0.00    +0.000 A 
ENDBRANCH  17  24
ENDBRANCH   9  17
ENDBRANCH   1  14
BRANCH   1  25
ATOM     25  C   UNL     1       3.530   3.507  20.004  0.00  0.00    +0.000 A 
ATOM     26  C   UNL     1       2.287   3.472  20.629  0.00  0.00    +0.000 A 
ATOM     27  C   UNL     1       1.998   2.484  21.567  0.00  0.00    +0.000 A 
ATOM     28  C   UNL     1       2.993   1.583  21.901  0.00  0.00    +0.000 A 
ATOM     29  N   UNL     1       4.246   1.635  21.386  0.00  0.00    +0.000 NA
ATOM     30  C   UNL     1       4.481   2.578  20.468  0.00  0.00    +0.000 A 
ENDBRANCH   1  25
BRANCH   5  31
ATOM     31  C   UNL     1       6.850   4.350  16.526  0.00  0.00    +0.000 C 
BRANCH  31  32
ATOM     32  C   UNL     1       6.394   4.890  15.163  0.00  0.00    +0.000 C 
ATOM     33  C   UNL     1       5.931   3.822  14.186  0.00  0.00    +0.000 C 
ATOM     34  C   UNL     1       6.521   4.221  12.857  0.00  0.00    +0.000 C 
ATOM     35  C   UNL     1       7.648   5.168  13.193  0.00  0.00    +0.000 C 
ATOM     36  O   UNL     1       7.492   5.591  14.549  0.00  0.00    +0.000 OA
ENDBRANCH  31  32
ENDBRANCH   5  31
TORSDOF 6
ENDMDL
