MODEL 1
REMARK VINA RESULT:      -8.0      0.000      0.000
REMARK  Name = 
REMARK  7 active torsions:
REMARK  status: ('A' for Active; 'I' for Inactive)
REMARK    1  A    between atoms: C_2  and  C_3
REMARK    2  A    between atoms: N_5  and  C_6
REMARK    3  A    between atoms: C_9  and  C_10
REMARK    4  A    between atoms: C_17  and  S_18
REMARK    5  A    between atoms: S_18  and  C_19
REMARK    6  A    between atoms: C_19  and  C_20
REMARK    7  A    between atoms: C_28  and  C_29
REMARK                            x       y       z     vdW  Elec       q    Type
REMARK                         _______ _______ _______ _____ _____    ______ ____
ROOT
ATOM      1  C   UNL     1       0.240  12.030  19.836  0.00  0.00    +0.000 A 
ATOM      2  C   UNL     1       0.180  10.673  19.556  0.00  0.00    +0.000 A 
ATOM      3  N   UNL     1       1.190   9.810  20.028  0.00  0.00    +0.000 N 
ATOM      4  N   UNL     1      -0.798  10.156  18.791  0.00  0.00    +0.000 NA
ATOM      5  C   UNL     1      -1.742  10.978  18.319  0.00  0.00    +0.000 A 
ATOM      6  N   UNL     1      -1.786  12.295  18.568  0.00  0.00    +0.000 NA
ATOM      7  C   UNL     1      -0.795  12.821  19.341  0.00  0.00    +0.000 A 
ATOM      8  H   UNL     1       1.448   9.933  21.000  0.00  0.00    +0.000 HD
ENDROOT
BRANCH   3   9
ATOM      9  C   UNL     1       1.736   8.672  19.415  0.00  0.00    +0.000 A 
ATOM     10  C   UNL     1       2.195   8.692  18.094  0.00  0.00    +0.000 A 
ATOM     11  C   UNL     1       2.863   7.594  17.549  0.00  0.00    +0.000 A 
ATOM     12  C   UNL     1       3.067   6.438  18.311  0.00  0.00    +0.000 A 
ATOM     13  C   UNL     1       2.520   6.375  19.600  0.00  0.00    +0.000 A 
ATOM     14  C   UNL     1       1.864   7.483  20.146  0.00  0.00    +0.000 A 
BRANCH  12  15
ATOM     15  C   UNL     1       3.899   5.298  17.780  0.00  0.00    +0.000 C 
ATOM     16  F   UNL     1       3.161   4.294  17.230  0.00  0.00    +0.000 F 
ATOM     17  F   UNL     1       4.757   5.704  16.801  0.00  0.00    +0.000 F 
ATOM     18  F   UNL     1       4.674   4.717  18.735  0.00  0.00    +0.000 F 
ENDBRANCH  12  15
ENDBRANCH   3   9
BRANCH   7  19
ATOM     19  C   UNL     1      -0.891  14.292  19.556  0.00  0.00    +0.000 A 
ATOM     20  C   UNL     1      -0.246  15.228  18.723  0.00  0.00    +0.000 A 
ATOM     21  C   UNL     1      -0.459  16.603  18.858  0.00  0.00    +0.000 A 
ATOM     22  C   UNL     1      -1.276  17.083  19.874  0.00  0.00    +0.000 A 
ATOM     23  C   UNL     1      -1.861  16.189  20.764  0.00  0.00    +0.000 A 
ATOM     24  C   UNL     1      -1.670  14.812  20.607  0.00  0.00    +0.000 A 
ENDBRANCH   7  19
BRANCH   1  26
ATOM     25  N   UNL     1       2.264  13.014  21.116  0.00  0.00    +0.000 NA
ATOM     26  C   UNL     1       1.370  12.554  20.532  0.00  0.00    +0.000 C 
ENDBRANCH   1  26
BRANCH   5  27
ATOM     27  S   UNL     1      -3.020  10.196  17.368  0.00  0.00    +0.000 S 
BRANCH  27  28
ATOM     28  C   UNL     1      -4.250  11.528  17.260  0.00  0.00    +0.000 C 
BRANCH  28  29
ATOM     29  C   UNL     1      -5.156  11.533  18.477  0.00  0.00    +0.000 A 
ATOM     30  C   UNL     1      -6.231  10.634  18.570  0.00  0.00    +0.000 A 
ATOM     31  C   UNL     1      -7.080  10.649  19.681  0.00  0.00    +0.000 A 
ATOM     32  C   UNL     1      -6.867  11.569  20.705  0.00  0.00    +0.000 A 
ATOM     33 CL   UNL     1      -7.916  11.588  22.071  0.00  0.00    +0.000 Cl
ATOM     34  C   UNL     1      -5.813  12.474  20.628  0.00  0.00    +0.000 A 
ATOM     35  C   UNL     1      -4.961  12.459  19.518  0.00  0.00    +0.000 A 
ENDBRANCH  28  29
ENDBRANCH  27  28
ENDBRANCH   5  27
TORSDOF 7
ENDMDL
MODEL 2
REMARK VINA RESULT:      -7.7      2.383      2.977
REMARK  Name = 
REMARK  7 active torsions:
REMARK  status: ('A' for Active; 'I' for Inactive)
REMARK    1  A    between atoms: C_2  and  C_3
REMARK    2  A    between atoms: N_5  and  C_6
REMARK    3  A    between atoms: C_9  and  C_10
REMARK    4  A    between atoms: C_17  and  S_18
REMARK    5  A    between atoms: S_18  and  C_19
REMARK    6  A    between atoms: C_19  and  C_20
REMARK    7  A    between atoms: C_28  and  C_29
REMARK                            x       y       z     vdW  Elec       q    Type
REMARK                         _______ _______ _______ _____ _____    ______ ____
ROOT
ATOM      1  C   UNL     1      -0.548  10.370  21.757  0.00  0.00    +0.000 A 
ATOM      2  C   UNL     1      -0.172   9.645  20.635  0.00  0.00    +0.000 A 
ATOM      3  N   UNL     1       0.613   8.483  20.777  0.00  0.00    +0.000 N 
ATOM      4  N   UNL     1      -0.494  10.054  19.395  0.00  0.00    +0.000 NA
ATOM      5  C   UNL     1      -1.215  11.172  19.257  0.00  0.00    +0.000 A 
ATOM      6  N   UNL     1      -1.654  11.916  20.283  0.00  0.00    +0.000 NA
ATOM      7  C   UNL     1      -1.328  11.504  21.540  0.00  0.00    +0.000 A 
ATOM      8  H   UNL     1       0.310   7.838  21.497  0.00  0.00    +0.000 HD
ENDROOT
BRANCH   3   9
ATOM      9  C   UNL     1       1.618   7.988  19.932  0.00  0.00    +0.000 A 
ATOM     10  C   UNL     1       2.286   6.790  20.202  0.00  0.00    +0.000 A 
ATOM     11  C   UNL     1       3.181   6.243  19.280  0.00  0.00    +0.000 A 
ATOM     12  C   UNL     1       3.445   6.899  18.073  0.00  0.00    +0.000 A 
ATOM     13  C   UNL     1       2.855   8.150  17.843  0.00  0.00    +0.000 A 
ATOM     14  C   UNL     1       1.949   8.686  18.763  0.00  0.00    +0.000 A 
BRANCH  12  15
ATOM     15  C   UNL     1       4.305   6.255  17.015  0.00  0.00    +0.000 C 
ATOM     16  F   UNL     1       4.412   6.995  15.875  0.00  0.00    +0.000 F 
ATOM     17  F   UNL     1       5.583   6.057  17.446  0.00  0.00    +0.000 F 
ATOM     18  F   UNL     1       3.848   5.034  16.629  0.00  0.00    +0.000 F 
ENDBRANCH  12  15
ENDBRANCH   3   9
BRANCH   7  19
ATOM     19  C   UNL     1      -1.825  12.390  22.630  0.00  0.00    +0.000 A 
ATOM     20  C   UNL     1      -1.091  13.494  23.111  0.00  0.00    +0.000 A 
ATOM     21  C   UNL     1      -1.632  14.391  24.036  0.00  0.00    +0.000 A 
ATOM     22  C   UNL     1      -2.902  14.172  24.555  0.00  0.00    +0.000 A 
ATOM     23  C   UNL     1      -3.618  13.046  24.164  0.00  0.00    +0.000 A 
ATOM     24  C   UNL     1      -3.086  12.167  23.214  0.00  0.00    +0.000 A 
ENDBRANCH   7  19
BRANCH   1  26
ATOM     25  N   UNL     1       0.286   9.635  24.095  0.00  0.00    +0.000 NA
ATOM     26  C   UNL     1      -0.066   9.976  23.040  0.00  0.00    +0.000 C 
ENDBRANCH   1  26
BRANCH   5  27
ATOM     27  S   UNL     1      -1.638  11.599  17.587  0.00  0.00    +0.000 S 
BRANCH  27  28
ATOM     28  C   UNL     1      -3.194  10.688  17.370  0.00  0.00    +0.000 C 
BRANCH  28  29
ATOM     29  C   UNL     1      -4.386  11.546  17.747  0.00  0.00    +0.000 A 
ATOM     30  C   UNL     1      -5.235  12.064  16.756  0.00  0.00    +0.000 A 
ATOM     31  C   UNL     1      -6.324  12.871  17.099  0.00  0.00    +0.000 A 
ATOM     32  C   UNL     1      -6.570  13.175  18.436  0.00  0.00    +0.000 A 
ATOM     33 CL   UNL     1      -7.909  14.172  18.857  0.00  0.00    +0.000 Cl
ATOM     34  C   UNL     1      -5.735  12.678  19.434  0.00  0.00    +0.000 A 
ATOM     35  C   UNL     1      -4.646  11.869  19.091  0.00  0.00    +0.000 A 
ENDBRANCH  28  29
ENDBRANCH  27  28
ENDBRANCH   5  27
TORSDOF 7
ENDMDL
MODEL 3
REMARK VINA RESULT:      -7.7      2.386      2.848
REMARK  Name = 
REMARK  7 active torsions:
REMARK  status: ('A' for Active; 'I' for Inactive)
REMARK    1  A    between atoms: C_2  and  C_3
REMARK    2  A    between atoms: N_5  and  C_6
REMARK    3  A    between atoms: C_9  and  C_10
REMARK    4  A    between atoms: C_17  and  S_18
REMARK    5  A    between atoms: S_18  and  C_19
REMARK    6  A    between atoms: C_19  and  C_20
REMARK    7  A    between atoms: C_28  and  C_29
REMARK                            x       y       z     vdW  Elec       q    Type
REMARK                         _______ _______ _______ _____ _____    ______ ____
ROOT
ATOM      1  C   UNL     1      -0.500  10.330  21.634  0.00  0.00    +0.000 A 
ATOM      2  C   UNL     1      -0.206   9.554  20.522  0.00  0.00    +0.000 A 
ATOM      3  N   UNL     1       0.589   8.399  20.657  0.00  0.00    +0.000 N 
ATOM      4  N   UNL     1      -0.619   9.908  19.291  0.00  0.00    +0.000 NA
ATOM      5  C   UNL     1      -1.351  11.020  19.157  0.00  0.00    +0.000 A 
ATOM      6  N   UNL     1      -1.713  11.810  20.178  0.00  0.00    +0.000 NA
ATOM      7  C   UNL     1      -1.295  11.455  21.425  0.00  0.00    +0.000 A 
ATOM      8  H   UNL     1       0.341   7.788  21.426  0.00  0.00    +0.000 HD
ENDROOT
BRANCH   3   9
ATOM      9  C   UNL     1       1.530   7.865  19.764  0.00  0.00    +0.000 A 
ATOM     10  C   UNL     1       1.957   8.568  18.633  0.00  0.00    +0.000 A 
ATOM     11  C   UNL     1       2.995   8.083  17.835  0.00  0.00    +0.000 A 
ATOM     12  C   UNL     1       3.615   6.867  18.140  0.00  0.00    +0.000 A 
ATOM     13  C   UNL     1       3.123   6.110  19.212  0.00  0.00    +0.000 A 
ATOM     14  C   UNL     1       2.093   6.607  20.017  0.00  0.00    +0.000 A 
BRANCH  12  15
ATOM     15  C   UNL     1       4.821   6.397  17.366  0.00  0.00    +0.000 C 
ATOM     16  F   UNL     1       5.580   5.488  18.039  0.00  0.00    +0.000 F 
ATOM     17  F   UNL     1       4.474   5.792  16.195  0.00  0.00    +0.000 F 
ATOM     18  F   UNL     1       5.661   7.412  17.026  0.00  0.00    +0.000 F 
ENDBRANCH  12  15
ENDBRANCH   3   9
BRANCH   7  19
ATOM     19  C   UNL     1      -1.711  12.389  22.508  0.00  0.00    +0.000 A 
ATOM     20  C   UNL     1      -0.899  13.454  22.951  0.00  0.00    +0.000 A 
ATOM     21  C   UNL     1      -1.363  14.399  23.870  0.00  0.00    +0.000 A 
ATOM     22  C   UNL     1      -2.632  14.270  24.420  0.00  0.00    +0.000 A 
ATOM     23  C   UNL     1      -3.425  13.185  24.066  0.00  0.00    +0.000 A 
ATOM     24  C   UNL     1      -2.970  12.256  23.123  0.00  0.00    +0.000 A 
ENDBRANCH   7  19
BRANCH   1  26
ATOM     25  N   UNL     1       0.549   9.674  23.909  0.00  0.00    +0.000 NA
ATOM     26  C   UNL     1       0.077   9.994  22.895  0.00  0.00    +0.000 C 
ENDBRANCH   1  26
BRANCH   5  27
ATOM     27  S   UNL     1      -1.896  11.372  17.505  0.00  0.00    +0.000 S 
BRANCH  27  28
ATOM     28  C   UNL     1      -3.533  10.586  17.496  0.00  0.00    +0.000 C 
BRANCH  28  29
ATOM     29  C   UNL     1      -4.619  11.583  17.855  0.00  0.00    +0.000 A 
ATOM     30  C   UNL     1      -4.961  11.813  19.197  0.00  0.00    +0.000 A 
ATOM     31  C   UNL     1      -5.974  12.717  19.531  0.00  0.00    +0.000 A 
ATOM     32  C   UNL     1      -6.660  13.394  18.525  0.00  0.00    +0.000 A 
ATOM     33 CL   UNL     1      -7.910  14.504  18.937  0.00  0.00    +0.000 Cl
ATOM     34  C   UNL     1      -6.342  13.174  17.188  0.00  0.00    +0.000 A 
ATOM     35  C   UNL     1      -5.327  12.270  16.853  0.00  0.00    +0.000 A 
ENDBRANCH  28  29
ENDBRANCH  27  28
ENDBRANCH   5  27
TORSDOF 7
ENDMDL
MODEL 4
REMARK VINA RESULT:      -7.6      4.923      7.749
REMARK  Name = 
REMARK  7 active torsions:
REMARK  status: ('A' for Active; 'I' for Inactive)
REMARK    1  A    between atoms: C_2  and  C_3
REMARK    2  A    between atoms: N_5  and  C_6
REMARK    3  A    between atoms: C_9  and  C_10
REMARK    4  A    between atoms: C_17  and  S_18
REMARK    5  A    between atoms: S_18  and  C_19
REMARK    6  A    between atoms: C_19  and  C_20
REMARK    7  A    between atoms: C_28  and  C_29
REMARK                            x       y       z     vdW  Elec       q    Type
REMARK                         _______ _______ _______ _____ _____    ______ ____
ROOT
ATOM      1  C   UNL     1       0.476  10.289  20.621  0.00  0.00    +0.000 A 
ATOM      2  C   UNL     1      -0.464  11.307  20.676  0.00  0.00    +0.000 A 
ATOM      3  N   UNL     1      -0.670  12.014  21.878  0.00  0.00    +0.000 N 
ATOM      4  N   UNL     1      -1.235  11.609  19.615  0.00  0.00    +0.000 NA
ATOM      5  C   UNL     1      -1.061  10.920  18.481  0.00  0.00    +0.000 A 
ATOM      6  N   UNL     1      -0.152   9.946  18.325  0.00  0.00    +0.000 NA
ATOM      7  C   UNL     1       0.628   9.638  19.398  0.00  0.00    +0.000 A 
ATOM      8  H   UNL     1       0.171  12.319  22.353  0.00  0.00    +0.000 HD
ENDROOT
BRANCH   3   9
ATOM      9  C   UNL     1      -1.862  12.538  22.401  0.00  0.00    +0.000 A 
ATOM     10  C   UNL     1      -2.410  13.736  21.932  0.00  0.00    +0.000 A 
ATOM     11  C   UNL     1      -3.666  14.169  22.363  0.00  0.00    +0.000 A 
ATOM     12  C   UNL     1      -4.392  13.420  23.295  0.00  0.00    +0.000 A 
ATOM     13  C   UNL     1      -3.803  12.273  23.844  0.00  0.00    +0.000 A 
ATOM     14  C   UNL     1      -2.552  11.836  23.398  0.00  0.00    +0.000 A 
BRANCH  12  15
ATOM     15  C   UNL     1      -5.801  13.807  23.668  0.00  0.00    +0.000 C 
ATOM     16  F   UNL     1      -6.394  12.937  24.533  0.00  0.00    +0.000 F 
ATOM     17  F   UNL     1      -5.853  15.025  24.279  0.00  0.00    +0.000 F 
ATOM     18  F   UNL     1      -6.630  13.893  22.593  0.00  0.00    +0.000 F 
ENDBRANCH  12  15
ENDBRANCH   3   9
BRANCH   7  19
ATOM     19  C   UNL     1       1.597   8.531  19.163  0.00  0.00    +0.000 A 
ATOM     20  C   UNL     1       1.728   7.433  20.038  0.00  0.00    +0.000 A 
ATOM     21  C   UNL     1       2.543   6.340  19.730  0.00  0.00    +0.000 A 
ATOM     22  C   UNL     1       3.299   6.344  18.565  0.00  0.00    +0.000 A 
ATOM     23  C   UNL     1       3.255   7.448  17.721  0.00  0.00    +0.000 A 
ATOM     24  C   UNL     1       2.415   8.528  18.018  0.00  0.00    +0.000 A 
ENDBRANCH   7  19
BRANCH   1  26
ATOM     25  N   UNL     1       1.746   9.561  22.756  0.00  0.00    +0.000 NA
ATOM     26  C   UNL     1       1.170   9.911  21.809  0.00  0.00    +0.000 C 
ENDBRANCH   1  26
BRANCH   5  27
ATOM     27  S   UNL     1      -2.083  11.428  17.123  0.00  0.00    +0.000 S 
BRANCH  27  28
ATOM     28  C   UNL     1      -3.661  10.637  17.551  0.00  0.00    +0.000 C 
BRANCH  28  29
ATOM     29  C   UNL     1      -4.705  11.671  17.930  0.00  0.00    +0.000 A 
ATOM     30  C   UNL     1      -4.819  12.115  19.257  0.00  0.00    +0.000 A 
ATOM     31  C   UNL     1      -5.793  13.054  19.614  0.00  0.00    +0.000 A 
ATOM     32  C   UNL     1      -6.665  13.551  18.649  0.00  0.00    +0.000 A 
ATOM     33 CL   UNL     1      -7.866  14.704  19.091  0.00  0.00    +0.000 Cl
ATOM     34  C   UNL     1      -6.573  13.117  17.329  0.00  0.00    +0.000 A 
ATOM     35  C   UNL     1      -5.599  12.179  16.971  0.00  0.00    +0.000 A 
ENDBRANCH  28  29
ENDBRANCH  27  28
ENDBRANCH   5  27
TORSDOF 7
ENDMDL
MODEL 5
REMARK VINA RESULT:      -7.6      4.931      7.743
REMARK  Name = 
REMARK  7 active torsions:
REMARK  status: ('A' for Active; 'I' for Inactive)
REMARK    1  A    between atoms: C_2  and  C_3
REMARK    2  A    between atoms: N_5  and  C_6
REMARK    3  A    between atoms: C_9  and  C_10
REMARK    4  A    between atoms: C_17  and  S_18
REMARK    5  A    between atoms: S_18  and  C_19
REMARK    6  A    between atoms: C_19  and  C_20
REMARK    7  A    between atoms: C_28  and  C_29
REMARK                            x       y       z     vdW  Elec       q    Type
REMARK                         _______ _______ _______ _____ _____    ______ ____
ROOT
ATOM      1  C   UNL     1       0.518  10.303  20.668  0.00  0.00    +0.000 A 
ATOM      2  C   UNL     1      -0.389  11.352  20.717  0.00  0.00    +0.000 A 
ATOM      3  N   UNL     1      -0.574  12.068  21.916  0.00  0.00    +0.000 N 
ATOM      4  N   UNL     1      -1.147  11.675  19.654  0.00  0.00    +0.000 NA
ATOM      5  C   UNL     1      -0.992  10.977  18.522  0.00  0.00    +0.000 A 
ATOM      6  N   UNL     1      -0.115   9.974  18.372  0.00  0.00    +0.000 NA
ATOM      7  C   UNL     1       0.652   9.643  19.448  0.00  0.00    +0.000 A 
ATOM      8  H   UNL     1       0.276  12.348  22.392  0.00  0.00    +0.000 HD
ENDROOT
BRANCH   3   9
ATOM      9  C   UNL     1      -1.749  12.634  22.434  0.00  0.00    +0.000 A 
ATOM     10  C   UNL     1      -2.157  13.929  22.099  0.00  0.00    +0.000 A 
ATOM     11  C   UNL     1      -3.397  14.421  22.510  0.00  0.00    +0.000 A 
ATOM     12  C   UNL     1      -4.250  13.632  23.289  0.00  0.00    +0.000 A 
ATOM     13  C   UNL     1      -3.804  12.372  23.712  0.00  0.00    +0.000 A 
ATOM     14  C   UNL     1      -2.567  11.878  23.286  0.00  0.00    +0.000 A 
BRANCH  12  15
ATOM     15  C   UNL     1      -5.643  14.100  23.628  0.00  0.00    +0.000 C 
ATOM     16  F   UNL     1      -6.427  14.315  22.535  0.00  0.00    +0.000 F 
ATOM     17  F   UNL     1      -6.316  13.193  24.391  0.00  0.00    +0.000 F 
ATOM     18  F   UNL     1      -5.654  15.263  24.334  0.00  0.00    +0.000 F 
ENDBRANCH  12  15
ENDBRANCH   3   9
BRANCH   7  19
ATOM     19  C   UNL     1       1.585   8.505  19.218  0.00  0.00    +0.000 A 
ATOM     20  C   UNL     1       1.675   7.404  20.095  0.00  0.00    +0.000 A 
ATOM     21  C   UNL     1       2.454   6.284  19.792  0.00  0.00    +0.000 A 
ATOM     22  C   UNL     1       3.216   6.261  18.631  0.00  0.00    +0.000 A 
ATOM     23  C   UNL     1       3.214   7.366  17.787  0.00  0.00    +0.000 A 
ATOM     24  C   UNL     1       2.408   8.473  18.078  0.00  0.00    +0.000 A 
ENDBRANCH   7  19
BRANCH   1  26
ATOM     25  N   UNL     1       1.735   9.539  22.822  0.00  0.00    +0.000 NA
ATOM     26  C   UNL     1       1.197   9.906  21.859  0.00  0.00    +0.000 C 
ENDBRANCH   1  26
BRANCH   5  27
ATOM     27  S   UNL     1      -1.994  11.514  17.160  0.00  0.00    +0.000 S 
BRANCH  27  28
ATOM     28  C   UNL     1      -3.564  10.676  17.521  0.00  0.00    +0.000 C 
BRANCH  28  29
ATOM     29  C   UNL     1      -4.612  11.663  17.998  0.00  0.00    +0.000 A 
ATOM     30  C   UNL     1      -5.594  12.143  17.117  0.00  0.00    +0.000 A 
ATOM     31  C   UNL     1      -6.550  13.068  17.548  0.00  0.00    +0.000 A 
ATOM     32  C   UNL     1      -6.529  13.527  18.863  0.00  0.00    +0.000 A 
ATOM     33 CL   UNL     1      -7.705  14.668  19.392  0.00  0.00    +0.000 Cl
ATOM     34  C   UNL     1      -5.559  13.069  19.751  0.00  0.00    +0.000 A 
ATOM     35  C   UNL     1      -4.603  12.143  19.320  0.00  0.00    +0.000 A 
ENDBRANCH  28  29
ENDBRANCH  27  28
ENDBRANCH   5  27
TORSDOF 7
ENDMDL
MODEL 6
REMARK VINA RESULT:      -7.5      1.150      1.580
REMARK  Name = 
REMARK  7 active torsions:
REMARK  status: ('A' for Active; 'I' for Inactive)
REMARK    1  A    between atoms: C_2  and  C_3
REMARK    2  A    between atoms: N_5  and  C_6
REMARK    3  A    between atoms: C_9  and  C_10
REMARK    4  A    between atoms: C_17  and  S_18
REMARK    5  A    between atoms: S_18  and  C_19
REMARK    6  A    between atoms: C_19  and  C_20
REMARK    7  A    between atoms: C_28  and  C_29
REMARK                            x       y       z     vdW  Elec       q    Type
REMARK                         _______ _______ _______ _____ _____    ______ ____
ROOT
ATOM      1  C   UNL     1       0.263  12.192  19.752  0.00  0.00    +0.000 A 
ATOM      2  C   UNL     1       0.196  10.854  19.392  0.00  0.00    +0.000 A 
ATOM      3  N   UNL     1       1.101   9.928  19.947  0.00  0.00    +0.000 N 
ATOM      4  N   UNL     1      -0.686  10.417  18.474  0.00  0.00    +0.000 NA
ATOM      5  C   UNL     1      -1.528  11.301  17.925  0.00  0.00    +0.000 A 
ATOM      6  N   UNL     1      -1.560  12.604  18.239  0.00  0.00    +0.000 NA
ATOM      7  C   UNL     1      -0.667  13.049  19.166  0.00  0.00    +0.000 A 
ATOM      8  H   UNL     1       1.228   9.991  20.950  0.00  0.00    +0.000 HD
ENDROOT
BRANCH   3   9
ATOM      9  C   UNL     1       1.687   8.800  19.352  0.00  0.00    +0.000 A 
ATOM     10  C   UNL     1       2.175   8.826  18.042  0.00  0.00    +0.000 A 
ATOM     11  C   UNL     1       2.880   7.741  17.516  0.00  0.00    +0.000 A 
ATOM     12  C   UNL     1       3.092   6.593  18.287  0.00  0.00    +0.000 A 
ATOM     13  C   UNL     1       2.518   6.522  19.564  0.00  0.00    +0.000 A 
ATOM     14  C   UNL     1       1.825   7.617  20.090  0.00  0.00    +0.000 A 
BRANCH  12  15
ATOM     15  C   UNL     1       3.963   5.470  17.780  0.00  0.00    +0.000 C 
ATOM     16  F   UNL     1       4.828   5.852  16.800  0.00  0.00    +0.000 F 
ATOM     17  F   UNL     1       4.737   4.937  18.768  0.00  0.00    +0.000 F 
ATOM     18  F   UNL     1       3.246   4.434  17.268  0.00  0.00    +0.000 F 
ENDBRANCH  12  15
ENDBRANCH   3   9
BRANCH   7  19
ATOM     19  C   UNL     1      -0.741  14.510  19.447  0.00  0.00    +0.000 A 
ATOM     20  C   UNL     1      -0.053  15.471  18.678  0.00  0.00    +0.000 A 
ATOM     21  C   UNL     1      -0.244  16.842  18.872  0.00  0.00    +0.000 A 
ATOM     22  C   UNL     1      -1.081  17.290  19.885  0.00  0.00    +0.000 A 
ATOM     23  C   UNL     1      -1.709  16.369  20.715  0.00  0.00    +0.000 A 
ATOM     24  C   UNL     1      -1.541  14.996  20.498  0.00  0.00    +0.000 A 
ENDBRANCH   7  19
BRANCH   1  26
ATOM     25  N   UNL     1       2.185  12.987  21.294  0.00  0.00    +0.000 NA
ATOM     26  C   UNL     1       1.305  12.633  20.621  0.00  0.00    +0.000 C 
ENDBRANCH   1  26
BRANCH   5  27
ATOM     27  S   UNL     1      -2.689  10.620  16.769  0.00  0.00    +0.000 S 
BRANCH  27  28
ATOM     28  C   UNL     1      -4.110  10.283  17.849  0.00  0.00    +0.000 C 
BRANCH  28  29
ATOM     29  C   UNL     1      -4.924  11.540  18.089  0.00  0.00    +0.000 A 
ATOM     30  C   UNL     1      -4.954  12.139  19.359  0.00  0.00    +0.000 A 
ATOM     31  C   UNL     1      -5.718  13.288  19.589  0.00  0.00    +0.000 A 
ATOM     32  C   UNL     1      -6.465  13.843  18.552  0.00  0.00    +0.000 A 
ATOM     33 CL   UNL     1      -7.409  15.255  18.837  0.00  0.00    +0.000 Cl
ATOM     34  C   UNL     1      -6.456  13.260  17.289  0.00  0.00    +0.000 A 
ATOM     35  C   UNL     1      -5.690  12.112  17.058  0.00  0.00    +0.000 A 
ENDBRANCH  28  29
ENDBRANCH  27  28
ENDBRANCH   5  27
TORSDOF 7
ENDMDL
MODEL 7
REMARK VINA RESULT:      -7.5      1.303      1.686
REMARK  Name = 
REMARK  7 active torsions:
REMARK  status: ('A' for Active; 'I' for Inactive)
REMARK    1  A    between atoms: C_2  and  C_3
REMARK    2  A    between atoms: N_5  and  C_6
REMARK    3  A    between atoms: C_9  and  C_10
REMARK    4  A    between atoms: C_17  and  S_18
REMARK    5  A    between atoms: S_18  and  C_19
REMARK    6  A    between atoms: C_19  and  C_20
REMARK    7  A    between atoms: C_28  and  C_29
REMARK                            x       y       z     vdW  Elec       q    Type
REMARK                         _______ _______ _______ _____ _____    ______ ____
ROOT
ATOM      1  C   UNL     1       0.358  12.283  19.781  0.00  0.00    +0.000 A 
ATOM      2  C   UNL     1       0.223  10.923  19.539  0.00  0.00    +0.000 A 
ATOM      3  N   UNL     1       1.074  10.004  20.183  0.00  0.00    +0.000 N 
ATOM      4  N   UNL     1      -0.675  10.454  18.653  0.00  0.00    +0.000 NA
ATOM      5  C   UNL     1      -1.465  11.328  18.019  0.00  0.00    +0.000 A 
ATOM      6  N   UNL     1      -1.431  12.654  18.217  0.00  0.00    +0.000 NA
ATOM      7  C   UNL     1      -0.521  13.132  19.112  0.00  0.00    +0.000 A 
ATOM      8  H   UNL     1       1.197  10.148  21.178  0.00  0.00    +0.000 HD
ENDROOT
BRANCH   3   9
ATOM      9  C   UNL     1       1.603   8.799  19.695  0.00  0.00    +0.000 A 
ATOM     10  C   UNL     1       1.674   7.648  20.488  0.00  0.00    +0.000 A 
ATOM     11  C   UNL     1       2.071   6.425  19.945  0.00  0.00    +0.000 A 
ATOM     12  C   UNL     1       2.429   6.332  18.595  0.00  0.00    +0.000 A 
ATOM     13  C   UNL     1       2.458   7.501  17.823  0.00  0.00    +0.000 A 
ATOM     14  C   UNL     1       2.045   8.721  18.368  0.00  0.00    +0.000 A 
BRANCH  12  15
ATOM     15  C   UNL     1       2.732   4.995  17.966  0.00  0.00    +0.000 C 
ATOM     16  F   UNL     1       1.674   4.454  17.299  0.00  0.00    +0.000 F 
ATOM     17  F   UNL     1       3.740   5.076  17.052  0.00  0.00    +0.000 F 
ATOM     18  F   UNL     1       3.124   4.059  18.872  0.00  0.00    +0.000 F 
ENDBRANCH  12  15
ENDBRANCH   3   9
BRANCH   7  19
ATOM     19  C   UNL     1      -0.520  14.613  19.263  0.00  0.00    +0.000 A 
ATOM     20  C   UNL     1       0.298  15.459  18.486  0.00  0.00    +0.000 A 
ATOM     21  C   UNL     1       0.186  16.851  18.547  0.00  0.00    +0.000 A 
ATOM     22  C   UNL     1      -0.706  17.438  19.435  0.00  0.00    +0.000 A 
ATOM     23  C   UNL     1      -1.468  16.633  20.274  0.00  0.00    +0.000 A 
ATOM     24  C   UNL     1      -1.376  15.239  20.189  0.00  0.00    +0.000 A 
ENDBRANCH   7  19
BRANCH   1  26
ATOM     25  N   UNL     1       2.264  13.087  21.337  0.00  0.00    +0.000 NA
ATOM     26  C   UNL     1       1.416  12.743  20.620  0.00  0.00    +0.000 C 
ENDBRANCH   1  26
BRANCH   5  27
ATOM     27  S   UNL     1      -2.654  10.610  16.914  0.00  0.00    +0.000 S 
BRANCH  27  28
ATOM     28  C   UNL     1      -4.044  10.300  18.040  0.00  0.00    +0.000 C 
BRANCH  28  29
ATOM     29  C   UNL     1      -4.934  11.523  18.158  0.00  0.00    +0.000 A 
ATOM     30  C   UNL     1      -5.621  12.015  17.037  0.00  0.00    +0.000 A 
ATOM     31  C   UNL     1      -6.428  13.154  17.137  0.00  0.00    +0.000 A 
ATOM     32  C   UNL     1      -6.548  13.814  18.358  0.00  0.00    +0.000 A 
ATOM     33 CL   UNL     1      -7.539  15.217  18.479  0.00  0.00    +0.000 Cl
ATOM     34  C   UNL     1      -5.869  13.346  19.479  0.00  0.00    +0.000 A 
ATOM     35  C   UNL     1      -5.063  12.207  19.380  0.00  0.00    +0.000 A 
ENDBRANCH  28  29
ENDBRANCH  27  28
ENDBRANCH   5  27
TORSDOF 7
ENDMDL
MODEL 8
REMARK VINA RESULT:      -7.5      1.256      1.959
REMARK  Name = 
REMARK  7 active torsions:
REMARK  status: ('A' for Active; 'I' for Inactive)
REMARK    1  A    between atoms: C_2  and  C_3
REMARK    2  A    between atoms: N_5  and  C_6
REMARK    3  A    between atoms: C_9  and  C_10
REMARK    4  A    between atoms: C_17  and  S_18
REMARK    5  A    between atoms: S_18  and  C_19
REMARK    6  A    between atoms: C_19  and  C_20
REMARK    7  A    between atoms: C_28  and  C_29
REMARK                            x       y       z     vdW  Elec       q    Type
REMARK                         _______ _______ _______ _____ _____    ______ ____
ROOT
ATOM      1  C   UNL     1       0.239  12.128  19.823  0.00  0.00    +0.000 A 
ATOM      2  C   UNL     1       0.149  10.769  19.559  0.00  0.00    +0.000 A 
ATOM      3  N   UNL     1       1.027   9.868  20.193  0.00  0.00    +0.000 N 
ATOM      4  N   UNL     1      -0.727  10.285  18.660  0.00  0.00    +0.000 NA
ATOM      5  C   UNL     1      -1.542  11.144  18.035  0.00  0.00    +0.000 A 
ATOM      6  N   UNL     1      -1.552  12.466  18.255  0.00  0.00    +0.000 NA
ATOM      7  C   UNL     1      -0.664  12.959  19.163  0.00  0.00    +0.000 A 
ATOM      8  H   UNL     1       1.140  10.000  21.191  0.00  0.00    +0.000 HD
ENDROOT
BRANCH   3   9
ATOM      9  C   UNL     1       1.598   8.689  19.690  0.00  0.00    +0.000 A 
ATOM     10  C   UNL     1       1.724   7.536  20.472  0.00  0.00    +0.000 A 
ATOM     11  C   UNL     1       2.162   6.334  19.914  0.00  0.00    +0.000 A 
ATOM     12  C   UNL     1       2.508   6.265  18.560  0.00  0.00    +0.000 A 
ATOM     13  C   UNL     1       2.481   7.441  17.797  0.00  0.00    +0.000 A 
ATOM     14  C   UNL     1       2.027   8.639  18.357  0.00  0.00    +0.000 A 
BRANCH  12  15
ATOM     15  C   UNL     1       2.857   4.947  17.916  0.00  0.00    +0.000 C 
ATOM     16  F   UNL     1       3.782   5.053  16.922  0.00  0.00    +0.000 F 
ATOM     17  F   UNL     1       3.379   4.062  18.813  0.00  0.00    +0.000 F 
ATOM     18  F   UNL     1       1.780   4.325  17.363  0.00  0.00    +0.000 F 
ENDBRANCH  12  15
ENDBRANCH   3   9
BRANCH   7  19
ATOM     19  C   UNL     1      -0.712  14.437  19.338  0.00  0.00    +0.000 A 
ATOM     20  C   UNL     1      -1.464  15.061  20.355  0.00  0.00    +0.000 A 
ATOM     21  C   UNL     1      -1.388  16.437  20.587  0.00  0.00    +0.000 A 
ATOM     22  C   UNL     1      -0.604  17.238  19.767  0.00  0.00    +0.000 A 
ATOM     23  C   UNL     1       0.085  16.665  18.704  0.00  0.00    +0.000 A 
ATOM     24  C   UNL     1       0.031  15.282  18.492  0.00  0.00    +0.000 A 
ENDBRANCH   7  19
BRANCH   1  26
ATOM     25  N   UNL     1       2.128  13.038  21.342  0.00  0.00    +0.000 NA
ATOM     26  C   UNL     1       1.276  12.609  20.676  0.00  0.00    +0.000 C 
ENDBRANCH   1  26
BRANCH   5  27
ATOM     27  S   UNL     1      -2.700  10.405  16.912  0.00  0.00    +0.000 S 
BRANCH  27  28
ATOM     28  C   UNL     1      -4.131  10.140  17.999  0.00  0.00    +0.000 C 
BRANCH  28  29
ATOM     29  C   UNL     1      -4.958  11.404  18.131  0.00  0.00    +0.000 A 
ATOM     30  C   UNL     1      -5.609  11.950  17.013  0.00  0.00    +0.000 A 
ATOM     31  C   UNL     1      -6.357  13.126  17.126  0.00  0.00    +0.000 A 
ATOM     32  C   UNL     1      -6.455  13.771  18.358  0.00  0.00    +0.000 A 
ATOM     33 CL   UNL     1      -7.374  15.221  18.496  0.00  0.00    +0.000 Cl
ATOM     34  C   UNL     1      -5.811  13.250  19.476  0.00  0.00    +0.000 A 
ATOM     35  C   UNL     1      -5.063  12.073  19.364  0.00  0.00    +0.000 A 
ENDBRANCH  28  29
ENDBRANCH  27  28
ENDBRANCH   5  27
TORSDOF 7
ENDMDL
MODEL 9
REMARK VINA RESULT:      -7.5      1.130      1.766
REMARK  Name = 
REMARK  7 active torsions:
REMARK  status: ('A' for Active; 'I' for Inactive)
REMARK    1  A    between atoms: C_2  and  C_3
REMARK    2  A    between atoms: N_5  and  C_6
REMARK    3  A    between atoms: C_9  and  C_10
REMARK    4  A    between atoms: C_17  and  S_18
REMARK    5  A    between atoms: S_18  and  C_19
REMARK    6  A    between atoms: C_19  and  C_20
REMARK    7  A    between atoms: C_28  and  C_29
REMARK                            x       y       z     vdW  Elec       q    Type
REMARK                         _______ _______ _______ _____ _____    ______ ____
ROOT
ATOM      1  C   UNL     1       0.269  11.871  19.674  0.00  0.00    +0.000 A 
ATOM      2  C   UNL     1       0.239  10.525  19.340  0.00  0.00    +0.000 A 
ATOM      3  N   UNL     1       1.150   9.630  19.935  0.00  0.00    +0.000 N 
ATOM      4  N   UNL     1      -0.612  10.051  18.411  0.00  0.00    +0.000 NA
ATOM      5  C   UNL     1      -1.459  10.905  17.825  0.00  0.00    +0.000 A 
ATOM      6  N   UNL     1      -1.526  12.213  18.110  0.00  0.00    +0.000 NA
ATOM      7  C   UNL     1      -0.665  12.696  19.049  0.00  0.00    +0.000 A 
ATOM      8  H   UNL     1       1.252   9.716  20.939  0.00  0.00    +0.000 HD
ENDROOT
BRANCH   3   9
ATOM      9  C   UNL     1       1.773   8.503  19.377  0.00  0.00    +0.000 A 
ATOM     10  C   UNL     1       2.383   8.543  18.119  0.00  0.00    +0.000 A 
ATOM     11  C   UNL     1       3.119   7.457  17.642  0.00  0.00    +0.000 A 
ATOM     12  C   UNL     1       3.241   6.292  18.409  0.00  0.00    +0.000 A 
ATOM     13  C   UNL     1       2.548   6.209  19.624  0.00  0.00    +0.000 A 
ATOM     14  C   UNL     1       1.824   7.306  20.103  0.00  0.00    +0.000 A 
BRANCH  12  15
ATOM     15  C   UNL     1       4.140   5.165  17.966  0.00  0.00    +0.000 C 
ATOM     16  F   UNL     1       5.190   4.943  18.804  0.00  0.00    +0.000 F 
ATOM     17  F   UNL     1       3.472   3.978  17.891  0.00  0.00    +0.000 F 
ATOM     18  F   UNL     1       4.677   5.369  16.733  0.00  0.00    +0.000 F 
ENDBRANCH  12  15
ENDBRANCH   3   9
BRANCH   7  19
ATOM     19  C   UNL     1      -0.776  14.160  19.298  0.00  0.00    +0.000 A 
ATOM     20  C   UNL     1      -1.560  14.699  20.339  0.00  0.00    +0.000 A 
ATOM     21  C   UNL     1      -1.544  16.064  20.641  0.00  0.00    +0.000 A 
ATOM     22  C   UNL     1      -0.789  16.937  19.869  0.00  0.00    +0.000 A 
ATOM     23  C   UNL     1      -0.070  16.448  18.784  0.00  0.00    +0.000 A 
ATOM     24  C   UNL     1      -0.065  15.077  18.503  0.00  0.00    +0.000 A 
ENDBRANCH   7  19
BRANCH   1  26
ATOM     25  N   UNL     1       2.101  12.786  21.258  0.00  0.00    +0.000 NA
ATOM     26  C   UNL     1       1.281  12.352  20.558  0.00  0.00    +0.000 C 
ENDBRANCH   1  26
BRANCH   5  27
ATOM     27  S   UNL     1      -2.578  10.176  16.656  0.00  0.00    +0.000 S 
BRANCH  27  28
ATOM     28  C   UNL     1      -3.964   9.711  17.734  0.00  0.00    +0.000 C 
BRANCH  28  29
ATOM     29  C   UNL     1      -4.969  10.842  17.850  0.00  0.00    +0.000 A 
ATOM     30  C   UNL     1      -4.967  11.895  16.922  0.00  0.00    +0.000 A 
ATOM     31  C   UNL     1      -5.879  12.949  17.037  0.00  0.00    +0.000 A 
ATOM     32  C   UNL     1      -6.796  12.963  18.086  0.00  0.00    +0.000 A 
ATOM     33 CL   UNL     1      -7.917  14.262  18.228  0.00  0.00    +0.000 Cl
ATOM     34  C   UNL     1      -6.809  11.932  19.021  0.00  0.00    +0.000 A 
ATOM     35  C   UNL     1      -5.897  10.876  18.906  0.00  0.00    +0.000 A 
ENDBRANCH  28  29
ENDBRANCH  27  28
ENDBRANCH   5  27
TORSDOF 7
ENDMDL
