MODEL 1
REMARK VINA RESULT:      -7.8      0.000      0.000
REMARK  Name = 
REMARK  9 active torsions:
REMARK  status: ('A' for Active; 'I' for Inactive)
REMARK    1  A    between atoms: C_1  and  O_2
REMARK    2  A    between atoms: O_2  and  C_3
REMARK    3  A    between atoms: C_7  and  C_8
REMARK    4  A    between atoms: C_8  and  C_10
REMARK    5  A    between atoms: C_10  and  C_11
REMARK    6  A    between atoms: C_11  and  C_12
REMARK    7  A    between atoms: C_12  and  N_13
REMARK    8  A    between atoms: C_16  and  C_17
REMARK    9  A    between atoms: C_17  and  C_18
REMARK                            x       y       z     vdW  Elec       q    Type
REMARK                         _______ _______ _______ _____ _____    ______ ____
ROOT
ATOM      1  C   UNL     1       7.862   6.711  18.452  0.00  0.00    +0.000 C 
ENDROOT
BRANCH   1   2
ATOM      2  N   UNL     1       6.921   5.871  17.665  0.00  0.00    +0.000 NA
ATOM      3  C   UNL     1       6.180   4.934  18.544  0.00  0.00    +0.000 C 
ATOM      4  C   UNL     1       5.301   4.018  17.698  0.00  0.00    +0.000 C 
ATOM      5  C   UNL     1       4.282   4.854  16.933  0.00  0.00    +0.000 C 
ATOM      6  C   UNL     1       5.077   5.822  16.028  0.00  0.00    +0.000 C 
ATOM      7  C   UNL     1       6.024   6.710  16.858  0.00  0.00    +0.000 C 
BRANCH   5   8
ATOM      8  C   UNL     1       3.273   5.646  17.829  0.00  0.00    +0.000 C 
BRANCH   8   9
ATOM      9  C   UNL     1       2.483   4.812  18.818  0.00  0.00    +0.000 A 
ATOM     10  C   UNL     1       1.599   3.819  18.346  0.00  0.00    +0.000 A 
ATOM     11  C   UNL     1       0.866   3.038  19.243  0.00  0.00    +0.000 A 
ATOM     12  C   UNL     1       1.017   3.223  20.620  0.00  0.00    +0.000 A 
ATOM     13  C   UNL     1       1.890   4.201  21.100  0.00  0.00    +0.000 A 
ATOM     14  C   UNL     1       2.614   4.996  20.207  0.00  0.00    +0.000 A 
ENDBRANCH   8   9
ENDBRANCH   5   8
ENDBRANCH   1   2
BRANCH   1  15
ATOM     15  C   UNL     1       7.858   8.139  17.909  0.00  0.00    +0.000 C 
BRANCH  15  16
ATOM     16  C   UNL     1       8.741   9.011  18.790  0.00  0.00    +0.000 C 
BRANCH  16  17
ATOM     17  C   UNL     1       8.826  10.428  18.324  0.00  0.00    +0.000 C 
ATOM     18  O   UNL     1       8.059  10.851  17.467  0.00  0.00    +0.000 OA
BRANCH  17  23
ATOM     19  C   UNL     1      10.437  13.023  20.598  0.00  0.00    +0.000 A 
ATOM     20  C   UNL     1      11.714  13.090  20.028  0.00  0.00    +0.000 A 
ATOM     21  C   UNL     1      12.062  12.295  18.934  0.00  0.00    +0.000 A 
ATOM     22  C   UNL     1      11.124  11.419  18.381  0.00  0.00    +0.000 A 
ATOM     23  C   UNL     1       9.839  11.336  18.922  0.00  0.00    +0.000 A 
ATOM     24  C   UNL     1       9.500  12.131  20.038  0.00  0.00    +0.000 A 
BRANCH  19  26
ATOM     25  C   UNL     1       9.244  14.902  21.647  0.00  0.00    +0.000 C 
ATOM     26  O   UNL     1      10.131  13.827  21.645  0.00  0.00    +0.000 OA
ENDBRANCH  19  26
ENDBRANCH  17  23
ENDBRANCH  16  17
ENDBRANCH  15  16
ENDBRANCH   1  15
TORSDOF 8
ENDMDL
MODEL 2
REMARK VINA RESULT:      -7.8      1.735      1.837
REMARK  Name = 
REMARK  9 active torsions:
REMARK  status: ('A' for Active; 'I' for Inactive)
REMARK    1  A    between atoms: C_1  and  O_2
REMARK    2  A    between atoms: O_2  and  C_3
REMARK    3  A    between atoms: C_7  and  C_8
REMARK    4  A    between atoms: C_8  and  C_10
REMARK    5  A    between atoms: C_10  and  C_11
REMARK    6  A    between atoms: C_11  and  C_12
REMARK    7  A    between atoms: C_12  and  N_13
REMARK    8  A    between atoms: C_16  and  C_17
REMARK    9  A    between atoms: C_17  and  C_18
REMARK                            x       y       z     vdW  Elec       q    Type
REMARK                         _______ _______ _______ _____ _____    ______ ____
ROOT
ATOM      1  C   UNL     1       6.435   7.748  17.436  0.00  0.00    +0.000 C 
ENDROOT
BRANCH   1   2
ATOM      2  N   UNL     1       6.266   6.277  17.299  0.00  0.00    +0.000 NA
ATOM      3  C   UNL     1       5.606   5.703  18.497  0.00  0.00    +0.000 C 
ATOM      4  C   UNL     1       5.539   4.185  18.371  0.00  0.00    +0.000 C 
ATOM      5  C   UNL     1       4.707   3.810  17.151  0.00  0.00    +0.000 C 
ATOM      6  C   UNL     1       5.411   4.421  15.918  0.00  0.00    +0.000 C 
ATOM      7  C   UNL     1       5.552   5.949  16.057  0.00  0.00    +0.000 C 
BRANCH   5   8
ATOM      8  C   UNL     1       3.211   4.265  17.208  0.00  0.00    +0.000 C 
BRANCH   8   9
ATOM      9  C   UNL     1       2.467   3.905  18.478  0.00  0.00    +0.000 A 
ATOM     10  C   UNL     1       2.225   2.550  18.787  0.00  0.00    +0.000 A 
ATOM     11  C   UNL     1       1.545   2.199  19.956  0.00  0.00    +0.000 A 
ATOM     12  C   UNL     1       1.112   3.192  20.839  0.00  0.00    +0.000 A 
ATOM     13  C   UNL     1       1.346   4.536  20.546  0.00  0.00    +0.000 A 
ATOM     14  C   UNL     1       2.014   4.893  19.371  0.00  0.00    +0.000 A 
ENDBRANCH   8   9
ENDBRANCH   5   8
ENDBRANCH   1   2
BRANCH   1  15
ATOM     15  C   UNL     1       7.890   8.071  17.769  0.00  0.00    +0.000 C 
BRANCH  15  16
ATOM     16  C   UNL     1       8.154   9.543  17.481  0.00  0.00    +0.000 C 
BRANCH  16  17
ATOM     17  C   UNL     1       9.026  10.199  18.503  0.00  0.00    +0.000 C 
ATOM     18  O   UNL     1       9.220   9.669  19.591  0.00  0.00    +0.000 OA
BRANCH  17  23
ATOM     19  C   UNL     1       9.534  13.933  17.958  0.00  0.00    +0.000 A 
ATOM     20  C   UNL     1      10.870  13.940  17.541  0.00  0.00    +0.000 A 
ATOM     21  C   UNL     1      11.608  12.758  17.453  0.00  0.00    +0.000 A 
ATOM     22  C   UNL     1      11.011  11.536  17.774  0.00  0.00    +0.000 A 
ATOM     23  C   UNL     1       9.677  11.495  18.186  0.00  0.00    +0.000 A 
ATOM     24  C   UNL     1       8.942  12.696  18.288  0.00  0.00    +0.000 A 
BRANCH  19  26
ATOM     25  C   UNL     1       9.317  16.369  17.692  0.00  0.00    +0.000 C 
ATOM     26  O   UNL     1       8.843  15.098  18.009  0.00  0.00    +0.000 OA
ENDBRANCH  19  26
ENDBRANCH  17  23
ENDBRANCH  16  17
ENDBRANCH  15  16
ENDBRANCH   1  15
TORSDOF 8
ENDMDL
MODEL 3
REMARK VINA RESULT:      -7.4      1.894      2.733
REMARK  Name = 
REMARK  9 active torsions:
REMARK  status: ('A' for Active; 'I' for Inactive)
REMARK    1  A    between atoms: C_1  and  O_2
REMARK    2  A    between atoms: O_2  and  C_3
REMARK    3  A    between atoms: C_7  and  C_8
REMARK    4  A    between atoms: C_8  and  C_10
REMARK    5  A    between atoms: C_10  and  C_11
REMARK    6  A    between atoms: C_11  and  C_12
REMARK    7  A    between atoms: C_12  and  N_13
REMARK    8  A    between atoms: C_16  and  C_17
REMARK    9  A    between atoms: C_17  and  C_18
REMARK                            x       y       z     vdW  Elec       q    Type
REMARK                         _______ _______ _______ _____ _____    ______ ____
ROOT
ATOM      1  C   UNL     1       7.450   8.839  17.699  0.00  0.00    +0.000 C 
ENDROOT
BRANCH   1   2
ATOM      2  N   UNL     1       7.370   7.380  17.422  0.00  0.00    +0.000 NA
ATOM      3  C   UNL     1       7.795   6.590  18.604  0.00  0.00    +0.000 C 
ATOM      4  C   UNL     1       7.801   5.105  18.258  0.00  0.00    +0.000 C 
ATOM      5  C   UNL     1       6.392   4.664  17.878  0.00  0.00    +0.000 C 
ATOM      6  C   UNL     1       5.972   5.501  16.649  0.00  0.00    +0.000 C 
ATOM      7  C   UNL     1       6.026   7.010  16.957  0.00  0.00    +0.000 C 
BRANCH   5   8
ATOM      8  C   UNL     1       5.330   4.796  19.019  0.00  0.00    +0.000 C 
BRANCH   8   9
ATOM      9  C   UNL     1       4.000   4.119  18.755  0.00  0.00    +0.000 A 
ATOM     10  C   UNL     1       2.801   4.841  18.927  0.00  0.00    +0.000 A 
ATOM     11  C   UNL     1       1.566   4.235  18.684  0.00  0.00    +0.000 A 
ATOM     12  C   UNL     1       1.510   2.908  18.250  0.00  0.00    +0.000 A 
ATOM     13  C   UNL     1       2.690   2.182  18.075  0.00  0.00    +0.000 A 
ATOM     14  C   UNL     1       3.927   2.779  18.331  0.00  0.00    +0.000 A 
ENDBRANCH   8   9
ENDBRANCH   5   8
ENDBRANCH   1   2
BRANCH   1  15
ATOM     15  C   UNL     1       8.773   9.162  18.390  0.00  0.00    +0.000 C 
BRANCH  15  16
ATOM     16  C   UNL     1       9.027  10.661  18.306  0.00  0.00    +0.000 C 
BRANCH  16  17
ATOM     17  C   UNL     1      10.056  11.142  19.277  0.00  0.00    +0.000 C 
ATOM     18  O   UNL     1      11.250  10.984  19.052  0.00  0.00    +0.000 OA
BRANCH  17  23
ATOM     19  C   UNL     1       8.436  11.787  22.663  0.00  0.00    +0.000 A 
ATOM     20  C   UNL     1       8.754  13.139  22.833  0.00  0.00    +0.000 A 
ATOM     21  C   UNL     1       9.498  13.835  21.877  0.00  0.00    +0.000 A 
ATOM     22  C   UNL     1       9.931  13.183  20.719  0.00  0.00    +0.000 A 
ATOM     23  C   UNL     1       9.623  11.836  20.517  0.00  0.00    +0.000 A 
ATOM     24  C   UNL     1       8.885  11.135  21.495  0.00  0.00    +0.000 A 
BRANCH  19  26
ATOM     25  C   UNL     1       7.131  11.711  24.747  0.00  0.00    +0.000 C 
ATOM     26  O   UNL     1       7.693  11.151  23.602  0.00  0.00    +0.000 OA
ENDBRANCH  19  26
ENDBRANCH  17  23
ENDBRANCH  16  17
ENDBRANCH  15  16
ENDBRANCH   1  15
TORSDOF 8
ENDMDL
MODEL 4
REMARK VINA RESULT:      -7.4      1.010      1.405
REMARK  Name = 
REMARK  9 active torsions:
REMARK  status: ('A' for Active; 'I' for Inactive)
REMARK    1  A    between atoms: C_1  and  O_2
REMARK    2  A    between atoms: O_2  and  C_3
REMARK    3  A    between atoms: C_7  and  C_8
REMARK    4  A    between atoms: C_8  and  C_10
REMARK    5  A    between atoms: C_10  and  C_11
REMARK    6  A    between atoms: C_11  and  C_12
REMARK    7  A    between atoms: C_12  and  N_13
REMARK    8  A    between atoms: C_16  and  C_17
REMARK    9  A    between atoms: C_17  and  C_18
REMARK                            x       y       z     vdW  Elec       q    Type
REMARK                         _______ _______ _______ _____ _____    ______ ____
ROOT
ATOM      1  C   UNL     1       8.122   7.323  18.327  0.00  0.00    +0.000 C 
ENDROOT
BRANCH   1   2
ATOM      2  N   UNL     1       7.229   6.385  17.595  0.00  0.00    +0.000 NA
ATOM      3  C   UNL     1       6.563   5.446  18.530  0.00  0.00    +0.000 C 
ATOM      4  C   UNL     1       5.737   4.434  17.743  0.00  0.00    +0.000 C 
ATOM      5  C   UNL     1       4.654   5.162  16.956  0.00  0.00    +0.000 C 
ATOM      6  C   UNL     1       5.371   6.135  15.993  0.00  0.00    +0.000 C 
ATOM      7  C   UNL     1       6.268   7.123  16.764  0.00  0.00    +0.000 C 
BRANCH   5   8
ATOM      8  C   UNL     1       3.606   5.929  17.830  0.00  0.00    +0.000 C 
BRANCH   8   9
ATOM      9  C   UNL     1       2.654   5.057  18.622  0.00  0.00    +0.000 A 
ATOM     10  C   UNL     1       2.461   5.302  19.998  0.00  0.00    +0.000 A 
ATOM     11  C   UNL     1       1.583   4.511  20.743  0.00  0.00    +0.000 A 
ATOM     12  C   UNL     1       0.875   3.476  20.126  0.00  0.00    +0.000 A 
ATOM     13  C   UNL     1       1.056   3.224  18.765  0.00  0.00    +0.000 A 
ATOM     14  C   UNL     1       1.944   4.003  18.017  0.00  0.00    +0.000 A 
ENDBRANCH   8   9
ENDBRANCH   5   8
ENDBRANCH   1   2
BRANCH   1  15
ATOM     15  C   UNL     1       7.679   8.762  18.071  0.00  0.00    +0.000 C 
BRANCH  15  16
ATOM     16  C   UNL     1       8.908   9.625  17.818  0.00  0.00    +0.000 C 
BRANCH  16  17
ATOM     17  C   UNL     1       9.316  10.436  19.005  0.00  0.00    +0.000 C 
ATOM     18  O   UNL     1       8.939  10.130  20.130  0.00  0.00    +0.000 OA
BRANCH  17  23
ATOM     19  C   UNL     1      11.137  13.714  19.670  0.00  0.00    +0.000 A 
ATOM     20  C   UNL     1      11.831  13.858  18.462  0.00  0.00    +0.000 A 
ATOM     21  C   UNL     1      11.729  12.902  17.449  0.00  0.00    +0.000 A 
ATOM     22  C   UNL     1      10.915  11.780  17.627  0.00  0.00    +0.000 A 
ATOM     23  C   UNL     1      10.205  11.612  18.817  0.00  0.00    +0.000 A 
ATOM     24  C   UNL     1      10.325  12.574  19.843  0.00  0.00    +0.000 A 
BRANCH  19  26
ATOM     25  C   UNL     1      10.306  14.994  21.599  0.00  0.00    +0.000 C 
ATOM     26  O   UNL     1      11.244  14.674  20.620  0.00  0.00    +0.000 OA
ENDBRANCH  19  26
ENDBRANCH  17  23
ENDBRANCH  16  17
ENDBRANCH  15  16
ENDBRANCH   1  15
TORSDOF 8
ENDMDL
MODEL 5
REMARK VINA RESULT:      -7.4      1.637      2.192
REMARK  Name = 
REMARK  9 active torsions:
REMARK  status: ('A' for Active; 'I' for Inactive)
REMARK    1  A    between atoms: C_1  and  O_2
REMARK    2  A    between atoms: O_2  and  C_3
REMARK    3  A    between atoms: C_7  and  C_8
REMARK    4  A    between atoms: C_8  and  C_10
REMARK    5  A    between atoms: C_10  and  C_11
REMARK    6  A    between atoms: C_11  and  C_12
REMARK    7  A    between atoms: C_12  and  N_13
REMARK    8  A    between atoms: C_16  and  C_17
REMARK    9  A    between atoms: C_17  and  C_18
REMARK                            x       y       z     vdW  Elec       q    Type
REMARK                         _______ _______ _______ _____ _____    ______ ____
ROOT
ATOM      1  C   UNL     1       7.076   8.326  17.526  0.00  0.00    +0.000 C 
ENDROOT
BRANCH   1   2
ATOM      2  N   UNL     1       6.584   7.005  17.053  0.00  0.00    +0.000 NA
ATOM      3  C   UNL     1       7.320   5.896  17.708  0.00  0.00    +0.000 C 
ATOM      4  C   UNL     1       6.865   4.561  17.129  0.00  0.00    +0.000 C 
ATOM      5  C   UNL     1       5.379   4.366  17.402  0.00  0.00    +0.000 C 
ATOM      6  C   UNL     1       4.635   5.532  16.713  0.00  0.00    +0.000 C 
ATOM      7  C   UNL     1       5.130   6.895  17.235  0.00  0.00    +0.000 C 
BRANCH   5   8
ATOM      8  C   UNL     1       4.992   4.288  18.917  0.00  0.00    +0.000 C 
BRANCH   8   9
ATOM      9  C   UNL     1       3.567   3.860  19.205  0.00  0.00    +0.000 A 
ATOM     10  C   UNL     1       2.792   4.588  20.132  0.00  0.00    +0.000 A 
ATOM     11  C   UNL     1       1.476   4.210  20.407  0.00  0.00    +0.000 A 
ATOM     12  C   UNL     1       0.909   3.115  19.751  0.00  0.00    +0.000 A 
ATOM     13  C   UNL     1       1.664   2.387  18.830  0.00  0.00    +0.000 A 
ATOM     14  C   UNL     1       2.987   2.751  18.562  0.00  0.00    +0.000 A 
ENDBRANCH   8   9
ENDBRANCH   5   8
ENDBRANCH   1   2
BRANCH   1  15
ATOM     15  C   UNL     1       8.505   8.188  18.046  0.00  0.00    +0.000 C 
BRANCH  15  16
ATOM     16  C   UNL     1       8.816   9.360  18.967  0.00  0.00    +0.000 C 
BRANCH  16  17
ATOM     17  C   UNL     1       8.956  10.660  18.245  0.00  0.00    +0.000 C 
ATOM     18  O   UNL     1       8.113  11.015  17.428  0.00  0.00    +0.000 OA
BRANCH  17  23
ATOM     19  C   UNL     1      11.622  13.350  17.853  0.00  0.00    +0.000 A 
ATOM     20  C   UNL     1      12.333  13.166  19.045  0.00  0.00    +0.000 A 
ATOM     21  C   UNL     1      11.949  12.199  19.976  0.00  0.00    +0.000 A 
ATOM     22  C   UNL     1      10.842  11.385  19.721  0.00  0.00    +0.000 A 
ATOM     23  C   UNL     1      10.117  11.539  18.537  0.00  0.00    +0.000 A 
ATOM     24  C   UNL     1      10.502  12.530  17.609  0.00  0.00    +0.000 A 
BRANCH  19  26
ATOM     25  C   UNL     1      11.654  15.621  16.908  0.00  0.00    +0.000 C 
ATOM     26  O   UNL     1      12.039  14.284  16.964  0.00  0.00    +0.000 OA
ENDBRANCH  19  26
ENDBRANCH  17  23
ENDBRANCH  16  17
ENDBRANCH  15  16
ENDBRANCH   1  15
TORSDOF 8
ENDMDL
MODEL 6
REMARK VINA RESULT:      -7.4      1.915      2.753
REMARK  Name = 
REMARK  9 active torsions:
REMARK  status: ('A' for Active; 'I' for Inactive)
REMARK    1  A    between atoms: C_1  and  O_2
REMARK    2  A    between atoms: O_2  and  C_3
REMARK    3  A    between atoms: C_7  and  C_8
REMARK    4  A    between atoms: C_8  and  C_10
REMARK    5  A    between atoms: C_10  and  C_11
REMARK    6  A    between atoms: C_11  and  C_12
REMARK    7  A    between atoms: C_12  and  N_13
REMARK    8  A    between atoms: C_16  and  C_17
REMARK    9  A    between atoms: C_17  and  C_18
REMARK                            x       y       z     vdW  Elec       q    Type
REMARK                         _______ _______ _______ _____ _____    ______ ____
ROOT
ATOM      1  C   UNL     1       7.562   8.883  17.549  0.00  0.00    +0.000 C 
ENDROOT
BRANCH   1   2
ATOM      2  N   UNL     1       7.472   7.410  17.364  0.00  0.00    +0.000 NA
ATOM      3  C   UNL     1       7.829   6.694  18.613  0.00  0.00    +0.000 C 
ATOM      4  C   UNL     1       7.828   5.189  18.365  0.00  0.00    +0.000 C 
ATOM      5  C   UNL     1       6.432   4.743  17.948  0.00  0.00    +0.000 C 
ATOM      6  C   UNL     1       6.081   5.503  16.649  0.00  0.00    +0.000 C 
ATOM      7  C   UNL     1       6.146   7.028  16.861  0.00  0.00    +0.000 C 
BRANCH   5   8
ATOM      8  C   UNL     1       5.320   4.962  19.028  0.00  0.00    +0.000 C 
BRANCH   8   9
ATOM      9  C   UNL     1       3.998   4.276  18.752  0.00  0.00    +0.000 A 
ATOM     10  C   UNL     1       3.980   3.033  18.086  0.00  0.00    +0.000 A 
ATOM     11  C   UNL     1       2.770   2.383  17.827  0.00  0.00    +0.000 A 
ATOM     12  C   UNL     1       1.565   2.955  18.242  0.00  0.00    +0.000 A 
ATOM     13  C   UNL     1       1.568   4.185  18.903  0.00  0.00    +0.000 A 
ATOM     14  C   UNL     1       2.774   4.846  19.152  0.00  0.00    +0.000 A 
ENDBRANCH   8   9
ENDBRANCH   5   8
ENDBRANCH   1   2
BRANCH   1  15
ATOM     15  C   UNL     1       8.725   9.217  18.480  0.00  0.00    +0.000 C 
BRANCH  15  16
ATOM     16  C   UNL     1       9.232  10.618  18.165  0.00  0.00    +0.000 C 
BRANCH  16  17
ATOM     17  C   UNL     1      10.013  11.229  19.282  0.00  0.00    +0.000 C 
ATOM     18  O   UNL     1      11.238  11.184  19.286  0.00  0.00    +0.000 OA
BRANCH  17  23
ATOM     19  C   UNL     1       8.262  11.833  22.609  0.00  0.00    +0.000 A 
ATOM     20  C   UNL     1       7.900  13.176  22.456  0.00  0.00    +0.000 A 
ATOM     21  C   UNL     1       8.231  13.889  21.301  0.00  0.00    +0.000 A 
ATOM     22  C   UNL     1       8.928  13.258  20.267  0.00  0.00    +0.000 A 
ATOM     23  C   UNL     1       9.296  11.916  20.387  0.00  0.00    +0.000 A 
ATOM     24  C   UNL     1       8.973  11.207  21.564  0.00  0.00    +0.000 A 
BRANCH  19  26
ATOM     25  C   UNL     1       7.353  11.714  24.892  0.00  0.00    +0.000 C 
ATOM     26  O   UNL     1       7.903  11.169  23.735  0.00  0.00    +0.000 OA
ENDBRANCH  19  26
ENDBRANCH  17  23
ENDBRANCH  16  17
ENDBRANCH  15  16
ENDBRANCH   1  15
TORSDOF 8
ENDMDL
MODEL 7
REMARK VINA RESULT:      -7.4      5.304      8.982
REMARK  Name = 
REMARK  9 active torsions:
REMARK  status: ('A' for Active; 'I' for Inactive)
REMARK    1  A    between atoms: C_1  and  O_2
REMARK    2  A    between atoms: O_2  and  C_3
REMARK    3  A    between atoms: C_7  and  C_8
REMARK    4  A    between atoms: C_8  and  C_10
REMARK    5  A    between atoms: C_10  and  C_11
REMARK    6  A    between atoms: C_11  and  C_12
REMARK    7  A    between atoms: C_12  and  N_13
REMARK    8  A    between atoms: C_16  and  C_17
REMARK    9  A    between atoms: C_17  and  C_18
REMARK                            x       y       z     vdW  Elec       q    Type
REMARK                         _______ _______ _______ _____ _____    ______ ____
ROOT
ATOM      1  C   UNL     1       1.834   7.868  21.054  0.00  0.00    +0.000 C 
ENDROOT
BRANCH   1   2
ATOM      2  N   UNL     1       1.647   6.734  20.109  0.00  0.00    +0.000 NA
ATOM      3  C   UNL     1       2.608   6.816  18.982  0.00  0.00    +0.000 C 
ATOM      4  C   UNL     1       2.325   5.702  17.980  0.00  0.00    +0.000 C 
ATOM      5  C   UNL     1       2.507   4.349  18.656  0.00  0.00    +0.000 C 
ATOM      6  C   UNL     1       1.499   4.289  19.827  0.00  0.00    +0.000 C 
ATOM      7  C   UNL     1       1.723   5.449  20.816  0.00  0.00    +0.000 C 
BRANCH   5   8
ATOM      8  C   UNL     1       3.957   4.057  19.167  0.00  0.00    +0.000 C 
BRANCH   8   9
ATOM      9  C   UNL     1       5.068   4.357  18.182  0.00  0.00    +0.000 A 
ATOM     10  C   UNL     1       5.017   3.813  16.882  0.00  0.00    +0.000 A 
ATOM     11  C   UNL     1       6.031   4.083  15.959  0.00  0.00    +0.000 A 
ATOM     12  C   UNL     1       7.099   4.910  16.313  0.00  0.00    +0.000 A 
ATOM     13  C   UNL     1       7.162   5.456  17.596  0.00  0.00    +0.000 A 
ATOM     14  C   UNL     1       6.158   5.178  18.528  0.00  0.00    +0.000 A 
ENDBRANCH   8   9
ENDBRANCH   5   8
ENDBRANCH   1   2
BRANCH   1  15
ATOM     15  C   UNL     1       0.530   8.652  21.183  0.00  0.00    +0.000 C 
BRANCH  15  16
ATOM     16  C   UNL     1       0.767  10.091  20.744  0.00  0.00    +0.000 C 
BRANCH  16  17
ATOM     17  C   UNL     1       0.580  10.300  19.276  0.00  0.00    +0.000 C 
ATOM     18  O   UNL     1       1.531  10.218  18.507  0.00  0.00    +0.000 OA
BRANCH  17  23
ATOM     19  C   UNL     1      -2.510  10.206  17.054  0.00  0.00    +0.000 A 
ATOM     20  C   UNL     1      -3.307  11.158  17.700  0.00  0.00    +0.000 A 
ATOM     21  C   UNL     1      -2.863  11.813  18.851  0.00  0.00    +0.000 A 
ATOM     22  C   UNL     1      -1.598  11.529  19.372  0.00  0.00    +0.000 A 
ATOM     23  C   UNL     1      -0.776  10.589  18.745  0.00  0.00    +0.000 A 
ATOM     24  C   UNL     1      -1.239   9.919  17.592  0.00  0.00    +0.000 A 
BRANCH  19  26
ATOM     25  C   UNL     1      -3.036  10.163  14.650  0.00  0.00    +0.000 C 
ATOM     26  O   UNL     1      -2.967   9.608  15.926  0.00  0.00    +0.000 OA
ENDBRANCH  19  26
ENDBRANCH  17  23
ENDBRANCH  16  17
ENDBRANCH  15  16
ENDBRANCH   1  15
TORSDOF 8
ENDMDL
MODEL 8
REMARK VINA RESULT:      -7.3      5.686      8.676
REMARK  Name = 
REMARK  9 active torsions:
REMARK  status: ('A' for Active; 'I' for Inactive)
REMARK    1  A    between atoms: C_1  and  O_2
REMARK    2  A    between atoms: O_2  and  C_3
REMARK    3  A    between atoms: C_7  and  C_8
REMARK    4  A    between atoms: C_8  and  C_10
REMARK    5  A    between atoms: C_10  and  C_11
REMARK    6  A    between atoms: C_11  and  C_12
REMARK    7  A    between atoms: C_12  and  N_13
REMARK    8  A    between atoms: C_16  and  C_17
REMARK    9  A    between atoms: C_17  and  C_18
REMARK                            x       y       z     vdW  Elec       q    Type
REMARK                         _______ _______ _______ _____ _____    ______ ____
ROOT
ATOM      1  C   UNL     1       2.468   7.219  19.555  0.00  0.00    +0.000 C 
ENDROOT
BRANCH   1   2
ATOM      2  N   UNL     1       1.976   8.623  19.532  0.00  0.00    +0.000 NA
ATOM      3  C   UNL     1       1.346   8.946  18.229  0.00  0.00    +0.000 C 
ATOM      4  C   UNL     1       0.946  10.417  18.199  0.00  0.00    +0.000 C 
ATOM      5  C   UNL     1      -0.077  10.689  19.296  0.00  0.00    +0.000 C 
ATOM      6  C   UNL     1       0.600  10.343  20.641  0.00  0.00    +0.000 C 
ATOM      7  C   UNL     1       1.076   8.878  20.666  0.00  0.00    +0.000 C 
BRANCH   5   8
ATOM      8  C   UNL     1      -1.427   9.912  19.146  0.00  0.00    +0.000 C 
BRANCH   8   9
ATOM      9  C   UNL     1      -2.265  10.286  17.941  0.00  0.00    +0.000 A 
ATOM     10  C   UNL     1      -3.326  11.204  18.084  0.00  0.00    +0.000 A 
ATOM     11  C   UNL     1      -4.107  11.563  16.982  0.00  0.00    +0.000 A 
ATOM     12  C   UNL     1      -3.830  11.027  15.722  0.00  0.00    +0.000 A 
ATOM     13  C   UNL     1      -2.782  10.118  15.566  0.00  0.00    +0.000 A 
ATOM     14  C   UNL     1      -2.007   9.744  16.668  0.00  0.00    +0.000 A 
ENDBRANCH   8   9
ENDBRANCH   5   8
ENDBRANCH   1   2
BRANCH   1  15
ATOM     15  C   UNL     1       2.348   6.608  18.161  0.00  0.00    +0.000 C 
BRANCH  15  16
ATOM     16  C   UNL     1       2.264   5.093  18.286  0.00  0.00    +0.000 C 
BRANCH  16  17
ATOM     17  C   UNL     1       3.451   4.489  18.964  0.00  0.00    +0.000 C 
ATOM     18  O   UNL     1       3.330   3.915  20.040  0.00  0.00    +0.000 OA
BRANCH  17  23
ATOM     19  C   UNL     1       6.225   4.115  16.383  0.00  0.00    +0.000 A 
ATOM     20  C   UNL     1       7.299   4.661  17.096  0.00  0.00    +0.000 A 
ATOM     21  C   UNL     1       7.130   5.162  18.389  0.00  0.00    +0.000 A 
ATOM     22  C   UNL     1       5.873   5.114  18.998  0.00  0.00    +0.000 A 
ATOM     23  C   UNL     1       4.784   4.568  18.315  0.00  0.00    +0.000 A 
ATOM     24  C   UNL     1       4.959   4.079  17.003  0.00  0.00    +0.000 A 
BRANCH  19  26
ATOM     25  C   UNL     1       6.168   4.252  13.927  0.00  0.00    +0.000 C 
ATOM     26  O   UNL     1       6.433   3.619  15.139  0.00  0.00    +0.000 OA
ENDBRANCH  19  26
ENDBRANCH  17  23
ENDBRANCH  16  17
ENDBRANCH  15  16
ENDBRANCH   1  15
TORSDOF 8
ENDMDL
MODEL 9
REMARK VINA RESULT:      -7.3      1.406      1.932
REMARK  Name = 
REMARK  9 active torsions:
REMARK  status: ('A' for Active; 'I' for Inactive)
REMARK    1  A    between atoms: C_1  and  O_2
REMARK    2  A    between atoms: O_2  and  C_3
REMARK    3  A    between atoms: C_7  and  C_8
REMARK    4  A    between atoms: C_8  and  C_10
REMARK    5  A    between atoms: C_10  and  C_11
REMARK    6  A    between atoms: C_11  and  C_12
REMARK    7  A    between atoms: C_12  and  N_13
REMARK    8  A    between atoms: C_16  and  C_17
REMARK    9  A    between atoms: C_17  and  C_18
REMARK                            x       y       z     vdW  Elec       q    Type
REMARK                         _______ _______ _______ _____ _____    ______ ____
ROOT
ATOM      1  C   UNL     1       7.078   8.554  17.584  0.00  0.00    +0.000 C 
ENDROOT
BRANCH   1   2
ATOM      2  N   UNL     1       6.943   7.134  17.162  0.00  0.00    +0.000 NA
ATOM      3  C   UNL     1       7.598   6.225  18.133  0.00  0.00    +0.000 C 
ATOM      4  C   UNL     1       7.533   4.790  17.623  0.00  0.00    +0.000 C 
ATOM      5  C   UNL     1       6.076   4.363  17.487  0.00  0.00    +0.000 C 
ATOM      6  C   UNL     1       5.415   5.325  16.474  0.00  0.00    +0.000 C 
ATOM      7  C   UNL     1       5.532   6.789  16.938  0.00  0.00    +0.000 C 
BRANCH   5   8
ATOM      8  C   UNL     1       5.269   4.339  18.827  0.00  0.00    +0.000 C 
BRANCH   8   9
ATOM      9  C   UNL     1       3.857   3.798  18.729  0.00  0.00    +0.000 A 
ATOM     10  C   UNL     1       2.774   4.580  19.183  0.00  0.00    +0.000 A 
ATOM     11  C   UNL     1       1.465   4.099  19.097  0.00  0.00    +0.000 A 
ATOM     12  C   UNL     1       1.216   2.841  18.541  0.00  0.00    +0.000 A 
ATOM     13  C   UNL     1       2.278   2.058  18.086  0.00  0.00    +0.000 A 
ATOM     14  C   UNL     1       3.591   2.528  18.184  0.00  0.00    +0.000 A 
ENDBRANCH   8   9
ENDBRANCH   5   8
ENDBRANCH   1   2
BRANCH   1  15
ATOM     15  C   UNL     1       8.416   8.757  18.291  0.00  0.00    +0.000 C 
BRANCH  15  16
ATOM     16  C   UNL     1       8.887  10.188  18.067  0.00  0.00    +0.000 C 
BRANCH  16  17
ATOM     17  C   UNL     1       9.466  10.819  19.292  0.00  0.00    +0.000 C 
ATOM     18  O   UNL     1       9.243  10.348  20.402  0.00  0.00    +0.000 OA
BRANCH  17  23
ATOM     19  C   UNL     1      10.794  14.366  19.680  0.00  0.00    +0.000 A 
ATOM     20  C   UNL     1      11.936  14.290  18.873  0.00  0.00    +0.000 A 
ATOM     21  C   UNL     1      12.287  13.104  18.224  0.00  0.00    +0.000 A 
ATOM     22  C   UNL     1      11.487  11.967  18.366  0.00  0.00    +0.000 A 
ATOM     23  C   UNL     1      10.337  12.014  19.158  0.00  0.00    +0.000 A 
ATOM     24  C   UNL     1       9.998  13.211  19.823  0.00  0.00    +0.000 A 
BRANCH  19  26
ATOM     25  C   UNL     1      10.954  16.025  21.490  0.00  0.00    +0.000 C 
ATOM     26  O   UNL     1      10.474  15.541  20.275  0.00  0.00    +0.000 OA
ENDBRANCH  19  26
ENDBRANCH  17  23
ENDBRANCH  16  17
ENDBRANCH  15  16
ENDBRANCH   1  15
TORSDOF 8
ENDMDL
