MODEL 1
REMARK VINA RESULT:      -8.6      0.000      0.000
REMARK  Name = 
REMARK  8 active torsions:
REMARK  status: ('A' for Active; 'I' for Inactive)
REMARK    1  A    between atoms: C_1  and  C_2
REMARK    2  A    between atoms: C_2  and  C_3
REMARK    3  A    between atoms: C_8  and  N_9
REMARK    4  A    between atoms: C_10  and  C_12
REMARK    5  A    between atoms: C_14  and  S_15
REMARK    6  A    between atoms: S_15  and  N_18
REMARK    7  A    between atoms: C_21  and  C_22
REMARK    8  A    between atoms: N_26  and  C_27
REMARK                            x       y       z     vdW  Elec       q    Type
REMARK                         _______ _______ _______ _____ _____    ______ ____
ROOT
ATOM      1  C   UNL     1       2.536   7.708  18.547  0.00  0.00    +0.000 A 
ATOM      2  C   UNL     1       3.386   6.926  17.772  0.00  0.00    +0.000 A 
ATOM      3  C   UNL     1       3.793   5.811  18.561  0.00  0.00    +0.000 A 
ATOM      4  C   UNL     1       3.183   5.931  19.792  0.00  0.00    +0.000 A 
ATOM      5  N   UNL     1       2.410   7.060  19.765  0.00  0.00    +0.000 N 
ATOM      6  C   UNL     1       1.527   7.471  20.841  0.00  0.00    +0.000 C 
ENDROOT
BRANCH   1   8
ATOM      7  N   UNL     1       0.888   9.350  19.171  0.00  0.00    +0.000 N 
ATOM      8  C   UNL     1       1.892   8.985  18.280  0.00  0.00    +0.000 C 
ATOM      9  O   UNL     1       2.258   9.667  17.331  0.00  0.00    +0.000 OA
ATOM     10  H   UNL     1       0.602   8.657  19.841  0.00  0.00    +0.000 HD
BRANCH   7  16
ATOM     11  C   UNL     1      -0.913  10.826  18.383  0.00  0.00    +0.000 A 
ATOM     12  C   UNL     1      -1.551  12.090  18.440  0.00  0.00    +0.000 A 
ATOM     13  C   UNL     1      -1.082  13.109  19.267  0.00  0.00    +0.000 A 
ATOM     14  C   UNL     1       0.021  12.882  20.070  0.00  0.00    +0.000 A 
ATOM     15  C   UNL     1       0.656  11.640  20.037  0.00  0.00    +0.000 A 
ATOM     16  C   UNL     1       0.222  10.603  19.192  0.00  0.00    +0.000 A 
BRANCH  11  18
ATOM     17  C   UNL     1      -3.034   9.726  17.465  0.00  0.00    +0.000 C 
ATOM     18  C   UNL     1      -1.514   9.811  17.433  0.00  0.00    +0.000 C 
ENDBRANCH  11  18
ENDBRANCH   7  16
ENDBRANCH   1   8
BRANCH   3  19
ATOM     19  S   UNL     1       4.830   4.511  18.073  0.00  0.00    +0.000 S 
ATOM     20  O   UNL     1       5.482   5.034  16.893  0.00  0.00    +0.000 OA
ATOM     21  O   UNL     1       5.579   4.181  19.265  0.00  0.00    +0.000 OA
BRANCH  19  22
ATOM     22  N   UNL     1       3.873   3.178  17.614  0.00  0.00    +0.000 NA
ATOM     23  C   UNL     1       2.555   3.448  17.000  0.00  0.00    +0.000 C 
ATOM     24  C   UNL     1       1.501   3.791  18.051  0.00  0.00    +0.000 C 
ATOM     25  C   UNL     1       1.436   2.772  19.200  0.00  0.00    +0.000 C 
ATOM     26  C   UNL     1       0.593   3.322  20.356  0.00  0.00    +0.000 C 
ATOM     27  C   UNL     1       2.828   2.364  19.710  0.00  0.00    +0.000 C 
ATOM     28  C   UNL     1       3.804   2.057  18.581  0.00  0.00    +0.000 C 
ENDBRANCH  19  22
ENDBRANCH   3  19
TORSDOF 5
ENDMDL
MODEL 2
REMARK VINA RESULT:      -8.3      1.646      2.095
REMARK  Name = 
REMARK  8 active torsions:
REMARK  status: ('A' for Active; 'I' for Inactive)
REMARK    1  A    between atoms: C_1  and  C_2
REMARK    2  A    between atoms: C_2  and  C_3
REMARK    3  A    between atoms: C_8  and  N_9
REMARK    4  A    between atoms: C_10  and  C_12
REMARK    5  A    between atoms: C_14  and  S_15
REMARK    6  A    between atoms: S_15  and  N_18
REMARK    7  A    between atoms: C_21  and  C_22
REMARK    8  A    between atoms: N_26  and  C_27
REMARK                            x       y       z     vdW  Elec       q    Type
REMARK                         _______ _______ _______ _____ _____    ______ ____
ROOT
ATOM      1  C   UNL     1       2.378   7.146  19.603  0.00  0.00    +0.000 A 
ATOM      2  C   UNL     1       3.153   6.003  19.758  0.00  0.00    +0.000 A 
ATOM      3  C   UNL     1       3.861   5.787  18.540  0.00  0.00    +0.000 A 
ATOM      4  C   UNL     1       3.510   6.801  17.673  0.00  0.00    +0.000 A 
ATOM      5  N   UNL     1       2.638   7.626  18.330  0.00  0.00    +0.000 N 
ATOM      6  C   UNL     1       2.123   8.869  17.785  0.00  0.00    +0.000 C 
ENDROOT
BRANCH   1   8
ATOM      7  N   UNL     1       1.341   9.168  20.400  0.00  0.00    +0.000 N 
ATOM      8  C   UNL     1       1.412   7.783  20.487  0.00  0.00    +0.000 C 
ATOM      9  O   UNL     1       0.718   7.098  21.227  0.00  0.00    +0.000 OA
ATOM     10  H   UNL     1       2.039   9.626  19.838  0.00  0.00    +0.000 HD
BRANCH   7  16
ATOM     11  C   UNL     1      -0.404  10.899  20.326  0.00  0.00    +0.000 A 
ATOM     12  C   UNL     1      -1.350  11.691  21.023  0.00  0.00    +0.000 A 
ATOM     13  C   UNL     1      -1.513  11.592  22.403  0.00  0.00    +0.000 A 
ATOM     14  C   UNL     1      -0.749  10.684  23.115  0.00  0.00    +0.000 A 
ATOM     15  C   UNL     1       0.180   9.887  22.446  0.00  0.00    +0.000 A 
ATOM     16  C   UNL     1       0.385   9.986  21.058  0.00  0.00    +0.000 A 
BRANCH  11  18
ATOM     17  C   UNL     1      -1.342  10.342  18.011  0.00  0.00    +0.000 C 
ATOM     18  C   UNL     1      -0.317  11.115  18.830  0.00  0.00    +0.000 C 
ENDBRANCH  11  18
ENDBRANCH   7  16
ENDBRANCH   1   8
BRANCH   3  19
ATOM     19  S   UNL     1       4.990   4.517  18.201  0.00  0.00    +0.000 S 
ATOM     20  O   UNL     1       5.652   4.974  16.999  0.00  0.00    +0.000 OA
ATOM     21  O   UNL     1       5.715   4.339  19.440  0.00  0.00    +0.000 OA
BRANCH  19  22
ATOM     22  N   UNL     1       4.131   3.091  17.834  0.00  0.00    +0.000 NA
ATOM     23  C   UNL     1       2.856   3.220  17.096  0.00  0.00    +0.000 C 
ATOM     24  C   UNL     1       1.708   3.627  18.017  0.00  0.00    +0.000 C 
ATOM     25  C   UNL     1       1.594   2.746  19.272  0.00  0.00    +0.000 C 
ATOM     26  C   UNL     1       0.638   3.381  20.288  0.00  0.00    +0.000 C 
ATOM     27  C   UNL     1       2.957   2.472  19.928  0.00  0.00    +0.000 C 
ATOM     28  C   UNL     1       4.032   2.088  18.921  0.00  0.00    +0.000 C 
ENDBRANCH  19  22
ENDBRANCH   3  19
TORSDOF 5
ENDMDL
MODEL 3
REMARK VINA RESULT:      -8.2      1.181      1.271
REMARK  Name = 
REMARK  8 active torsions:
REMARK  status: ('A' for Active; 'I' for Inactive)
REMARK    1  A    between atoms: C_1  and  C_2
REMARK    2  A    between atoms: C_2  and  C_3
REMARK    3  A    between atoms: C_8  and  N_9
REMARK    4  A    between atoms: C_10  and  C_12
REMARK    5  A    between atoms: C_14  and  S_15
REMARK    6  A    between atoms: S_15  and  N_18
REMARK    7  A    between atoms: C_21  and  C_22
REMARK    8  A    between atoms: N_26  and  C_27
REMARK                            x       y       z     vdW  Elec       q    Type
REMARK                         _______ _______ _______ _____ _____    ______ ____
ROOT
ATOM      1  C   UNL     1       1.826   8.310  18.839  0.00  0.00    +0.000 A 
ATOM      2  C   UNL     1       2.492   7.555  17.881  0.00  0.00    +0.000 A 
ATOM      3  C   UNL     1       3.144   6.478  18.550  0.00  0.00    +0.000 A 
ATOM      4  C   UNL     1       2.860   6.594  19.894  0.00  0.00    +0.000 A 
ATOM      5  N   UNL     1       2.047   7.683  20.055  0.00  0.00    +0.000 N 
ATOM      6  C   UNL     1       1.445   8.073  21.317  0.00  0.00    +0.000 C 
ENDROOT
BRANCH   1   8
ATOM      7  N   UNL     1      -0.280   9.458  19.059  0.00  0.00    +0.000 N 
ATOM      8  C   UNL     1       1.069   9.549  18.735  0.00  0.00    +0.000 C 
ATOM      9  O   UNL     1       1.633  10.582  18.397  0.00  0.00    +0.000 OA
ATOM     10  H   UNL     1      -0.650   8.535  19.212  0.00  0.00    +0.000 HD
BRANCH   7  16
ATOM     11  C   UNL     1      -2.169  10.765  18.181  0.00  0.00    +0.000 A 
ATOM     12  C   UNL     1      -3.046  11.867  18.329  0.00  0.00    +0.000 A 
ATOM     13  C   UNL     1      -2.949  12.741  19.411  0.00  0.00    +0.000 A 
ATOM     14  C   UNL     1      -1.986  12.521  20.379  0.00  0.00    +0.000 A 
ATOM     15  C   UNL     1      -1.120  11.434  20.258  0.00  0.00    +0.000 A 
ATOM     16  C   UNL     1      -1.177  10.553  19.163  0.00  0.00    +0.000 A 
BRANCH  11  18
ATOM     17  C   UNL     1      -2.751  10.664  15.691  0.00  0.00    +0.000 C 
ATOM     18  C   UNL     1      -2.371   9.902  16.954  0.00  0.00    +0.000 C 
ENDBRANCH  11  18
ENDBRANCH   7  16
ENDBRANCH   1   8
BRANCH   3  19
ATOM     19  S   UNL     1       4.091   5.221  17.825  0.00  0.00    +0.000 S 
ATOM     20  O   UNL     1       4.551   5.821  16.592  0.00  0.00    +0.000 OA
ATOM     21  O   UNL     1       5.016   4.823  18.862  0.00  0.00    +0.000 OA
BRANCH  19  22
ATOM     22  N   UNL     1       3.072   3.910  17.438  0.00  0.00    +0.000 NA
ATOM     23  C   UNL     1       1.619   4.072  17.657  0.00  0.00    +0.000 C 
ATOM     24  C   UNL     1       1.243   3.878  19.124  0.00  0.00    +0.000 C 
ATOM     25  C   UNL     1       1.805   2.581  19.729  0.00  0.00    +0.000 C 
ATOM     26  C   UNL     1       1.658   2.594  21.254  0.00  0.00    +0.000 C 
ATOM     27  C   UNL     1       3.272   2.335  19.342  0.00  0.00    +0.000 C 
ATOM     28  C   UNL     1       3.541   2.569  17.861  0.00  0.00    +0.000 C 
ENDBRANCH  19  22
ENDBRANCH   3  19
TORSDOF 5
ENDMDL
MODEL 4
REMARK VINA RESULT:      -8.2      0.709      1.738
REMARK  Name = 
REMARK  8 active torsions:
REMARK  status: ('A' for Active; 'I' for Inactive)
REMARK    1  A    between atoms: C_1  and  C_2
REMARK    2  A    between atoms: C_2  and  C_3
REMARK    3  A    between atoms: C_8  and  N_9
REMARK    4  A    between atoms: C_10  and  C_12
REMARK    5  A    between atoms: C_14  and  S_15
REMARK    6  A    between atoms: S_15  and  N_18
REMARK    7  A    between atoms: C_21  and  C_22
REMARK    8  A    between atoms: N_26  and  C_27
REMARK                            x       y       z     vdW  Elec       q    Type
REMARK                         _______ _______ _______ _____ _____    ______ ____
ROOT
ATOM      1  C   UNL     1       2.464   7.644  18.494  0.00  0.00    +0.000 A 
ATOM      2  C   UNL     1       3.308   6.862  17.714  0.00  0.00    +0.000 A 
ATOM      3  C   UNL     1       3.825   5.821  18.539  0.00  0.00    +0.000 A 
ATOM      4  C   UNL     1       3.284   5.984  19.797  0.00  0.00    +0.000 A 
ATOM      5  N   UNL     1       2.448   7.066  19.753  0.00  0.00    +0.000 N 
ATOM      6  C   UNL     1       1.610   7.496  20.857  0.00  0.00    +0.000 C 
ENDROOT
BRANCH   1   8
ATOM      7  N   UNL     1       0.431   8.922  18.678  0.00  0.00    +0.000 N 
ATOM      8  C   UNL     1       1.733   8.867  18.195  0.00  0.00    +0.000 C 
ATOM      9  O   UNL     1       2.280   9.767  17.571  0.00  0.00    +0.000 OA
ATOM     10  H   UNL     1       0.057   8.078  19.077  0.00  0.00    +0.000 HD
BRANCH   7  16
ATOM     11  C   UNL     1      -0.372  11.034  19.649  0.00  0.00    +0.000 A 
ATOM     12  C   UNL     1      -1.232  12.155  19.557  0.00  0.00    +0.000 A 
ATOM     13  C   UNL     1      -2.117  12.313  18.492  0.00  0.00    +0.000 A 
ATOM     14  C   UNL     1      -2.148  11.364  17.486  0.00  0.00    +0.000 A 
ATOM     15  C   UNL     1      -1.301  10.258  17.553  0.00  0.00    +0.000 A 
ATOM     16  C   UNL     1      -0.417  10.059  18.629  0.00  0.00    +0.000 A 
BRANCH  11  18
ATOM     17  C   UNL     1      -0.164  10.578  22.159  0.00  0.00    +0.000 C 
ATOM     18  C   UNL     1       0.531  10.975  20.863  0.00  0.00    +0.000 C 
ENDBRANCH  11  18
ENDBRANCH   7  16
ENDBRANCH   1   8
BRANCH   3  19
ATOM     19  S   UNL     1       4.903   4.550  18.062  0.00  0.00    +0.000 S 
ATOM     20  O   UNL     1       5.483   5.051  16.836  0.00  0.00    +0.000 OA
ATOM     21  O   UNL     1       5.712   4.306  19.235  0.00  0.00    +0.000 OA
BRANCH  19  22
ATOM     22  N   UNL     1       3.993   3.156  17.697  0.00  0.00    +0.000 NA
ATOM     23  C   UNL     1       2.676   3.337  17.049  0.00  0.00    +0.000 C 
ATOM     24  C   UNL     1       1.598   3.727  18.057  0.00  0.00    +0.000 C 
ATOM     25  C   UNL     1       1.547   2.798  19.281  0.00  0.00    +0.000 C 
ATOM     26  C   UNL     1       0.671   3.410  20.381  0.00  0.00    +0.000 C 
ATOM     27  C   UNL     1       2.943   2.475  19.837  0.00  0.00    +0.000 C 
ATOM     28  C   UNL     1       3.944   2.112  18.748  0.00  0.00    +0.000 C 
ENDBRANCH  19  22
ENDBRANCH   3  19
TORSDOF 5
ENDMDL
MODEL 5
REMARK VINA RESULT:      -8.2      3.087      8.547
REMARK  Name = 
REMARK  8 active torsions:
REMARK  status: ('A' for Active; 'I' for Inactive)
REMARK    1  A    between atoms: C_1  and  C_2
REMARK    2  A    between atoms: C_2  and  C_3
REMARK    3  A    between atoms: C_8  and  N_9
REMARK    4  A    between atoms: C_10  and  C_12
REMARK    5  A    between atoms: C_14  and  S_15
REMARK    6  A    between atoms: S_15  and  N_18
REMARK    7  A    between atoms: C_21  and  C_22
REMARK    8  A    between atoms: N_26  and  C_27
REMARK                            x       y       z     vdW  Elec       q    Type
REMARK                         _______ _______ _______ _____ _____    ______ ____
ROOT
ATOM      1  C   UNL     1       2.350   7.403  18.918  0.00  0.00    +0.000 A 
ATOM      2  C   UNL     1       1.975   8.730  18.744  0.00  0.00    +0.000 A 
ATOM      3  C   UNL     1       1.241   9.131  19.899  0.00  0.00    +0.000 A 
ATOM      4  C   UNL     1       1.188   8.047  20.750  0.00  0.00    +0.000 A 
ATOM      5  N   UNL     1       1.879   7.022  20.164  0.00  0.00    +0.000 N 
ATOM      6  C   UNL     1       2.139   5.744  20.800  0.00  0.00    +0.000 C 
ENDROOT
BRANCH   1   8
ATOM      7  N   UNL     1       4.328   6.847  17.661  0.00  0.00    +0.000 N 
ATOM      8  C   UNL     1       3.043   6.474  18.037  0.00  0.00    +0.000 C 
ATOM      9  O   UNL     1       2.494   5.435  17.692  0.00  0.00    +0.000 OA
ATOM     10  H   UNL     1       4.626   7.773  17.916  0.00  0.00    +0.000 HD
BRANCH   7  16
ATOM     11  C   UNL     1       6.268   5.338  17.587  0.00  0.00    +0.000 A 
ATOM     12  C   UNL     1       7.149   4.541  16.815  0.00  0.00    +0.000 A 
ATOM     13  C   UNL     1       7.024   4.441  15.431  0.00  0.00    +0.000 A 
ATOM     14  C   UNL     1       6.003   5.119  14.789  0.00  0.00    +0.000 A 
ATOM     15  C   UNL     1       5.118   5.901  15.532  0.00  0.00    +0.000 A 
ATOM     16  C   UNL     1       5.237   6.041  16.927  0.00  0.00    +0.000 A 
BRANCH  11  18
ATOM     17  C   UNL     1       7.920   5.822  19.480  0.00  0.00    +0.000 C 
ATOM     18  C   UNL     1       6.522   5.372  19.079  0.00  0.00    +0.000 C 
ENDBRANCH  11  18
ENDBRANCH   7  16
ENDBRANCH   1   8
BRANCH   3  19
ATOM     19  S   UNL     1       0.565  10.694  20.214  0.00  0.00    +0.000 S 
ATOM     20  O   UNL     1      -0.839  10.413  20.421  0.00  0.00    +0.000 OA
ATOM     21  O   UNL     1       1.390  11.237  21.270  0.00  0.00    +0.000 OA
BRANCH  19  22
ATOM     22  N   UNL     1       0.720  11.660  18.817  0.00  0.00    +0.000 NA
ATOM     23  C   UNL     1       1.979  12.412  18.630  0.00  0.00    +0.000 C 
ATOM     24  C   UNL     1       2.006  13.688  19.467  0.00  0.00    +0.000 C 
ATOM     25  C   UNL     1       0.750  14.558  19.287  0.00  0.00    +0.000 C 
ATOM     26  C   UNL     1       0.696  15.649  20.362  0.00  0.00    +0.000 C 
ATOM     27  C   UNL     1      -0.547  13.734  19.306  0.00  0.00    +0.000 C 
ATOM     28  C   UNL     1      -0.462  12.476  18.451  0.00  0.00    +0.000 C 
ENDBRANCH  19  22
ENDBRANCH   3  19
TORSDOF 5
ENDMDL
MODEL 6
REMARK VINA RESULT:      -8.1      1.682      2.523
REMARK  Name = 
REMARK  8 active torsions:
REMARK  status: ('A' for Active; 'I' for Inactive)
REMARK    1  A    between atoms: C_1  and  C_2
REMARK    2  A    between atoms: C_2  and  C_3
REMARK    3  A    between atoms: C_8  and  N_9
REMARK    4  A    between atoms: C_10  and  C_12
REMARK    5  A    between atoms: C_14  and  S_15
REMARK    6  A    between atoms: S_15  and  N_18
REMARK    7  A    between atoms: C_21  and  C_22
REMARK    8  A    between atoms: N_26  and  C_27
REMARK                            x       y       z     vdW  Elec       q    Type
REMARK                         _______ _______ _______ _____ _____    ______ ____
ROOT
ATOM      1  C   UNL     1       1.505   8.708  18.935  0.00  0.00    +0.000 A 
ATOM      2  C   UNL     1       2.291   8.003  18.031  0.00  0.00    +0.000 A 
ATOM      3  C   UNL     1       2.897   6.920  18.732  0.00  0.00    +0.000 A 
ATOM      4  C   UNL     1       2.467   6.983  20.041  0.00  0.00    +0.000 A 
ATOM      5  N   UNL     1       1.611   8.045  20.147  0.00  0.00    +0.000 N 
ATOM      6  C   UNL     1       0.866   8.376  21.348  0.00  0.00    +0.000 C 
ENDROOT
BRANCH   1   8
ATOM      7  N   UNL     1       1.116  10.990  19.601  0.00  0.00    +0.000 N 
ATOM      8  C   UNL     1       0.728   9.930  18.789  0.00  0.00    +0.000 C 
ATOM      9  O   UNL     1      -0.186   9.978  17.976  0.00  0.00    +0.000 OA
ATOM     10  H   UNL     1       1.806  10.794  20.306  0.00  0.00    +0.000 HD
BRANCH   7  16
ATOM     11  C   UNL     1       1.294  13.318  18.830  0.00  0.00    +0.000 A 
ATOM     12  C   UNL     1       0.739  14.620  18.784  0.00  0.00    +0.000 A 
ATOM     13  C   UNL     1      -0.466  14.926  19.415  0.00  0.00    +0.000 A 
ATOM     14  C   UNL     1      -1.152  13.932  20.090  0.00  0.00    +0.000 A 
ATOM     15  C   UNL     1      -0.628  12.640  20.138  0.00  0.00    +0.000 A 
ATOM     16  C   UNL     1       0.599  12.310  19.533  0.00  0.00    +0.000 A 
BRANCH  11  18
ATOM     17  C   UNL     1       3.630  14.236  18.332  0.00  0.00    +0.000 C 
ATOM     18  C   UNL     1       2.614  13.123  18.115  0.00  0.00    +0.000 C 
ENDBRANCH  11  18
ENDBRANCH   7  16
ENDBRANCH   1   8
BRANCH   3  19
ATOM     19  S   UNL     1       3.952   5.712  18.075  0.00  0.00    +0.000 S 
ATOM     20  O   UNL     1       4.488   6.349  16.892  0.00  0.00    +0.000 OA
ATOM     21  O   UNL     1       4.803   5.337  19.182  0.00  0.00    +0.000 OA
BRANCH  19  22
ATOM     22  N   UNL     1       3.023   4.368  17.589  0.00  0.00    +0.000 NA
ATOM     23  C   UNL     1       1.573   4.385  17.877  0.00  0.00    +0.000 C 
ATOM     24  C   UNL     1       1.280   4.012  19.328  0.00  0.00    +0.000 C 
ATOM     25  C   UNL     1       1.969   2.711  19.771  0.00  0.00    +0.000 C 
ATOM     26  C   UNL     1       1.890   2.555  21.294  0.00  0.00    +0.000 C 
ATOM     27  C   UNL     1       3.433   2.629  19.308  0.00  0.00    +0.000 C 
ATOM     28  C   UNL     1       3.615   3.034  17.851  0.00  0.00    +0.000 C 
ENDBRANCH  19  22
ENDBRANCH   3  19
TORSDOF 5
ENDMDL
MODEL 7
REMARK VINA RESULT:      -8.1      1.535      2.000
REMARK  Name = 
REMARK  8 active torsions:
REMARK  status: ('A' for Active; 'I' for Inactive)
REMARK    1  A    between atoms: C_1  and  C_2
REMARK    2  A    between atoms: C_2  and  C_3
REMARK    3  A    between atoms: C_8  and  N_9
REMARK    4  A    between atoms: C_10  and  C_12
REMARK    5  A    between atoms: C_14  and  S_15
REMARK    6  A    between atoms: S_15  and  N_18
REMARK    7  A    between atoms: C_21  and  C_22
REMARK    8  A    between atoms: N_26  and  C_27
REMARK                            x       y       z     vdW  Elec       q    Type
REMARK                         _______ _______ _______ _____ _____    ______ ____
ROOT
ATOM      1  C   UNL     1       1.711   8.462  18.796  0.00  0.00    +0.000 A 
ATOM      2  C   UNL     1       2.449   7.680  17.914  0.00  0.00    +0.000 A 
ATOM      3  C   UNL     1       2.995   6.589  18.650  0.00  0.00    +0.000 A 
ATOM      4  C   UNL     1       2.578   6.723  19.958  0.00  0.00    +0.000 A 
ATOM      5  N   UNL     1       1.786   7.836  20.030  0.00  0.00    +0.000 N 
ATOM      6  C   UNL     1       1.070   8.252  21.222  0.00  0.00    +0.000 C 
ENDROOT
BRANCH   1   8
ATOM      7  N   UNL     1       1.460  10.784  19.384  0.00  0.00    +0.000 N 
ATOM      8  C   UNL     1       1.006   9.722  18.610  0.00  0.00    +0.000 C 
ATOM      9  O   UNL     1       0.092   9.795  17.799  0.00  0.00    +0.000 OA
ATOM     10  H   UNL     1       2.141  10.572  20.093  0.00  0.00    +0.000 HD
BRANCH   7  16
ATOM     11  C   UNL     1      -0.164  12.554  19.911  0.00  0.00    +0.000 A 
ATOM     12  C   UNL     1      -0.561  13.907  19.777  0.00  0.00    +0.000 A 
ATOM     13  C   UNL     1       0.185  14.819  19.032  0.00  0.00    +0.000 A 
ATOM     14  C   UNL     1       1.354  14.403  18.421  0.00  0.00    +0.000 A 
ATOM     15  C   UNL     1       1.768  13.077  18.550  0.00  0.00    +0.000 A 
ATOM     16  C   UNL     1       1.021  12.129  19.272  0.00  0.00    +0.000 A 
BRANCH  11  18
ATOM     17  C   UNL     1      -0.739  11.613  22.221  0.00  0.00    +0.000 C 
ATOM     18  C   UNL     1      -1.071  11.664  20.735  0.00  0.00    +0.000 C 
ENDBRANCH  11  18
ENDBRANCH   7  16
ENDBRANCH   1   8
BRANCH   3  19
ATOM     19  S   UNL     1       3.973   5.299  18.031  0.00  0.00    +0.000 S 
ATOM     20  O   UNL     1       4.495   5.842  16.797  0.00  0.00    +0.000 OA
ATOM     21  O   UNL     1       4.845   4.949  19.130  0.00  0.00    +0.000 OA
BRANCH  19  22
ATOM     22  N   UNL     1       2.971   3.973  17.655  0.00  0.00    +0.000 NA
ATOM     23  C   UNL     1       1.519   4.106  17.906  0.00  0.00    +0.000 C 
ATOM     24  C   UNL     1       1.178   3.894  19.379  0.00  0.00    +0.000 C 
ATOM     25  C   UNL     1       1.777   2.603  19.961  0.00  0.00    +0.000 C 
ATOM     26  C   UNL     1       1.662   2.601  21.489  0.00  0.00    +0.000 C 
ATOM     27  C   UNL     1       3.240   2.387  19.542  0.00  0.00    +0.000 C 
ATOM     28  C   UNL     1       3.473   2.637  18.057  0.00  0.00    +0.000 C 
ENDBRANCH  19  22
ENDBRANCH   3  19
TORSDOF 5
ENDMDL
MODEL 8
REMARK VINA RESULT:      -8.0      3.103      8.075
REMARK  Name = 
REMARK  8 active torsions:
REMARK  status: ('A' for Active; 'I' for Inactive)
REMARK    1  A    between atoms: C_1  and  C_2
REMARK    2  A    between atoms: C_2  and  C_3
REMARK    3  A    between atoms: C_8  and  N_9
REMARK    4  A    between atoms: C_10  and  C_12
REMARK    5  A    between atoms: C_14  and  S_15
REMARK    6  A    between atoms: S_15  and  N_18
REMARK    7  A    between atoms: C_21  and  C_22
REMARK    8  A    between atoms: N_26  and  C_27
REMARK                            x       y       z     vdW  Elec       q    Type
REMARK                         _______ _______ _______ _____ _____    ______ ____
ROOT
ATOM      1  C   UNL     1       2.581   6.417  19.088  0.00  0.00    +0.000 A 
ATOM      2  C   UNL     1       2.173   7.740  19.214  0.00  0.00    +0.000 A 
ATOM      3  C   UNL     1       1.507   7.874  20.467  0.00  0.00    +0.000 A 
ATOM      4  C   UNL     1       1.528   6.639  21.080  0.00  0.00    +0.000 A 
ATOM      5  N   UNL     1       2.198   5.776  20.256  0.00  0.00    +0.000 N 
ATOM      6  C   UNL     1       2.520   4.404  20.599  0.00  0.00    +0.000 C 
ENDROOT
BRANCH   1   8
ATOM      7  N   UNL     1       4.430   6.257  17.553  0.00  0.00    +0.000 N 
ATOM      8  C   UNL     1       3.232   5.708  17.996  0.00  0.00    +0.000 C 
ATOM      9  O   UNL     1       2.726   4.689  17.543  0.00  0.00    +0.000 OA
ATOM     10  H   UNL     1       4.685   7.155  17.927  0.00  0.00    +0.000 HD
BRANCH   7  16
ATOM     11  C   UNL     1       6.703   5.754  16.762  0.00  0.00    +0.000 A 
ATOM     12  C   UNL     1       7.537   5.145  15.792  0.00  0.00    +0.000 A 
ATOM     13  C   UNL     1       7.010   4.472  14.692  0.00  0.00    +0.000 A 
ATOM     14  C   UNL     1       5.637   4.375  14.547  0.00  0.00    +0.000 A 
ATOM     15  C   UNL     1       4.799   4.958  15.497  0.00  0.00    +0.000 A 
ATOM     16  C   UNL     1       5.304   5.667  16.603  0.00  0.00    +0.000 A 
BRANCH  11  18
ATOM     17  C   UNL     1       7.750   7.923  17.627  0.00  0.00    +0.000 C 
ATOM     18  C   UNL     1       7.403   6.466  17.901  0.00  0.00    +0.000 C 
ENDBRANCH  11  18
ENDBRANCH   7  16
ENDBRANCH   1   8
BRANCH   3  19
ATOM     19  S   UNL     1       0.825   9.320  21.136  0.00  0.00    +0.000 S 
ATOM     20  O   UNL     1      -0.573   8.986  21.291  0.00  0.00    +0.000 OA
ATOM     21  O   UNL     1       1.661   9.617  22.277  0.00  0.00    +0.000 OA
BRANCH  19  22
ATOM     22  N   UNL     1       0.954  10.577  19.992  0.00  0.00    +0.000 NA
ATOM     23  C   UNL     1       1.050  11.965  20.494  0.00  0.00    +0.000 C 
ATOM     24  C   UNL     1      -0.316  12.519  20.889  0.00  0.00    +0.000 C 
ATOM     25  C   UNL     1      -1.381  12.344  19.794  0.00  0.00    +0.000 C 
ATOM     26  C   UNL     1      -2.778  12.635  20.355  0.00  0.00    +0.000 C 
ATOM     27  C   UNL     1      -1.350  10.947  19.155  0.00  0.00    +0.000 C 
ATOM     28  C   UNL     1       0.061  10.485  18.813  0.00  0.00    +0.000 C 
ENDBRANCH  19  22
ENDBRANCH   3  19
TORSDOF 5
ENDMDL
MODEL 9
REMARK VINA RESULT:      -8.0      1.880      2.327
REMARK  Name = 
REMARK  8 active torsions:
REMARK  status: ('A' for Active; 'I' for Inactive)
REMARK    1  A    between atoms: C_1  and  C_2
REMARK    2  A    between atoms: C_2  and  C_3
REMARK    3  A    between atoms: C_8  and  N_9
REMARK    4  A    between atoms: C_10  and  C_12
REMARK    5  A    between atoms: C_14  and  S_15
REMARK    6  A    between atoms: S_15  and  N_18
REMARK    7  A    between atoms: C_21  and  C_22
REMARK    8  A    between atoms: N_26  and  C_27
REMARK                            x       y       z     vdW  Elec       q    Type
REMARK                         _______ _______ _______ _____ _____    ______ ____
ROOT
ATOM      1  C   UNL     1       1.488   8.344  19.785  0.00  0.00    +0.000 A 
ATOM      2  C   UNL     1       2.209   7.170  19.974  0.00  0.00    +0.000 A 
ATOM      3  C   UNL     1       2.960   6.923  18.787  0.00  0.00    +0.000 A 
ATOM      4  C   UNL     1       2.687   7.948  17.906  0.00  0.00    +0.000 A 
ATOM      5  N   UNL     1       1.822   8.810  18.523  0.00  0.00    +0.000 N 
ATOM      6  C   UNL     1       1.381  10.070  17.955  0.00  0.00    +0.000 C 
ENDROOT
BRANCH   1   8
ATOM      7  N   UNL     1       0.418  10.397  20.448  0.00  0.00    +0.000 N 
ATOM      8  C   UNL     1       0.512   9.021  20.625  0.00  0.00    +0.000 C 
ATOM      9  O   UNL     1      -0.171   8.375  21.409  0.00  0.00    +0.000 OA
ATOM     10  H   UNL     1       1.109  10.828  19.857  0.00  0.00    +0.000 HD
BRANCH   7  16
ATOM     11  C   UNL     1      -1.516  11.904  20.264  0.00  0.00    +0.000 A 
ATOM     12  C   UNL     1      -2.468  12.731  20.909  0.00  0.00    +0.000 A 
ATOM     13  C   UNL     1      -2.469  12.905  22.292  0.00  0.00    +0.000 A 
ATOM     14  C   UNL     1      -1.532  12.241  23.062  0.00  0.00    +0.000 A 
ATOM     15  C   UNL     1      -0.593  11.413  22.447  0.00  0.00    +0.000 A 
ATOM     16  C   UNL     1      -0.551  11.240  21.051  0.00  0.00    +0.000 A 
BRANCH  11  18
ATOM     17  C   UNL     1      -2.401  10.614  18.238  0.00  0.00    +0.000 C 
ATOM     18  C   UNL     1      -1.615  11.812  18.756  0.00  0.00    +0.000 C 
ENDBRANCH  11  18
ENDBRANCH   7  16
ENDBRANCH   1   8
BRANCH   3  19
ATOM     19  S   UNL     1       4.050   5.608  18.498  0.00  0.00    +0.000 S 
ATOM     20  O   UNL     1       4.877   6.094  17.417  0.00  0.00    +0.000 OA
ATOM     21  O   UNL     1       4.607   5.310  19.799  0.00  0.00    +0.000 OA
BRANCH  19  22
ATOM     22  N   UNL     1       3.164   4.264  17.937  0.00  0.00    +0.000 NA
ATOM     23  C   UNL     1       1.691   4.307  18.051  0.00  0.00    +0.000 C 
ATOM     24  C   UNL     1       1.222   3.973  19.465  0.00  0.00    +0.000 C 
ATOM     25  C   UNL     1       1.834   2.675  20.016  0.00  0.00    +0.000 C 
ATOM     26  C   UNL     1       1.573   2.557  21.522  0.00  0.00    +0.000 C 
ATOM     27  C   UNL     1       3.340   2.562  19.731  0.00  0.00    +0.000 C 
ATOM     28  C   UNL     1       3.700   2.929  18.298  0.00  0.00    +0.000 C 
ENDBRANCH  19  22
ENDBRANCH   3  19
TORSDOF 5
ENDMDL
