MODEL 1
REMARK VINA RESULT:      -7.6      0.000      0.000
REMARK  Name = 
REMARK  10 active torsions:
REMARK  status: ('A' for Active; 'I' for Inactive)
REMARK    1  A    between atoms: C_1  and  C_2
REMARK    2  A    between atoms: C_2  and  C_3
REMARK    3  A    between atoms: C_3  and  N_4
REMARK    4  A    between atoms: C_5  and  C_7
REMARK    5  A    between atoms: C_7  and  N_8
REMARK    6  A    between atoms: C_16  and  O_18
REMARK    7  A    between atoms: O_18  and  C_19
REMARK    8  A    between atoms: C_19  and  C_20
REMARK    9  A    between atoms: C_19  and  C_21
REMARK   10  A    between atoms: C_19  and  C_22
REMARK                            x       y       z     vdW  Elec       q    Type
REMARK                         _______ _______ _______ _____ _____    ______ ____
ROOT
ATOM      1  N   UNL     1       5.833   5.071  16.766  0.00  0.00    +0.000 N 
ATOM      2  C   UNL     1       5.206   6.176  16.263  0.00  0.00    +0.000 A 
ATOM      3  C   UNL     1       4.294   6.559  17.217  0.00  0.00    +0.000 A 
ATOM      4  C   UNL     1       4.400   5.601  18.232  0.00  0.00    +0.000 A 
ATOM      5  N   UNL     1       5.347   4.692  17.977  0.00  0.00    +0.000 NA
ATOM      6  C   UNL     1       3.580   5.614  19.460  0.00  0.00    +0.000 C 
ATOM      7  C   UNL     1       2.550   6.764  19.486  0.00  0.00    +0.000 C 
ATOM      8  N   UNL     1       2.670   7.853  18.501  0.00  0.00    +0.000 N 
ATOM      9  C   UNL     1       1.817   8.952  18.511  0.00  0.00    +0.000 C 
ATOM     10  O   UNL     1       1.845   9.795  17.618  0.00  0.00    +0.000 OA
ATOM     11  C   UNL     1       3.381   7.705  17.236  0.00  0.00    +0.000 C 
ENDROOT
BRANCH   1  12
ATOM     12  C   UNL     1       6.950   4.367  16.160  0.00  0.00    +0.000 C 
BRANCH  12  14
ATOM     13  N   UNL     1       6.403   3.638  13.882  0.00  0.00    +0.000 N 
ATOM     14  C   UNL     1       7.058   4.556  14.662  0.00  0.00    +0.000 C 
ATOM     15  O   UNL     1       7.758   5.454  14.188  0.00  0.00    +0.000 OA
ATOM     16  H   UNL     1       5.912   2.877  14.360  0.00  0.00    +0.000 HD
BRANCH  13  17
ATOM     17  C   UNL     1       6.455   3.634  12.437  0.00  0.00    +0.000 C 
BRANCH  17  19
ATOM     18  C   UNL     1       4.182   3.260  11.378  0.00  0.00    +0.000 C 
ATOM     19  C   UNL     1       5.492   2.625  11.823  0.00  0.00    +0.000 C 
ENDBRANCH  17  19
ENDBRANCH  13  17
ENDBRANCH  12  14
ENDBRANCH   1  12
BRANCH   9  20
ATOM     20  O   UNL     1       0.956   8.995  19.564  0.00  0.00    +0.000 OA
BRANCH  20  21
ATOM     21  C   UNL     1       0.251  10.248  19.811  0.00  0.00    +0.000 C 
ATOM     22  C   UNL     1       1.180  11.466  19.661  0.00  0.00    +0.000 C 
ATOM     23  C   UNL     1      -0.838  10.355  18.732  0.00  0.00    +0.000 C 
ATOM     24  C   UNL     1      -0.447  10.215  21.179  0.00  0.00    +0.000 C 
ENDBRANCH  20  21
ENDBRANCH   9  20
TORSDOF 6
ENDMDL
MODEL 2
REMARK VINA RESULT:      -7.5      3.595      4.687
REMARK  Name = 
REMARK  10 active torsions:
REMARK  status: ('A' for Active; 'I' for Inactive)
REMARK    1  A    between atoms: C_1  and  C_2
REMARK    2  A    between atoms: C_2  and  C_3
REMARK    3  A    between atoms: C_3  and  N_4
REMARK    4  A    between atoms: C_5  and  C_7
REMARK    5  A    between atoms: C_7  and  N_8
REMARK    6  A    between atoms: C_16  and  O_18
REMARK    7  A    between atoms: O_18  and  C_19
REMARK    8  A    between atoms: C_19  and  C_20
REMARK    9  A    between atoms: C_19  and  C_21
REMARK   10  A    between atoms: C_19  and  C_22
REMARK                            x       y       z     vdW  Elec       q    Type
REMARK                         _______ _______ _______ _____ _____    ______ ____
ROOT
ATOM      1  N   UNL     1       6.817   5.109  14.974  0.00  0.00    +0.000 N 
ATOM      2  C   UNL     1       7.014   4.186  15.962  0.00  0.00    +0.000 A 
ATOM      3  C   UNL     1       6.002   4.386  16.871  0.00  0.00    +0.000 A 
ATOM      4  C   UNL     1       5.279   5.479  16.381  0.00  0.00    +0.000 A 
ATOM      5  N   UNL     1       5.757   5.925  15.214  0.00  0.00    +0.000 NA
ATOM      6  C   UNL     1       4.102   6.054  17.062  0.00  0.00    +0.000 C 
ATOM      7  C   UNL     1       3.780   5.360  18.403  0.00  0.00    +0.000 C 
ATOM      8  N   UNL     1       4.437   4.080  18.720  0.00  0.00    +0.000 N 
ATOM      9  C   UNL     1       4.143   3.368  19.879  0.00  0.00    +0.000 C 
ATOM     10  O   UNL     1       4.778   2.365  20.195  0.00  0.00    +0.000 OA
ATOM     11  C   UNL     1       5.687   3.654  18.101  0.00  0.00    +0.000 C 
ENDROOT
BRANCH   1  12
ATOM     12  C   UNL     1       7.577   5.222  13.741  0.00  0.00    +0.000 C 
BRANCH  12  14
ATOM     13  N   UNL     1       5.849   3.731  12.838  0.00  0.00    +0.000 N 
ATOM     14  C   UNL     1       6.963   4.485  12.570  0.00  0.00    +0.000 C 
ATOM     15  O   UNL     1       7.491   4.520  11.455  0.00  0.00    +0.000 OA
ATOM     16  H   UNL     1       5.526   3.696  13.809  0.00  0.00    +0.000 HD
BRANCH  13  17
ATOM     17  C   UNL     1       5.179   2.917  11.850  0.00  0.00    +0.000 C 
BRANCH  17  19
ATOM     18  C   UNL     1       3.075   2.812  10.438  0.00  0.00    +0.000 C 
ATOM     19  C   UNL     1       4.145   3.704  11.052  0.00  0.00    +0.000 C 
ENDBRANCH  17  19
ENDBRANCH  13  17
ENDBRANCH  12  14
ENDBRANCH   1  12
BRANCH   9  20
ATOM     20  O   UNL     1       3.127   3.885  20.621  0.00  0.00    +0.000 OA
BRANCH  20  21
ATOM     21  C   UNL     1       1.815   3.259  20.501  0.00  0.00    +0.000 C 
ATOM     22  C   UNL     1       1.785   2.204  19.381  0.00  0.00    +0.000 C 
ATOM     23  C   UNL     1       1.555   2.534  21.831  0.00  0.00    +0.000 C 
ATOM     24  C   UNL     1       0.721   4.323  20.327  0.00  0.00    +0.000 C 
ENDBRANCH  20  21
ENDBRANCH   9  20
TORSDOF 6
ENDMDL
MODEL 3
REMARK VINA RESULT:      -7.4      4.160      8.101
REMARK  Name = 
REMARK  10 active torsions:
REMARK  status: ('A' for Active; 'I' for Inactive)
REMARK    1  A    between atoms: C_1  and  C_2
REMARK    2  A    between atoms: C_2  and  C_3
REMARK    3  A    between atoms: C_3  and  N_4
REMARK    4  A    between atoms: C_5  and  C_7
REMARK    5  A    between atoms: C_7  and  N_8
REMARK    6  A    between atoms: C_16  and  O_18
REMARK    7  A    between atoms: O_18  and  C_19
REMARK    8  A    between atoms: C_19  and  C_20
REMARK    9  A    between atoms: C_19  and  C_21
REMARK   10  A    between atoms: C_19  and  C_22
REMARK                            x       y       z     vdW  Elec       q    Type
REMARK                         _______ _______ _______ _____ _____    ______ ____
ROOT
ATOM      1  N   UNL     1       1.197  10.636  18.818  0.00  0.00    +0.000 N 
ATOM      2  C   UNL     1       1.948   9.873  17.971  0.00  0.00    +0.000 A 
ATOM      3  C   UNL     1       2.082   8.650  18.585  0.00  0.00    +0.000 A 
ATOM      4  C   UNL     1       1.432   8.784  19.816  0.00  0.00    +0.000 A 
ATOM      5  N   UNL     1       0.873   9.990  19.969  0.00  0.00    +0.000 NA
ATOM      6  C   UNL     1       1.345   7.703  20.819  0.00  0.00    +0.000 C 
ATOM      7  C   UNL     1       2.097   6.423  20.394  0.00  0.00    +0.000 C 
ATOM      8  N   UNL     1       2.543   6.288  18.997  0.00  0.00    +0.000 N 
ATOM      9  C   UNL     1       3.166   5.134  18.531  0.00  0.00    +0.000 C 
ATOM     10  O   UNL     1       3.642   5.073  17.400  0.00  0.00    +0.000 OA
ATOM     11  C   UNL     1       2.745   7.431  18.113  0.00  0.00    +0.000 C 
ENDROOT
BRANCH   1  12
ATOM     12  C   UNL     1       0.705  11.978  18.557  0.00  0.00    +0.000 C 
BRANCH  12  14
ATOM     13  N   UNL     1      -1.471  11.116  17.820  0.00  0.00    +0.000 N 
ATOM     14  C   UNL     1      -0.805  12.085  18.526  0.00  0.00    +0.000 C 
ATOM     15  O   UNL     1      -1.382  13.037  19.058  0.00  0.00    +0.000 OA
ATOM     16  H   UNL     1      -0.907  10.408  17.342  0.00  0.00    +0.000 HD
BRANCH  13  17
ATOM     17  C   UNL     1      -2.905  11.105  17.636  0.00  0.00    +0.000 C 
BRANCH  17  19
ATOM     18  C   UNL     1      -2.829  10.467  15.183  0.00  0.00    +0.000 C 
ATOM     19  C   UNL     1      -3.346  10.109  16.569  0.00  0.00    +0.000 C 
ENDBRANCH  17  19
ENDBRANCH  13  17
ENDBRANCH  12  14
ENDBRANCH   1  12
BRANCH   9  20
ATOM     20  O   UNL     1       3.216   4.113  19.428  0.00  0.00    +0.000 OA
BRANCH  20  21
ATOM     21  C   UNL     1       2.285   3.004  19.245  0.00  0.00    +0.000 C 
ATOM     22  C   UNL     1       1.199   3.336  18.206  0.00  0.00    +0.000 C 
ATOM     23  C   UNL     1       3.110   1.829  18.698  0.00  0.00    +0.000 C 
ATOM     24  C   UNL     1       1.688   2.571  20.592  0.00  0.00    +0.000 C 
ENDBRANCH  20  21
ENDBRANCH   9  20
TORSDOF 6
ENDMDL
MODEL 4
REMARK VINA RESULT:      -7.3      2.023      3.400
REMARK  Name = 
REMARK  10 active torsions:
REMARK  status: ('A' for Active; 'I' for Inactive)
REMARK    1  A    between atoms: C_1  and  C_2
REMARK    2  A    between atoms: C_2  and  C_3
REMARK    3  A    between atoms: C_3  and  N_4
REMARK    4  A    between atoms: C_5  and  C_7
REMARK    5  A    between atoms: C_7  and  N_8
REMARK    6  A    between atoms: C_16  and  O_18
REMARK    7  A    between atoms: O_18  and  C_19
REMARK    8  A    between atoms: C_19  and  C_20
REMARK    9  A    between atoms: C_19  and  C_21
REMARK   10  A    between atoms: C_19  and  C_22
REMARK                            x       y       z     vdW  Elec       q    Type
REMARK                         _______ _______ _______ _____ _____    ______ ____
ROOT
ATOM      1  N   UNL     1       3.341   5.551  18.856  0.00  0.00    +0.000 N 
ATOM      2  C   UNL     1       2.672   5.993  19.962  0.00  0.00    +0.000 A 
ATOM      3  C   UNL     1       2.217   7.252  19.648  0.00  0.00    +0.000 A 
ATOM      4  C   UNL     1       2.702   7.508  18.361  0.00  0.00    +0.000 A 
ATOM      5  N   UNL     1       3.381   6.471  17.857  0.00  0.00    +0.000 NA
ATOM      6  C   UNL     1       2.464   8.769  17.631  0.00  0.00    +0.000 C 
ATOM      7  C   UNL     1       1.668   9.804  18.457  0.00  0.00    +0.000 C 
ATOM      8  N   UNL     1       0.998   9.367  19.693  0.00  0.00    +0.000 N 
ATOM      9  C   UNL     1       0.210  10.230  20.449  0.00  0.00    +0.000 C 
ATOM     10  O   UNL     1      -0.247   9.895  21.539  0.00  0.00    +0.000 OA
ATOM     11  C   UNL     1       1.398   8.177  20.437  0.00  0.00    +0.000 C 
ENDROOT
BRANCH   1  12
ATOM     12  C   UNL     1       3.915   4.229  18.671  0.00  0.00    +0.000 C 
BRANCH  12  14
ATOM     13  N   UNL     1       5.330   4.151  16.667  0.00  0.00    +0.000 N 
ATOM     14  C   UNL     1       5.288   4.238  18.035  0.00  0.00    +0.000 C 
ATOM     15  O   UNL     1       6.306   4.255  18.732  0.00  0.00    +0.000 OA
ATOM     16  H   UNL     1       4.438   4.059  16.173  0.00  0.00    +0.000 HD
BRANCH  13  17
ATOM     17  C   UNL     1       6.557   4.082  15.907  0.00  0.00    +0.000 C 
BRANCH  17  19
ATOM     18  C   UNL     1       6.087   3.794  13.432  0.00  0.00    +0.000 C 
ATOM     19  C   UNL     1       6.440   4.766  14.550  0.00  0.00    +0.000 C 
ENDBRANCH  17  19
ENDBRANCH  13  17
ENDBRANCH  12  14
ENDBRANCH   1  12
BRANCH   9  20
ATOM     20  O   UNL     1       0.016  11.456  19.892  0.00  0.00    +0.000 OA
BRANCH  20  21
ATOM     21  C   UNL     1      -1.284  11.727  19.287  0.00  0.00    +0.000 C 
ATOM     22  C   UNL     1      -2.268  12.343  20.297  0.00  0.00    +0.000 C 
ATOM     23  C   UNL     1      -1.041  12.763  18.179  0.00  0.00    +0.000 C 
ATOM     24  C   UNL     1      -1.847  10.459  18.627  0.00  0.00    +0.000 C 
ENDBRANCH  20  21
ENDBRANCH   9  20
TORSDOF 6
ENDMDL
MODEL 5
REMARK VINA RESULT:      -7.2      3.965      8.233
REMARK  Name = 
REMARK  10 active torsions:
REMARK  status: ('A' for Active; 'I' for Inactive)
REMARK    1  A    between atoms: C_1  and  C_2
REMARK    2  A    between atoms: C_2  and  C_3
REMARK    3  A    between atoms: C_3  and  N_4
REMARK    4  A    between atoms: C_5  and  C_7
REMARK    5  A    between atoms: C_7  and  N_8
REMARK    6  A    between atoms: C_16  and  O_18
REMARK    7  A    between atoms: O_18  and  C_19
REMARK    8  A    between atoms: C_19  and  C_20
REMARK    9  A    between atoms: C_19  and  C_21
REMARK   10  A    between atoms: C_19  and  C_22
REMARK                            x       y       z     vdW  Elec       q    Type
REMARK                         _______ _______ _______ _____ _____    ______ ____
ROOT
ATOM      1  N   UNL     1       0.856  10.416  19.503  0.00  0.00    +0.000 N 
ATOM      2  C   UNL     1       0.718   9.393  20.397  0.00  0.00    +0.000 A 
ATOM      3  C   UNL     1       1.432   8.340  19.878  0.00  0.00    +0.000 A 
ATOM      4  C   UNL     1       1.918   8.796  18.648  0.00  0.00    +0.000 A 
ATOM      5  N   UNL     1       1.586  10.070  18.410  0.00  0.00    +0.000 NA
ATOM      6  C   UNL     1       2.734   7.973  17.733  0.00  0.00    +0.000 C 
ATOM      7  C   UNL     1       2.950   6.533  18.246  0.00  0.00    +0.000 C 
ATOM      8  N   UNL     1       2.611   6.215  19.644  0.00  0.00    +0.000 N 
ATOM      9  C   UNL     1       2.843   4.956  20.190  0.00  0.00    +0.000 C 
ATOM     10  O   UNL     1       2.450   4.661  21.316  0.00  0.00    +0.000 OA
ATOM     11  C   UNL     1       1.674   7.005  20.434  0.00  0.00    +0.000 C 
ENDROOT
BRANCH   1  12
ATOM     12  C   UNL     1       0.362  11.773  19.666  0.00  0.00    +0.000 C 
BRANCH  12  14
ATOM     13  N   UNL     1      -1.195  11.237  17.846  0.00  0.00    +0.000 N 
ATOM     14  C   UNL     1      -0.919  12.056  18.910  0.00  0.00    +0.000 C 
ATOM     15  O   UNL     1      -1.629  13.020  19.211  0.00  0.00    +0.000 OA
ATOM     16  H   UNL     1      -0.509  10.512  17.618  0.00  0.00    +0.000 HD
BRANCH  13  17
ATOM     17  C   UNL     1      -2.340  11.408  16.981  0.00  0.00    +0.000 C 
BRANCH  17  19
ATOM     18  C   UNL     1      -3.238  10.344  14.862  0.00  0.00    +0.000 C 
ATOM     19  C   UNL     1      -2.740  10.114  16.282  0.00  0.00    +0.000 C 
ENDBRANCH  17  19
ENDBRANCH  13  17
ENDBRANCH  12  14
ENDBRANCH   1  12
BRANCH   9  20
ATOM     20  O   UNL     1       3.510   4.096  19.373  0.00  0.00    +0.000 OA
BRANCH  20  21
ATOM     21  C   UNL     1       2.722   3.112  18.639  0.00  0.00    +0.000 C 
ATOM     22  C   UNL     1       2.848   3.300  17.116  0.00  0.00    +0.000 C 
ATOM     23  C   UNL     1       3.309   1.736  18.989  0.00  0.00    +0.000 C 
ATOM     24  C   UNL     1       1.260   3.131  19.108  0.00  0.00    +0.000 C 
ENDBRANCH  20  21
ENDBRANCH   9  20
TORSDOF 6
ENDMDL
MODEL 6
REMARK VINA RESULT:      -7.2      3.566      4.818
REMARK  Name = 
REMARK  10 active torsions:
REMARK  status: ('A' for Active; 'I' for Inactive)
REMARK    1  A    between atoms: C_1  and  C_2
REMARK    2  A    between atoms: C_2  and  C_3
REMARK    3  A    between atoms: C_3  and  N_4
REMARK    4  A    between atoms: C_5  and  C_7
REMARK    5  A    between atoms: C_7  and  N_8
REMARK    6  A    between atoms: C_16  and  O_18
REMARK    7  A    between atoms: O_18  and  C_19
REMARK    8  A    between atoms: C_19  and  C_20
REMARK    9  A    between atoms: C_19  and  C_21
REMARK   10  A    between atoms: C_19  and  C_22
REMARK                            x       y       z     vdW  Elec       q    Type
REMARK                         _______ _______ _______ _____ _____    ______ ____
ROOT
ATOM      1  N   UNL     1       3.388   6.615  18.478  0.00  0.00    +0.000 N 
ATOM      2  C   UNL     1       2.840   7.651  17.777  0.00  0.00    +0.000 A 
ATOM      3  C   UNL     1       1.992   8.289  18.650  0.00  0.00    +0.000 A 
ATOM      4  C   UNL     1       2.049   7.541  19.831  0.00  0.00    +0.000 A 
ATOM      5  N   UNL     1       2.910   6.521  19.747  0.00  0.00    +0.000 NA
ATOM      6  C   UNL     1       1.270   7.864  21.044  0.00  0.00    +0.000 C 
ATOM      7  C   UNL     1       0.339   9.082  20.858  0.00  0.00    +0.000 C 
ATOM      8  N   UNL     1       0.519   9.944  19.677  0.00  0.00    +0.000 N 
ATOM      9  C   UNL     1      -0.240  11.094  19.483  0.00  0.00    +0.000 C 
ATOM     10  O   UNL     1      -0.169  11.742  18.441  0.00  0.00    +0.000 OA
ATOM     11  C   UNL     1       1.177   9.492  18.456  0.00  0.00    +0.000 C 
ENDROOT
BRANCH   1  12
ATOM     12  C   UNL     1       4.425   5.712  18.008  0.00  0.00    +0.000 C 
BRANCH  12  14
ATOM     13  N   UNL     1       3.478   3.748  19.133  0.00  0.00    +0.000 N 
ATOM     14  C   UNL     1       4.606   4.480  18.869  0.00  0.00    +0.000 C 
ATOM     15  O   UNL     1       5.707   4.205  19.353  0.00  0.00    +0.000 OA
ATOM     16  H   UNL     1       2.591   4.094  18.756  0.00  0.00    +0.000 HD
BRANCH  13  17
ATOM     17  C   UNL     1       3.463   2.582  19.988  0.00  0.00    +0.000 C 
BRANCH  17  19
ATOM     18  C   UNL     1       1.274   3.492  20.889  0.00  0.00    +0.000 C 
ATOM     19  C   UNL     1       2.575   2.772  21.213  0.00  0.00    +0.000 C 
ENDBRANCH  17  19
ENDBRANCH  13  17
ENDBRANCH  12  14
ENDBRANCH   1  12
BRANCH   9  20
ATOM     20  O   UNL     1      -1.062  11.415  20.518  0.00  0.00    +0.000 OA
BRANCH  20  21
ATOM     21  C   UNL     1      -0.727  12.595  21.308  0.00  0.00    +0.000 C 
ATOM     22  C   UNL     1       0.748  12.999  21.134  0.00  0.00    +0.000 C 
ATOM     23  C   UNL     1      -1.592  13.742  20.764  0.00  0.00    +0.000 C 
ATOM     24  C   UNL     1      -1.103  12.384  22.782  0.00  0.00    +0.000 C 
ENDBRANCH  20  21
ENDBRANCH   9  20
TORSDOF 6
ENDMDL
MODEL 7
REMARK VINA RESULT:      -7.2      4.245      8.249
REMARK  Name = 
REMARK  10 active torsions:
REMARK  status: ('A' for Active; 'I' for Inactive)
REMARK    1  A    between atoms: C_1  and  C_2
REMARK    2  A    between atoms: C_2  and  C_3
REMARK    3  A    between atoms: C_3  and  N_4
REMARK    4  A    between atoms: C_5  and  C_7
REMARK    5  A    between atoms: C_7  and  N_8
REMARK    6  A    between atoms: C_16  and  O_18
REMARK    7  A    between atoms: O_18  and  C_19
REMARK    8  A    between atoms: C_19  and  C_20
REMARK    9  A    between atoms: C_19  and  C_21
REMARK   10  A    between atoms: C_19  and  C_22
REMARK                            x       y       z     vdW  Elec       q    Type
REMARK                         _______ _______ _______ _____ _____    ______ ____
ROOT
ATOM      1  N   UNL     1       0.984  10.449  19.453  0.00  0.00    +0.000 N 
ATOM      2  C   UNL     1       0.815   9.456  20.376  0.00  0.00    +0.000 A 
ATOM      3  C   UNL     1       1.480   8.361  19.877  0.00  0.00    +0.000 A 
ATOM      4  C   UNL     1       1.970   8.766  18.631  0.00  0.00    +0.000 A 
ATOM      5  N   UNL     1       1.687  10.045  18.363  0.00  0.00    +0.000 NA
ATOM      6  C   UNL     1       2.742   7.886  17.729  0.00  0.00    +0.000 C 
ATOM      7  C   UNL     1       2.905   6.452  18.278  0.00  0.00    +0.000 C 
ATOM      8  N   UNL     1       2.570   6.185  19.687  0.00  0.00    +0.000 N 
ATOM      9  C   UNL     1       2.756   4.932  20.264  0.00  0.00    +0.000 C 
ATOM     10  O   UNL     1       2.365   4.683  21.401  0.00  0.00    +0.000 OA
ATOM     11  C   UNL     1       1.674   7.033  20.466  0.00  0.00    +0.000 C 
ENDROOT
BRANCH   1  12
ATOM     12  C   UNL     1       0.547  11.828  19.585  0.00  0.00    +0.000 C 
BRANCH  12  14
ATOM     13  N   UNL     1      -1.120  11.303  17.863  0.00  0.00    +0.000 N 
ATOM     14  C   UNL     1      -0.772  12.124  18.905  0.00  0.00    +0.000 C 
ATOM     15  O   UNL     1      -1.452  13.096  19.242  0.00  0.00    +0.000 OA
ATOM     16  H   UNL     1      -0.456  10.569  17.598  0.00  0.00    +0.000 HD
BRANCH  13  17
ATOM     17  C   UNL     1      -2.312  11.485  17.066  0.00  0.00    +0.000 C 
BRANCH  17  19
ATOM     18  C   UNL     1      -3.089  10.291  14.968  0.00  0.00    +0.000 C 
ATOM     19  C   UNL     1      -2.811  10.177  16.460  0.00  0.00    +0.000 C 
ENDBRANCH  17  19
ENDBRANCH  13  17
ENDBRANCH  12  14
ENDBRANCH   1  12
BRANCH   9  20
ATOM     20  O   UNL     1       3.379   4.024  19.463  0.00  0.00    +0.000 OA
BRANCH  20  21
ATOM     21  C   UNL     1       2.598   2.882  19.001  0.00  0.00    +0.000 C 
ATOM     22  C   UNL     1       1.780   2.249  20.140  0.00  0.00    +0.000 C 
ATOM     23  C   UNL     1       1.606   3.426  17.961  0.00  0.00    +0.000 C 
ATOM     24  C   UNL     1       3.501   1.860  18.295  0.00  0.00    +0.000 C 
ENDBRANCH  20  21
ENDBRANCH   9  20
TORSDOF 6
ENDMDL
MODEL 8
REMARK VINA RESULT:      -7.2      2.532      3.795
REMARK  Name = 
REMARK  10 active torsions:
REMARK  status: ('A' for Active; 'I' for Inactive)
REMARK    1  A    between atoms: C_1  and  C_2
REMARK    2  A    between atoms: C_2  and  C_3
REMARK    3  A    between atoms: C_3  and  N_4
REMARK    4  A    between atoms: C_5  and  C_7
REMARK    5  A    between atoms: C_7  and  N_8
REMARK    6  A    between atoms: C_16  and  O_18
REMARK    7  A    between atoms: O_18  and  C_19
REMARK    8  A    between atoms: C_19  and  C_20
REMARK    9  A    between atoms: C_19  and  C_21
REMARK   10  A    between atoms: C_19  and  C_22
REMARK                            x       y       z     vdW  Elec       q    Type
REMARK                         _______ _______ _______ _____ _____    ______ ____
ROOT
ATOM      1  N   UNL     1       3.170   5.314  19.213  0.00  0.00    +0.000 N 
ATOM      2  C   UNL     1       2.524   5.873  20.278  0.00  0.00    +0.000 A 
ATOM      3  C   UNL     1       2.137   7.127  19.868  0.00  0.00    +0.000 A 
ATOM      4  C   UNL     1       2.637   7.259  18.569  0.00  0.00    +0.000 A 
ATOM      5  N   UNL     1       3.261   6.153  18.148  0.00  0.00    +0.000 NA
ATOM      6  C   UNL     1       2.467   8.473  17.745  0.00  0.00    +0.000 C 
ATOM      7  C   UNL     1       1.725   9.607  18.485  0.00  0.00    +0.000 C 
ATOM      8  N   UNL     1       1.031   9.300  19.747  0.00  0.00    +0.000 N 
ATOM      9  C   UNL     1       0.288  10.258  20.431  0.00  0.00    +0.000 C 
ATOM     10  O   UNL     1      -0.189  10.031  21.541  0.00  0.00    +0.000 OA
ATOM     11  C   UNL     1       1.366   8.150  20.580  0.00  0.00    +0.000 C 
ENDROOT
BRANCH   1  12
ATOM     12  C   UNL     1       3.674   3.954  19.131  0.00  0.00    +0.000 C 
BRANCH  12  14
ATOM     13  N   UNL     1       5.320   3.942  17.311  0.00  0.00    +0.000 N 
ATOM     14  C   UNL     1       4.083   3.532  17.736  0.00  0.00    +0.000 C 
ATOM     15  O   UNL     1       3.303   2.909  17.010  0.00  0.00    +0.000 OA
ATOM     16  H   UNL     1       5.870   4.524  17.950  0.00  0.00    +0.000 HD
BRANCH  13  17
ATOM     17  C   UNL     1       5.838   3.681  15.987  0.00  0.00    +0.000 C 
BRANCH  17  19
ATOM     18  C   UNL     1       7.039   5.842  16.553  0.00  0.00    +0.000 C 
ATOM     19  C   UNL     1       6.726   4.811  15.477  0.00  0.00    +0.000 C 
ENDBRANCH  17  19
ENDBRANCH  13  17
ENDBRANCH  12  14
ENDBRANCH   1  12
BRANCH   9  20
ATOM     20  O   UNL     1       0.160  11.447  19.783  0.00  0.00    +0.000 OA
BRANCH  20  21
ATOM     21  C   UNL     1      -1.146  11.775  19.222  0.00  0.00    +0.000 C 
ATOM     22  C   UNL     1      -2.078  12.406  20.272  0.00  0.00    +0.000 C 
ATOM     23  C   UNL     1      -0.899  12.824  18.127  0.00  0.00    +0.000 C 
ATOM     24  C   UNL     1      -1.773  10.541  18.555  0.00  0.00    +0.000 C 
ENDBRANCH  20  21
ENDBRANCH   9  20
TORSDOF 6
ENDMDL
MODEL 9
REMARK VINA RESULT:      -7.1      3.924      8.903
REMARK  Name = 
REMARK  10 active torsions:
REMARK  status: ('A' for Active; 'I' for Inactive)
REMARK    1  A    between atoms: C_1  and  C_2
REMARK    2  A    between atoms: C_2  and  C_3
REMARK    3  A    between atoms: C_3  and  N_4
REMARK    4  A    between atoms: C_5  and  C_7
REMARK    5  A    between atoms: C_7  and  N_8
REMARK    6  A    between atoms: C_16  and  O_18
REMARK    7  A    between atoms: O_18  and  C_19
REMARK    8  A    between atoms: C_19  and  C_20
REMARK    9  A    between atoms: C_19  and  C_21
REMARK   10  A    between atoms: C_19  and  C_22
REMARK                            x       y       z     vdW  Elec       q    Type
REMARK                         _______ _______ _______ _____ _____    ______ ____
ROOT
ATOM      1  N   UNL     1       1.045  10.392  18.951  0.00  0.00    +0.000 N 
ATOM      2  C   UNL     1       1.817   9.730  18.039  0.00  0.00    +0.000 A 
ATOM      3  C   UNL     1       2.065   8.492  18.585  0.00  0.00    +0.000 A 
ATOM      4  C   UNL     1       1.454   8.516  19.843  0.00  0.00    +0.000 A 
ATOM      5  N   UNL     1       0.814   9.667  20.077  0.00  0.00    +0.000 NA
ATOM      6  C   UNL     1       1.487   7.384  20.792  0.00  0.00    +0.000 C 
ATOM      7  C   UNL     1       2.314   6.187  20.275  0.00  0.00    +0.000 C 
ATOM      8  N   UNL     1       2.715   6.155  18.859  0.00  0.00    +0.000 N 
ATOM      9  C   UNL     1       3.404   5.075  18.312  0.00  0.00    +0.000 C 
ATOM     10  O   UNL     1       3.839   5.106  17.164  0.00  0.00    +0.000 OA
ATOM     11  C   UNL     1       2.798   7.351  18.028  0.00  0.00    +0.000 C 
ENDROOT
BRANCH   1  12
ATOM     12  C   UNL     1       0.444  11.703  18.776  0.00  0.00    +0.000 C 
BRANCH  12  14
ATOM     13  N   UNL     1      -0.748  12.243  20.852  0.00  0.00    +0.000 N 
ATOM     14  C   UNL     1      -0.854  11.891  19.531  0.00  0.00    +0.000 C 
ATOM     15  O   UNL     1      -1.939  11.670  18.986  0.00  0.00    +0.000 OA
ATOM     16  H   UNL     1       0.194  12.327  21.244  0.00  0.00    +0.000 HD
BRANCH  13  17
ATOM     17  C   UNL     1      -1.885  12.399  21.731  0.00  0.00    +0.000 C 
BRANCH  17  19
ATOM     18  C   UNL     1      -0.962  10.473  23.099  0.00  0.00    +0.000 C 
ATOM     19  C   UNL     1      -1.621  11.846  23.127  0.00  0.00    +0.000 C 
ENDBRANCH  17  19
ENDBRANCH  13  17
ENDBRANCH  12  14
ENDBRANCH   1  12
BRANCH   9  20
ATOM     20  O   UNL     1       3.564   4.019  19.154  0.00  0.00    +0.000 OA
BRANCH  20  21
ATOM     21  C   UNL     1       2.575   2.947  19.091  0.00  0.00    +0.000 C 
ATOM     22  C   UNL     1       1.389   3.317  18.182  0.00  0.00    +0.000 C 
ATOM     23  C   UNL     1       3.284   1.737  18.463  0.00  0.00    +0.000 C 
ATOM     24  C   UNL     1       2.123   2.545  20.502  0.00  0.00    +0.000 C 
ENDBRANCH  20  21
ENDBRANCH   9  20
TORSDOF 6
ENDMDL
