MODEL 1
REMARK VINA RESULT:      -8.2      0.000      0.000
REMARK  Name = 
REMARK  6 active torsions:
REMARK  status: ('A' for Active; 'I' for Inactive)
REMARK    1  A    between atoms: C_2  and  O_24
REMARK    2  A    between atoms: N_3  and  C_4
REMARK    3  A    between atoms: C_8  and  C_9
REMARK    4  A    between atoms: C_17  and  N_18
REMARK    5  A    between atoms: O_24  and  C_25
REMARK    6  A    between atoms: C_25  and  C_26
REMARK                            x       y       z     vdW  Elec       q    Type
REMARK                         _______ _______ _______ _____ _____    ______ ____
ROOT
ATOM      1  C   UNL     1       3.034   6.138  18.372  0.00  0.00    +0.000 A 
ATOM      2  C   UNL     1       2.752   7.517  18.489  0.00  0.00    +0.000 A 
ATOM      3  C   UNL     1       1.895   7.954  19.499  0.00  0.00    +0.000 A 
ATOM      4  N   UNL     1       1.535   9.227  19.872  0.00  0.00    +0.000 NA
ATOM      5  C   UNL     1       0.701   9.071  20.874  0.00  0.00    +0.000 A 
ATOM      6  N   UNL     1       0.495   7.744  21.143  0.00  0.00    +0.000 N 
ATOM      7  C   UNL     1       1.285   7.008  20.305  0.00  0.00    +0.000 A 
ATOM      8  C   UNL     1       1.524   5.638  20.198  0.00  0.00    +0.000 A 
ATOM      9  C   UNL     1       2.476   5.179  19.260  0.00  0.00    +0.000 A 
ATOM     10  H   UNL     1      -0.094   7.382  21.870  0.00  0.00    +0.000 HD
ENDROOT
BRANCH   9  11
ATOM     11  N   UNL     1       2.865   3.835  19.265  0.00  0.00    +0.000 N 
ATOM     12  C   UNL     1       3.325   3.227  20.523  0.00  0.00    +0.000 C 
ATOM     13  C   UNL     1       4.436   2.237  20.186  0.00  0.00    +0.000 C 
ATOM     14  C   UNL     1       3.963   1.200  19.165  0.00  0.00    +0.000 C 
ATOM     15  C   UNL     1       3.287   1.852  17.952  0.00  0.00    +0.000 C 
ATOM     16  C   UNL     1       2.219   2.868  18.370  0.00  0.00    +0.000 C 
ENDBRANCH   9  11
BRANCH   5  17
ATOM     17  C   UNL     1       0.073  10.137  21.603  0.00  0.00    +0.000 A 
ATOM     18  C   UNL     1      -0.674  10.017  22.761  0.00  0.00    +0.000 A 
ATOM     19  C   UNL     1      -1.156  11.271  23.234  0.00  0.00    +0.000 A 
ATOM     20  C   UNL     1      -0.768  12.310  22.424  0.00  0.00    +0.000 A 
ATOM     21  S   UNL     1       0.167  11.775  21.099  0.00  0.00    +0.000 S 
ENDBRANCH   5  17
BRANCH   1  24
ATOM     22  O   UNL     1       5.786   5.676  18.846  0.00  0.00    +0.000 OA
ATOM     23  C   UNL     1       5.297   5.517  17.734  0.00  0.00    +0.000 C 
ATOM     24  N   UNL     1       3.988   5.773  17.395  0.00  0.00    +0.000 N 
ATOM     25  H   UNL     1       3.799   6.012  16.432  0.00  0.00    +0.000 HD
BRANCH  23  26
ATOM     26  O   UNL     1       6.004   5.117  16.646  0.00  0.00    +0.000 OA
BRANCH  26  27
ATOM     27  C   UNL     1       5.260   4.326  15.702  0.00  0.00    +0.000 C 
BRANCH  27  28
ATOM     28  C   UNL     1       5.961   4.282  14.366  0.00  0.00    +0.000 A 
ATOM     29  C   UNL     1       7.108   5.057  14.139  0.00  0.00    +0.000 A 
ATOM     30  C   UNL     1       7.753   5.024  12.901  0.00  0.00    +0.000 A 
ATOM     31  C   UNL     1       7.259   4.220  11.876  0.00  0.00    +0.000 A 
ATOM     32  C   UNL     1       6.121   3.445  12.088  0.00  0.00    +0.000 A 
ATOM     33  C   UNL     1       5.473   3.477  13.328  0.00  0.00    +0.000 A 
ENDBRANCH  27  28
ENDBRANCH  26  27
ENDBRANCH  23  26
ENDBRANCH   1  24
TORSDOF 6
ENDMDL
MODEL 2
REMARK VINA RESULT:      -8.0      0.706      1.136
REMARK  Name = 
REMARK  6 active torsions:
REMARK  status: ('A' for Active; 'I' for Inactive)
REMARK    1  A    between atoms: C_2  and  O_24
REMARK    2  A    between atoms: N_3  and  C_4
REMARK    3  A    between atoms: C_8  and  C_9
REMARK    4  A    between atoms: C_17  and  N_18
REMARK    5  A    between atoms: O_24  and  C_25
REMARK    6  A    between atoms: C_25  and  C_26
REMARK                            x       y       z     vdW  Elec       q    Type
REMARK                         _______ _______ _______ _____ _____    ______ ____
ROOT
ATOM      1  C   UNL     1       3.315   6.471  17.985  0.00  0.00    +0.000 A 
ATOM      2  C   UNL     1       2.931   7.819  18.168  0.00  0.00    +0.000 A 
ATOM      3  C   UNL     1       2.081   8.147  19.224  0.00  0.00    +0.000 A 
ATOM      4  N   UNL     1       1.637   9.373  19.660  0.00  0.00    +0.000 NA
ATOM      5  C   UNL     1       0.854   9.114  20.682  0.00  0.00    +0.000 A 
ATOM      6  N   UNL     1       0.761   7.765  20.902  0.00  0.00    +0.000 N 
ATOM      7  C   UNL     1       1.575   7.127  20.009  0.00  0.00    +0.000 A 
ATOM      8  C   UNL     1       1.915   5.784  19.839  0.00  0.00    +0.000 A 
ATOM      9  C   UNL     1       2.865   5.438  18.851  0.00  0.00    +0.000 A 
ATOM     10  H   UNL     1       0.228   7.330  21.633  0.00  0.00    +0.000 HD
ENDROOT
BRANCH   9  11
ATOM     11  N   UNL     1       3.356   4.130  18.789  0.00  0.00    +0.000 N 
ATOM     12  C   UNL     1       3.117   3.331  17.577  0.00  0.00    +0.000 C 
ATOM     13  C   UNL     1       2.899   1.883  18.006  0.00  0.00    +0.000 C 
ATOM     14  C   UNL     1       4.079   1.367  18.832  0.00  0.00    +0.000 C 
ATOM     15  C   UNL     1       4.452   2.329  19.967  0.00  0.00    +0.000 C 
ATOM     16  C   UNL     1       4.605   3.769  19.469  0.00  0.00    +0.000 C 
ENDBRANCH   9  11
BRANCH   5  17
ATOM     17  C   UNL     1       0.173  10.099  21.475  0.00  0.00    +0.000 A 
ATOM     18  C   UNL     1      -0.539   9.872  22.639  0.00  0.00    +0.000 A 
ATOM     19  C   UNL     1      -1.092  11.066  23.182  0.00  0.00    +0.000 A 
ATOM     20  C   UNL     1      -0.793  12.167  22.417  0.00  0.00    +0.000 A 
ATOM     21  S   UNL     1       0.145  11.761  21.050  0.00  0.00    +0.000 S 
ENDBRANCH   5  17
BRANCH   1  24
ATOM     22  O   UNL     1       6.094   6.980  18.146  0.00  0.00    +0.000 OA
ATOM     23  C   UNL     1       5.601   6.452  17.156  0.00  0.00    +0.000 C 
ATOM     24  N   UNL     1       4.258   6.220  16.963  0.00  0.00    +0.000 N 
ATOM     25  H   UNL     1       3.929   6.185  16.010  0.00  0.00    +0.000 HD
BRANCH  23  26
ATOM     26  O   UNL     1       6.314   6.069  16.066  0.00  0.00    +0.000 OA
BRANCH  26  27
ATOM     27  C   UNL     1       6.222   4.670  15.747  0.00  0.00    +0.000 C 
BRANCH  27  28
ATOM     28  C   UNL     1       6.493   4.433  14.281  0.00  0.00    +0.000 A 
ATOM     29  C   UNL     1       7.508   5.142  13.622  0.00  0.00    +0.000 A 
ATOM     30  C   UNL     1       7.754   4.932  12.264  0.00  0.00    +0.000 A 
ATOM     31  C   UNL     1       6.989   4.012  11.549  0.00  0.00    +0.000 A 
ATOM     32  C   UNL     1       5.979   3.300  12.192  0.00  0.00    +0.000 A 
ATOM     33  C   UNL     1       5.730   3.511  13.552  0.00  0.00    +0.000 A 
ENDBRANCH  27  28
ENDBRANCH  26  27
ENDBRANCH  23  26
ENDBRANCH   1  24
TORSDOF 6
ENDMDL
MODEL 3
REMARK VINA RESULT:      -7.9      1.981      5.232
REMARK  Name = 
REMARK  6 active torsions:
REMARK  status: ('A' for Active; 'I' for Inactive)
REMARK    1  A    between atoms: C_2  and  O_24
REMARK    2  A    between atoms: N_3  and  C_4
REMARK    3  A    between atoms: C_8  and  C_9
REMARK    4  A    between atoms: C_17  and  N_18
REMARK    5  A    between atoms: O_24  and  C_25
REMARK    6  A    between atoms: C_25  and  C_26
REMARK                            x       y       z     vdW  Elec       q    Type
REMARK                         _______ _______ _______ _____ _____    ______ ____
ROOT
ATOM      1  C   UNL     1       3.837   5.806  18.311  0.00  0.00    +0.000 A 
ATOM      2  C   UNL     1       2.779   6.337  19.082  0.00  0.00    +0.000 A 
ATOM      3  C   UNL     1       2.316   7.624  18.807  0.00  0.00    +0.000 A 
ATOM      4  N   UNL     1       1.262   8.324  19.345  0.00  0.00    +0.000 NA
ATOM      5  C   UNL     1       1.273   9.487  18.737  0.00  0.00    +0.000 A 
ATOM      6  N   UNL     1       2.311   9.569  17.846  0.00  0.00    +0.000 N 
ATOM      7  C   UNL     1       2.966   8.369  17.839  0.00  0.00    +0.000 A 
ATOM      8  C   UNL     1       4.030   7.882  17.080  0.00  0.00    +0.000 A 
ATOM      9  C   UNL     1       4.442   6.542  17.257  0.00  0.00    +0.000 A 
ATOM     10  H   UNL     1       2.515  10.357  17.260  0.00  0.00    +0.000 HD
ENDROOT
BRANCH   9  11
ATOM     11  N   UNL     1       5.376   5.980  16.380  0.00  0.00    +0.000 N 
ATOM     12  C   UNL     1       5.096   5.982  14.936  0.00  0.00    +0.000 C 
ATOM     13  C   UNL     1       5.652   4.688  14.350  0.00  0.00    +0.000 C 
ATOM     14  C   UNL     1       7.141   4.533  14.663  0.00  0.00    +0.000 C 
ATOM     15  C   UNL     1       7.443   4.751  16.151  0.00  0.00    +0.000 C 
ATOM     16  C   UNL     1       6.811   6.043  16.679  0.00  0.00    +0.000 C 
ENDBRANCH   9  11
BRANCH   5  17
ATOM     17  C   UNL     1       0.335  10.551  18.964  0.00  0.00    +0.000 A 
ATOM     18  C   UNL     1      -1.020  10.418  19.204  0.00  0.00    +0.000 A 
ATOM     19  C   UNL     1      -1.668  11.673  19.391  0.00  0.00    +0.000 A 
ATOM     20  C   UNL     1      -0.793  12.725  19.283  0.00  0.00    +0.000 A 
ATOM     21  S   UNL     1       0.800  12.202  18.954  0.00  0.00    +0.000 S 
ENDBRANCH   5  17
BRANCH   1  24
ATOM     22  O   UNL     1       6.031   4.949  19.882  0.00  0.00    +0.000 OA
ATOM     23  C   UNL     1       5.246   4.145  19.394  0.00  0.00    +0.000 C 
ATOM     24  N   UNL     1       4.189   4.461  18.571  0.00  0.00    +0.000 N 
ATOM     25  H   UNL     1       3.887   3.755  17.916  0.00  0.00    +0.000 HD
BRANCH  23  26
ATOM     26  O   UNL     1       5.343   2.799  19.550  0.00  0.00    +0.000 OA
BRANCH  26  27
ATOM     27  C   UNL     1       4.484   2.246  20.562  0.00  0.00    +0.000 C 
BRANCH  27  28
ATOM     28  C   UNL     1       3.032   2.499  20.231  0.00  0.00    +0.000 A 
ATOM     29  C   UNL     1       2.464   1.960  19.069  0.00  0.00    +0.000 A 
ATOM     30  C   UNL     1       1.124   2.200  18.756  0.00  0.00    +0.000 A 
ATOM     31  C   UNL     1       0.338   2.982  19.601  0.00  0.00    +0.000 A 
ATOM     32  C   UNL     1       0.890   3.522  20.761  0.00  0.00    +0.000 A 
ATOM     33  C   UNL     1       2.232   3.283  21.074  0.00  0.00    +0.000 A 
ENDBRANCH  27  28
ENDBRANCH  26  27
ENDBRANCH  23  26
ENDBRANCH   1  24
TORSDOF 6
ENDMDL
MODEL 4
REMARK VINA RESULT:      -7.8      3.539     10.389
REMARK  Name = 
REMARK  6 active torsions:
REMARK  status: ('A' for Active; 'I' for Inactive)
REMARK    1  A    between atoms: C_2  and  O_24
REMARK    2  A    between atoms: N_3  and  C_4
REMARK    3  A    between atoms: C_8  and  C_9
REMARK    4  A    between atoms: C_17  and  N_18
REMARK    5  A    between atoms: O_24  and  C_25
REMARK    6  A    between atoms: C_25  and  C_26
REMARK                            x       y       z     vdW  Elec       q    Type
REMARK                         _______ _______ _______ _____ _____    ______ ____
ROOT
ATOM      1  C   UNL     1       1.015   9.009  20.186  0.00  0.00    +0.000 A 
ATOM      2  C   UNL     1       1.663   7.754  20.161  0.00  0.00    +0.000 A 
ATOM      3  C   UNL     1       2.458   7.420  19.065  0.00  0.00    +0.000 A 
ATOM      4  N   UNL     1       3.248   6.317  18.842  0.00  0.00    +0.000 NA
ATOM      5  C   UNL     1       3.770   6.501  17.652  0.00  0.00    +0.000 A 
ATOM      6  N   UNL     1       3.325   7.669  17.092  0.00  0.00    +0.000 N 
ATOM      7  C   UNL     1       2.518   8.299  17.998  0.00  0.00    +0.000 A 
ATOM      8  C   UNL     1       1.870   9.534  17.982  0.00  0.00    +0.000 A 
ATOM      9  C   UNL     1       1.154   9.948  19.128  0.00  0.00    +0.000 A 
ATOM     10  H   UNL     1       3.595   8.024  16.193  0.00  0.00    +0.000 HD
ENDROOT
BRANCH   9  11
ATOM     11  N   UNL     1       0.656  11.253  19.203  0.00  0.00    +0.000 N 
ATOM     12  C   UNL     1      -0.798  11.465  19.247  0.00  0.00    +0.000 C 
ATOM     13  C   UNL     1      -1.110  12.739  18.468  0.00  0.00    +0.000 C 
ATOM     14  C   UNL     1      -0.322  13.930  19.017  0.00  0.00    +0.000 C 
ATOM     15  C   UNL     1       1.171  13.613  19.168  0.00  0.00    +0.000 C 
ATOM     16  C   UNL     1       1.403  12.296  19.916  0.00  0.00    +0.000 C 
ENDBRANCH   9  11
BRANCH   5  17
ATOM     17  C   UNL     1       4.686   5.606  17.000  0.00  0.00    +0.000 A 
ATOM     18  C   UNL     1       5.820   5.957  16.292  0.00  0.00    +0.000 A 
ATOM     19  C   UNL     1       6.512   4.826  15.772  0.00  0.00    +0.000 A 
ATOM     20  C   UNL     1       5.887   3.647  16.094  0.00  0.00    +0.000 A 
ATOM     21  S   UNL     1       4.470   3.903  17.013  0.00  0.00    +0.000 S 
ENDBRANCH   5  17
BRANCH   1  24
ATOM     22  O   UNL     1       2.186   9.602  22.694  0.00  0.00    +0.000 OA
ATOM     23  C   UNL     1       0.972   9.655  22.530  0.00  0.00    +0.000 C 
ATOM     24  N   UNL     1       0.310   9.328  21.369  0.00  0.00    +0.000 N 
ATOM     25  H   UNL     1      -0.643   9.007  21.457  0.00  0.00    +0.000 HD
BRANCH  23  26
ATOM     26  O   UNL     1       0.090   9.993  23.505  0.00  0.00    +0.000 OA
BRANCH  26  27
ATOM     27  C   UNL     1      -1.260  10.194  23.053  0.00  0.00    +0.000 C 
BRANCH  27  28
ATOM     28  C   UNL     1      -1.636  11.655  23.116  0.00  0.00    +0.000 A 
ATOM     29  C   UNL     1      -2.909  12.043  23.559  0.00  0.00    +0.000 A 
ATOM     30  C   UNL     1      -3.262  13.393  23.609  0.00  0.00    +0.000 A 
ATOM     31  C   UNL     1      -2.350  14.370  23.215  0.00  0.00    +0.000 A 
ATOM     32  C   UNL     1      -1.082  13.998  22.773  0.00  0.00    +0.000 A 
ATOM     33  C   UNL     1      -0.727  12.646  22.722  0.00  0.00    +0.000 A 
ENDBRANCH  27  28
ENDBRANCH  26  27
ENDBRANCH  23  26
ENDBRANCH   1  24
TORSDOF 6
ENDMDL
MODEL 5
REMARK VINA RESULT:      -7.8      3.572     10.213
REMARK  Name = 
REMARK  6 active torsions:
REMARK  status: ('A' for Active; 'I' for Inactive)
REMARK    1  A    between atoms: C_2  and  O_24
REMARK    2  A    between atoms: N_3  and  C_4
REMARK    3  A    between atoms: C_8  and  C_9
REMARK    4  A    between atoms: C_17  and  N_18
REMARK    5  A    between atoms: O_24  and  C_25
REMARK    6  A    between atoms: C_25  and  C_26
REMARK                            x       y       z     vdW  Elec       q    Type
REMARK                         _______ _______ _______ _____ _____    ______ ____
ROOT
ATOM      1  C   UNL     1       1.178   8.674  20.194  0.00  0.00    +0.000 A 
ATOM      2  C   UNL     1       1.988   7.519  20.269  0.00  0.00    +0.000 A 
ATOM      3  C   UNL     1       2.824   7.203  19.198  0.00  0.00    +0.000 A 
ATOM      4  N   UNL     1       3.755   6.201  19.062  0.00  0.00    +0.000 NA
ATOM      5  C   UNL     1       4.253   6.353  17.856  0.00  0.00    +0.000 A 
ATOM      6  N   UNL     1       3.659   7.401  17.205  0.00  0.00    +0.000 N 
ATOM      7  C   UNL     1       2.771   7.991  18.062  0.00  0.00    +0.000 A 
ATOM      8  C   UNL     1       1.965   9.124  17.948  0.00  0.00    +0.000 A 
ATOM      9  C   UNL     1       1.195   9.532  19.061  0.00  0.00    +0.000 A 
ATOM     10  H   UNL     1       3.882   7.713  16.278  0.00  0.00    +0.000 HD
ENDROOT
BRANCH   9  11
ATOM     11  N   UNL     1       0.529  10.761  19.031  0.00  0.00    +0.000 N 
ATOM     12  C   UNL     1      -0.936  10.785  19.162  0.00  0.00    +0.000 C 
ATOM     13  C   UNL     1      -1.467  11.908  18.275  0.00  0.00    +0.000 C 
ATOM     14  C   UNL     1      -0.819  13.248  18.630  0.00  0.00    +0.000 C 
ATOM     15  C   UNL     1       0.710  13.147  18.702  0.00  0.00    +0.000 C 
ATOM     16  C   UNL     1       1.166  11.969  19.568  0.00  0.00    +0.000 C 
ENDBRANCH   9  11
BRANCH   5  17
ATOM     17  C   UNL     1       5.282   5.536  17.275  0.00  0.00    +0.000 A 
ATOM     18  C   UNL     1       6.475   5.167  17.867  0.00  0.00    +0.000 A 
ATOM     19  C   UNL     1       7.276   4.348  17.020  0.00  0.00    +0.000 A 
ATOM     20  C   UNL     1       6.675   4.120  15.807  0.00  0.00    +0.000 A 
ATOM     21  S   UNL     1       5.156   4.893  15.689  0.00  0.00    +0.000 S 
ENDBRANCH   5  17
BRANCH   1  24
ATOM     22  O   UNL     1       2.251   9.624  22.636  0.00  0.00    +0.000 OA
ATOM     23  C   UNL     1       1.042   9.501  22.477  0.00  0.00    +0.000 C 
ATOM     24  N   UNL     1       0.433   8.994  21.352  0.00  0.00    +0.000 N 
ATOM     25  H   UNL     1      -0.469   8.558  21.473  0.00  0.00    +0.000 HD
BRANCH  23  26
ATOM     26  O   UNL     1       0.119   9.799  23.427  0.00  0.00    +0.000 OA
BRANCH  26  27
ATOM     27  C   UNL     1      -1.206  10.043  22.925  0.00  0.00    +0.000 C 
BRANCH  27  28
ATOM     28  C   UNL     1      -1.545  11.512  22.994  0.00  0.00    +0.000 A 
ATOM     29  C   UNL     1      -0.641  12.474  22.522  0.00  0.00    +0.000 A 
ATOM     30  C   UNL     1      -0.949  13.835  22.593  0.00  0.00    +0.000 A 
ATOM     31  C   UNL     1      -2.162  14.249  23.139  0.00  0.00    +0.000 A 
ATOM     32  C   UNL     1      -3.071  13.304  23.611  0.00  0.00    +0.000 A 
ATOM     33  C   UNL     1      -2.763  11.941  23.541  0.00  0.00    +0.000 A 
ENDBRANCH  27  28
ENDBRANCH  26  27
ENDBRANCH  23  26
ENDBRANCH   1  24
TORSDOF 6
ENDMDL
MODEL 6
REMARK VINA RESULT:      -7.7      1.942      2.289
REMARK  Name = 
REMARK  6 active torsions:
REMARK  status: ('A' for Active; 'I' for Inactive)
REMARK    1  A    between atoms: C_2  and  O_24
REMARK    2  A    between atoms: N_3  and  C_4
REMARK    3  A    between atoms: C_8  and  C_9
REMARK    4  A    between atoms: C_17  and  N_18
REMARK    5  A    between atoms: O_24  and  C_25
REMARK    6  A    between atoms: C_25  and  C_26
REMARK                            x       y       z     vdW  Elec       q    Type
REMARK                         _______ _______ _______ _____ _____    ______ ____
ROOT
ATOM      1  C   UNL     1       3.208   6.510  18.001  0.00  0.00    +0.000 A 
ATOM      2  C   UNL     1       3.116   7.786  17.402  0.00  0.00    +0.000 A 
ATOM      3  C   UNL     1       2.387   8.788  18.044  0.00  0.00    +0.000 A 
ATOM      4  N   UNL     1       2.219  10.113  17.719  0.00  0.00    +0.000 NA
ATOM      5  C   UNL     1       1.434  10.601  18.652  0.00  0.00    +0.000 A 
ATOM      6  N   UNL     1       1.074   9.632  19.550  0.00  0.00    +0.000 N 
ATOM      7  C   UNL     1       1.709   8.471  19.208  0.00  0.00    +0.000 A 
ATOM      8  C   UNL     1       1.761   7.214  19.811  0.00  0.00    +0.000 A 
ATOM      9  C   UNL     1       2.586   6.216  19.244  0.00  0.00    +0.000 A 
ATOM     10  H   UNL     1       0.489   9.772  20.353  0.00  0.00    +0.000 HD
ENDROOT
BRANCH   9  11
ATOM     11  N   UNL     1       2.796   5.016  19.932  0.00  0.00    +0.000 N 
ATOM     12  C   UNL     1       4.153   4.451  19.988  0.00  0.00    +0.000 C 
ATOM     13  C   UNL     1       4.029   2.930  19.934  0.00  0.00    +0.000 C 
ATOM     14  C   UNL     1       3.123   2.409  21.051  0.00  0.00    +0.000 C 
ATOM     15  C   UNL     1       1.790   3.164  21.111  0.00  0.00    +0.000 C 
ATOM     16  C   UNL     1       1.993   4.683  21.113  0.00  0.00    +0.000 C 
ENDBRANCH   9  11
BRANCH   5  17
ATOM     17  C   UNL     1       0.996  11.966  18.736  0.00  0.00    +0.000 A 
ATOM     18  C   UNL     1      -0.312  12.414  18.736  0.00  0.00    +0.000 A 
ATOM     19  C   UNL     1      -0.405  13.832  18.834  0.00  0.00    +0.000 A 
ATOM     20  C   UNL     1       0.832  14.425  18.902  0.00  0.00    +0.000 A 
ATOM     21  S   UNL     1       2.096  13.279  18.842  0.00  0.00    +0.000 S 
ENDBRANCH   5  17
BRANCH   1  24
ATOM     22  O   UNL     1       6.012   6.744  17.687  0.00  0.00    +0.000 OA
ATOM     23  C   UNL     1       5.409   5.750  17.299  0.00  0.00    +0.000 C 
ATOM     24  N   UNL     1       4.046   5.572  17.354  0.00  0.00    +0.000 N 
ATOM     25  H   UNL     1       3.632   4.960  16.666  0.00  0.00    +0.000 HD
BRANCH  23  26
ATOM     26  O   UNL     1       6.005   4.690  16.695  0.00  0.00    +0.000 OA
BRANCH  26  27
ATOM     27  C   UNL     1       5.237   4.087  15.639  0.00  0.00    +0.000 C 
BRANCH  27  28
ATOM     28  C   UNL     1       5.971   4.173  14.323  0.00  0.00    +0.000 A 
ATOM     29  C   UNL     1       7.099   4.995  14.190  0.00  0.00    +0.000 A 
ATOM     30  C   UNL     1       7.775   5.083  12.971  0.00  0.00    +0.000 A 
ATOM     31  C   UNL     1       7.329   4.353  11.871  0.00  0.00    +0.000 A 
ATOM     32  C   UNL     1       6.210   3.532  11.989  0.00  0.00    +0.000 A 
ATOM     33  C   UNL     1       5.532   3.443  13.209  0.00  0.00    +0.000 A 
ENDBRANCH  27  28
ENDBRANCH  26  27
ENDBRANCH  23  26
ENDBRANCH   1  24
TORSDOF 6
ENDMDL
MODEL 7
REMARK VINA RESULT:      -7.6      0.830      1.272
REMARK  Name = 
REMARK  6 active torsions:
REMARK  status: ('A' for Active; 'I' for Inactive)
REMARK    1  A    between atoms: C_2  and  O_24
REMARK    2  A    between atoms: N_3  and  C_4
REMARK    3  A    between atoms: C_8  and  C_9
REMARK    4  A    between atoms: C_17  and  N_18
REMARK    5  A    between atoms: O_24  and  C_25
REMARK    6  A    between atoms: C_25  and  C_26
REMARK                            x       y       z     vdW  Elec       q    Type
REMARK                         _______ _______ _______ _____ _____    ______ ____
ROOT
ATOM      1  C   UNL     1       3.373   5.721  18.438  0.00  0.00    +0.000 A 
ATOM      2  C   UNL     1       3.094   7.106  18.497  0.00  0.00    +0.000 A 
ATOM      3  C   UNL     1       2.201   7.580  19.457  0.00  0.00    +0.000 A 
ATOM      4  N   UNL     1       1.833   8.867  19.772  0.00  0.00    +0.000 NA
ATOM      5  C   UNL     1       0.959   8.749  20.744  0.00  0.00    +0.000 A 
ATOM      6  N   UNL     1       0.734   7.432  21.049  0.00  0.00    +0.000 N 
ATOM      7  C   UNL     1       1.553   6.665  20.269  0.00  0.00    +0.000 A 
ATOM      8  C   UNL     1       1.787   5.291  20.218  0.00  0.00    +0.000 A 
ATOM      9  C   UNL     1       2.774   4.795  19.334  0.00  0.00    +0.000 A 
ATOM     10  H   UNL     1       0.114   7.097  21.763  0.00  0.00    +0.000 HD
ENDROOT
BRANCH   9  11
ATOM     11  N   UNL     1       3.154   3.451  19.401  0.00  0.00    +0.000 N 
ATOM     12  C   UNL     1       3.539   2.878  20.699  0.00  0.00    +0.000 C 
ATOM     13  C   UNL     1       4.662   1.874  20.454  0.00  0.00    +0.000 C 
ATOM     14  C   UNL     1       4.241   0.810  19.439  0.00  0.00    +0.000 C 
ATOM     15  C   UNL     1       3.639   1.429  18.171  0.00  0.00    +0.000 C 
ATOM     16  C   UNL     1       2.555   2.461  18.499  0.00  0.00    +0.000 C 
ENDBRANCH   9  11
BRANCH   5  17
ATOM     17  C   UNL     1       0.308   9.841  21.412  0.00  0.00    +0.000 A 
ATOM     18  C   UNL     1       0.223  11.147  20.965  0.00  0.00    +0.000 A 
ATOM     19  C   UNL     1      -0.496  11.986  21.865  0.00  0.00    +0.000 A 
ATOM     20  C   UNL     1      -0.933  11.301  22.971  0.00  0.00    +0.000 A 
ATOM     21  S   UNL     1      -0.475   9.656  22.927  0.00  0.00    +0.000 S 
ENDBRANCH   5  17
BRANCH   1  24
ATOM     22  O   UNL     1       6.096   5.243  19.042  0.00  0.00    +0.000 OA
ATOM     23  C   UNL     1       5.654   5.059  17.915  0.00  0.00    +0.000 C 
ATOM     24  N   UNL     1       4.364   5.320  17.513  0.00  0.00    +0.000 N 
ATOM     25  H   UNL     1       4.219   5.534  16.538  0.00  0.00    +0.000 HD
BRANCH  23  26
ATOM     26  O   UNL     1       6.401   4.621  16.869  0.00  0.00    +0.000 OA
BRANCH  26  27
ATOM     27  C   UNL     1       6.650   5.606  15.852  0.00  0.00    +0.000 C 
BRANCH  27  28
ATOM     28  C   UNL     1       6.650   4.975  14.480  0.00  0.00    +0.000 A 
ATOM     29  C   UNL     1       5.681   4.022  14.136  0.00  0.00    +0.000 A 
ATOM     30  C   UNL     1       5.685   3.431  12.871  0.00  0.00    +0.000 A 
ATOM     31  C   UNL     1       6.657   3.783  11.937  0.00  0.00    +0.000 A 
ATOM     32  C   UNL     1       7.625   4.730  12.266  0.00  0.00    +0.000 A 
ATOM     33  C   UNL     1       7.623   5.323  13.533  0.00  0.00    +0.000 A 
ENDBRANCH  27  28
ENDBRANCH  26  27
ENDBRANCH  23  26
ENDBRANCH   1  24
TORSDOF 6
ENDMDL
MODEL 8
REMARK VINA RESULT:      -7.6      1.248      1.586
REMARK  Name = 
REMARK  6 active torsions:
REMARK  status: ('A' for Active; 'I' for Inactive)
REMARK    1  A    between atoms: C_2  and  O_24
REMARK    2  A    between atoms: N_3  and  C_4
REMARK    3  A    between atoms: C_8  and  C_9
REMARK    4  A    between atoms: C_17  and  N_18
REMARK    5  A    between atoms: O_24  and  C_25
REMARK    6  A    between atoms: C_25  and  C_26
REMARK                            x       y       z     vdW  Elec       q    Type
REMARK                         _______ _______ _______ _____ _____    ______ ____
ROOT
ATOM      1  C   UNL     1       2.814   7.447  17.907  0.00  0.00    +0.000 A 
ATOM      2  C   UNL     1       2.419   8.800  18.001  0.00  0.00    +0.000 A 
ATOM      3  C   UNL     1       1.716   9.227  19.127  0.00  0.00    +0.000 A 
ATOM      4  N   UNL     1       1.300  10.486  19.492  0.00  0.00    +0.000 NA
ATOM      5  C   UNL     1       0.677  10.326  20.637  0.00  0.00    +0.000 A 
ATOM      6  N   UNL     1       0.657   9.008  21.008  0.00  0.00    +0.000 N 
ATOM      7  C   UNL     1       1.357   8.289  20.080  0.00  0.00    +0.000 A 
ATOM      8  C   UNL     1       1.711   6.942  20.003  0.00  0.00    +0.000 A 
ATOM      9  C   UNL     1       2.523   6.506  18.932  0.00  0.00    +0.000 A 
ATOM     10  H   UNL     1       0.247   8.646  21.849  0.00  0.00    +0.000 HD
ENDROOT
BRANCH   9  11
ATOM     11  N   UNL     1       3.042   5.207  18.937  0.00  0.00    +0.000 N 
ATOM     12  C   UNL     1       4.195   4.898  19.796  0.00  0.00    +0.000 C 
ATOM     13  C   UNL     1       5.072   3.890  19.058  0.00  0.00    +0.000 C 
ATOM     14  C   UNL     1       4.274   2.645  18.668  0.00  0.00    +0.000 C 
ATOM     15  C   UNL     1       2.961   3.000  17.959  0.00  0.00    +0.000 C 
ATOM     16  C   UNL     1       2.160   4.052  18.733  0.00  0.00    +0.000 C 
ENDBRANCH   9  11
BRANCH   5  17
ATOM     17  C   UNL     1       0.083  11.380  21.412  0.00  0.00    +0.000 A 
ATOM     18  C   UNL     1      -0.784  11.231  22.479  0.00  0.00    +0.000 A 
ATOM     19  C   UNL     1      -1.189  12.479  23.032  0.00  0.00    +0.000 A 
ATOM     20  C   UNL     1      -0.625  13.543  22.372  0.00  0.00    +0.000 A 
ATOM     21  S   UNL     1       0.383  13.038  21.088  0.00  0.00    +0.000 S 
ENDBRANCH   5  17
BRANCH   1  24
ATOM     22  O   UNL     1       5.644   7.399  17.856  0.00  0.00    +0.000 OA
ATOM     23  C   UNL     1       4.985   7.057  16.882  0.00  0.00    +0.000 C 
ATOM     24  N   UNL     1       3.612   7.102  16.792  0.00  0.00    +0.000 N 
ATOM     25  H   UNL     1       3.213   7.207  15.871  0.00  0.00    +0.000 HD
BRANCH  23  26
ATOM     26  O   UNL     1       5.526   6.632  15.711  0.00  0.00    +0.000 OA
BRANCH  26  27
ATOM     27  C   UNL     1       6.170   5.348  15.775  0.00  0.00    +0.000 C 
BRANCH  27  28
ATOM     28  C   UNL     1       6.369   4.776  14.393  0.00  0.00    +0.000 A 
ATOM     29  C   UNL     1       5.448   3.863  13.861  0.00  0.00    +0.000 A 
ATOM     30  C   UNL     1       5.635   3.326  12.585  0.00  0.00    +0.000 A 
ATOM     31  C   UNL     1       6.746   3.693  11.828  0.00  0.00    +0.000 A 
ATOM     32  C   UNL     1       7.669   4.600  12.344  0.00  0.00    +0.000 A 
ATOM     33  C   UNL     1       7.483   5.139  13.622  0.00  0.00    +0.000 A 
ENDBRANCH  27  28
ENDBRANCH  26  27
ENDBRANCH  23  26
ENDBRANCH   1  24
TORSDOF 6
ENDMDL
MODEL 9
REMARK VINA RESULT:      -7.6      3.596     10.517
REMARK  Name = 
REMARK  6 active torsions:
REMARK  status: ('A' for Active; 'I' for Inactive)
REMARK    1  A    between atoms: C_2  and  O_24
REMARK    2  A    between atoms: N_3  and  C_4
REMARK    3  A    between atoms: C_8  and  C_9
REMARK    4  A    between atoms: C_17  and  N_18
REMARK    5  A    between atoms: O_24  and  C_25
REMARK    6  A    between atoms: C_25  and  C_26
REMARK                            x       y       z     vdW  Elec       q    Type
REMARK                         _______ _______ _______ _____ _____    ______ ____
ROOT
ATOM      1  C   UNL     1       0.998   8.799  20.184  0.00  0.00    +0.000 A 
ATOM      2  C   UNL     1       1.794   7.634  20.254  0.00  0.00    +0.000 A 
ATOM      3  C   UNL     1       2.601   7.294  19.168  0.00  0.00    +0.000 A 
ATOM      4  N   UNL     1       3.516   6.278  19.023  0.00  0.00    +0.000 NA
ATOM      5  C   UNL     1       3.986   6.408  17.804  0.00  0.00    +0.000 A 
ATOM      6  N   UNL     1       3.390   7.456  17.154  0.00  0.00    +0.000 N 
ATOM      7  C   UNL     1       2.531   8.068  18.024  0.00  0.00    +0.000 A 
ATOM      8  C   UNL     1       1.737   9.210  17.914  0.00  0.00    +0.000 A 
ATOM      9  C   UNL     1       1.000   9.642  19.040  0.00  0.00    +0.000 A 
ATOM     10  H   UNL     1       3.595   7.753  16.218  0.00  0.00    +0.000 HD
ENDROOT
BRANCH   9  11
ATOM     11  N   UNL     1       0.348  10.879  19.011  0.00  0.00    +0.000 N 
ATOM     12  C   UNL     1       1.137  12.100  18.787  0.00  0.00    +0.000 C 
ATOM     13  C   UNL     1       0.519  13.217  19.623  0.00  0.00    +0.000 C 
ATOM     14  C   UNL     1      -0.963  13.401  19.291  0.00  0.00    +0.000 C 
ATOM     15  C   UNL     1      -1.729  12.073  19.319  0.00  0.00    +0.000 C 
ATOM     16  C   UNL     1      -1.023  10.988  18.499  0.00  0.00    +0.000 C 
ENDBRANCH   9  11
BRANCH   5  17
ATOM     17  C   UNL     1       4.991   5.571  17.209  0.00  0.00    +0.000 A 
ATOM     18  C   UNL     1       4.777   4.516  16.341  0.00  0.00    +0.000 A 
ATOM     19  C   UNL     1       5.989   3.892  15.930  0.00  0.00    +0.000 A 
ATOM     20  C   UNL     1       7.091   4.483  16.499  0.00  0.00    +0.000 A 
ATOM     21  S   UNL     1       6.664   5.779  17.525  0.00  0.00    +0.000 S 
ENDBRANCH   5  17
BRANCH   1  24
ATOM     22  O   UNL     1       1.752  10.789  22.050  0.00  0.00    +0.000 OA
ATOM     23  C   UNL     1       0.705  10.165  22.175  0.00  0.00    +0.000 C 
ATOM     24  N   UNL     1       0.285   9.143  21.355  0.00  0.00    +0.000 N 
ATOM     25  H   UNL     1      -0.329   8.450  21.759  0.00  0.00    +0.000 HD
BRANCH  23  26
ATOM     26  O   UNL     1      -0.175  10.356  23.191  0.00  0.00    +0.000 OA
BRANCH  26  27
ATOM     27  C   UNL     1      -1.518  10.659  22.775  0.00  0.00    +0.000 C 
BRANCH  27  28
ATOM     28  C   UNL     1      -1.904  12.060  23.181  0.00  0.00    +0.000 A 
ATOM     29  C   UNL     1      -3.172  12.321  23.720  0.00  0.00    +0.000 A 
ATOM     30  C   UNL     1      -3.535  13.618  24.088  0.00  0.00    +0.000 A 
ATOM     31  C   UNL     1      -2.637  14.670  23.919  0.00  0.00    +0.000 A 
ATOM     32  C   UNL     1      -1.373  14.425  23.385  0.00  0.00    +0.000 A 
ATOM     33  C   UNL     1      -1.009  13.126  23.016  0.00  0.00    +0.000 A 
ENDBRANCH  27  28
ENDBRANCH  26  27
ENDBRANCH  23  26
ENDBRANCH   1  24
TORSDOF 6
ENDMDL
