MODEL 1
REMARK VINA RESULT:      -7.4      0.000      0.000
REMARK  Name = 
REMARK  8 active torsions:
REMARK  status: ('A' for Active; 'I' for Inactive)
REMARK    1  A    between atoms: C_1  and  C_2
REMARK    2  A    between atoms: C_2  and  C_3
REMARK    3  A    between atoms: C_2  and  C_4
REMARK    4  A    between atoms: C_4  and  N_5
REMARK    5  A    between atoms: N_7  and  C_8
REMARK    6  A    between atoms: C_8  and  C_9
REMARK    7  A    between atoms: C_8  and  C_10
REMARK    8  A    between atoms: N_22  and  C_23
REMARK                            x       y       z     vdW  Elec       q    Type
REMARK                         _______ _______ _______ _____ _____    ______ ____
ROOT
ATOM      1  N   UNL     1      -5.646  13.065  21.773  0.00  0.00    +0.000 N 
ATOM      2  C   UNL     1      -4.306  13.175  21.318  0.00  0.00    +0.000 A 
ATOM      3  N   UNL     1      -3.393  13.795  22.151  0.00  0.00    +0.000 N 
ATOM      4  N   UNL     1      -3.916  12.738  20.136  0.00  0.00    +0.000 NA
ATOM      5  C   UNL     1      -4.912  12.327  19.314  0.00  0.00    +0.000 A 
ATOM      6  C   UNL     1      -6.251  12.386  19.593  0.00  0.00    +0.000 A 
ATOM      7  C   UNL     1      -6.917  12.054  18.408  0.00  0.00    +0.000 A 
ATOM      8  N   UNL     1      -6.059  11.713  17.448  0.00  0.00    +0.000 NA
ATOM      9  N   UNL     1      -4.832  11.819  18.034  0.00  0.00    +0.000 N 
ATOM     10  C   UNL     1      -6.690  12.729  20.904  0.00  0.00    +0.000 A 
ATOM     11  O   UNL     1      -7.879  12.665  21.224  0.00  0.00    +0.000 OA
ATOM     12  H   UNL     1      -3.730  14.572  22.703  0.00  0.00    +0.000 HD
ENDROOT
BRANCH   9  13
ATOM     13  C   UNL     1      -3.700  11.352  17.261  0.00  0.00    +0.000 C 
ATOM     14  C   UNL     1      -2.938  10.162  17.825  0.00  0.00    +0.000 C 
ATOM     15  C   UNL     1      -2.051   9.727  16.663  0.00  0.00    +0.000 C 
ATOM     16  C   UNL     1      -2.808  10.100  15.387  0.00  0.00    +0.000 C 
ATOM     17  C   UNL     1      -4.006  10.946  15.819  0.00  0.00    +0.000 C 
ENDBRANCH   9  13
BRANCH   3  18
ATOM     18  C   UNL     1      -1.952  13.752  21.915  0.00  0.00    +0.000 C 
ATOM     19  C   UNL     1      -1.666  14.762  20.792  0.00  0.00    +0.000 C 
BRANCH  18  20
ATOM     20  C   UNL     1      -1.404  12.320  21.771  0.00  0.00    +0.000 A 
ATOM     21  C   UNL     1      -0.783  11.834  20.605  0.00  0.00    +0.000 A 
ATOM     22  C   UNL     1      -0.033  10.642  20.619  0.00  0.00    +0.000 A 
ATOM     23  C   UNL     1       0.091   9.908  21.793  0.00  0.00    +0.000 A 
ATOM     24 CL   UNL     1       1.123   8.530  21.844  0.00  0.00    +0.000 Cl
ATOM     25  C   UNL     1      -0.583  10.313  22.938  0.00  0.00    +0.000 A 
ATOM     26  C   UNL     1      -1.328  11.505  22.921  0.00  0.00    +0.000 A 
ENDBRANCH  18  20
ENDBRANCH   3  18
BRANCH   1  27
ATOM     27  C   UNL     1      -5.956  12.891  23.204  0.00  0.00    +0.000 C 
BRANCH  27  29
ATOM     28  C   UNL     1      -6.353  15.450  23.205  0.00  0.00    +0.000 C 
ATOM     29  C   UNL     1      -6.450  14.132  23.977  0.00  0.00    +0.000 C 
ATOM     30  C   UNL     1      -7.914  13.923  24.397  0.00  0.00    +0.000 C 
ENDBRANCH  27  29
ENDBRANCH   1  27
TORSDOF 5
ENDMDL
MODEL 2
REMARK VINA RESULT:      -7.4      8.165     11.199
REMARK  Name = 
REMARK  8 active torsions:
REMARK  status: ('A' for Active; 'I' for Inactive)
REMARK    1  A    between atoms: C_1  and  C_2
REMARK    2  A    between atoms: C_2  and  C_3
REMARK    3  A    between atoms: C_2  and  C_4
REMARK    4  A    between atoms: C_4  and  N_5
REMARK    5  A    between atoms: N_7  and  C_8
REMARK    6  A    between atoms: C_8  and  C_9
REMARK    7  A    between atoms: C_8  and  C_10
REMARK    8  A    between atoms: N_22  and  C_23
REMARK                            x       y       z     vdW  Elec       q    Type
REMARK                         _______ _______ _______ _____ _____    ______ ____
ROOT
ATOM      1  N   UNL     1       2.282   4.061  18.044  0.00  0.00    +0.000 N 
ATOM      2  C   UNL     1       2.746   5.347  18.427  0.00  0.00    +0.000 A 
ATOM      3  N   UNL     1       1.874   6.166  19.119  0.00  0.00    +0.000 N 
ATOM      4  N   UNL     1       3.951   5.790  18.123  0.00  0.00    +0.000 NA
ATOM      5  C   UNL     1       4.661   5.003  17.279  0.00  0.00    +0.000 A 
ATOM      6  C   UNL     1       4.208   3.851  16.693  0.00  0.00    +0.000 A 
ATOM      7  C   UNL     1       5.176   3.478  15.754  0.00  0.00    +0.000 A 
ATOM      8  N   UNL     1       6.232   4.290  15.796  0.00  0.00    +0.000 NA
ATOM      9  N   UNL     1       5.936   5.183  16.783  0.00  0.00    +0.000 N 
ATOM     10  C   UNL     1       2.967   3.285  17.102  0.00  0.00    +0.000 A 
ATOM     11  O   UNL     1       2.593   2.185  16.690  0.00  0.00    +0.000 OA
ATOM     12  H   UNL     1       0.897   6.114  18.865  0.00  0.00    +0.000 HD
ENDROOT
BRANCH   9  13
ATOM     13  C   UNL     1       6.986   6.104  17.162  0.00  0.00    +0.000 C 
ATOM     14  C   UNL     1       6.637   7.585  17.126  0.00  0.00    +0.000 C 
ATOM     15  C   UNL     1       7.798   8.241  17.865  0.00  0.00    +0.000 C 
ATOM     16  C   UNL     1       8.296   7.208  18.877  0.00  0.00    +0.000 C 
ATOM     17  C   UNL     1       7.576   5.897  18.558  0.00  0.00    +0.000 C 
ENDBRANCH   9  13
BRANCH   3  18
ATOM     18  C   UNL     1       2.301   7.397  19.780  0.00  0.00    +0.000 C 
ATOM     19  C   UNL     1       2.353   7.085  21.284  0.00  0.00    +0.000 C 
BRANCH  18  20
ATOM     20  C   UNL     1       1.519   8.638  19.314  0.00  0.00    +0.000 A 
ATOM     21  C   UNL     1       1.293   8.958  17.962  0.00  0.00    +0.000 A 
ATOM     22  C   UNL     1       0.329   9.914  17.589  0.00  0.00    +0.000 A 
ATOM     23  C   UNL     1      -0.410  10.579  18.561  0.00  0.00    +0.000 A 
ATOM     24 CL   UNL     1      -1.685  11.642  18.101  0.00  0.00    +0.000 Cl
ATOM     25  C   UNL     1      -0.147  10.352  19.906  0.00  0.00    +0.000 A 
ATOM     26  C   UNL     1       0.814   9.395  20.274  0.00  0.00    +0.000 A 
ENDBRANCH  18  20
ENDBRANCH   3  18
BRANCH   1  27
ATOM     27  C   UNL     1       1.327   3.313  18.881  0.00  0.00    +0.000 C 
BRANCH  27  29
ATOM     28  C   UNL     1       3.417   2.559  20.211  0.00  0.00    +0.000 C 
ATOM     29  C   UNL     1       1.890   2.590  20.123  0.00  0.00    +0.000 C 
ATOM     30  C   UNL     1       1.345   3.259  21.395  0.00  0.00    +0.000 C 
ENDBRANCH  27  29
ENDBRANCH   1  27
TORSDOF 5
ENDMDL
MODEL 3
REMARK VINA RESULT:      -7.3      8.191     11.254
REMARK  Name = 
REMARK  8 active torsions:
REMARK  status: ('A' for Active; 'I' for Inactive)
REMARK    1  A    between atoms: C_1  and  C_2
REMARK    2  A    between atoms: C_2  and  C_3
REMARK    3  A    between atoms: C_2  and  C_4
REMARK    4  A    between atoms: C_4  and  N_5
REMARK    5  A    between atoms: N_7  and  C_8
REMARK    6  A    between atoms: C_8  and  C_9
REMARK    7  A    between atoms: C_8  and  C_10
REMARK    8  A    between atoms: N_22  and  C_23
REMARK                            x       y       z     vdW  Elec       q    Type
REMARK                         _______ _______ _______ _____ _____    ______ ____
ROOT
ATOM      1  N   UNL     1       2.258   4.042  18.032  0.00  0.00    +0.000 N 
ATOM      2  C   UNL     1       2.741   5.313  18.441  0.00  0.00    +0.000 A 
ATOM      3  N   UNL     1       1.882   6.130  19.153  0.00  0.00    +0.000 N 
ATOM      4  N   UNL     1       3.952   5.743  18.146  0.00  0.00    +0.000 NA
ATOM      5  C   UNL     1       4.650   4.964  17.283  0.00  0.00    +0.000 A 
ATOM      6  C   UNL     1       4.179   3.832  16.673  0.00  0.00    +0.000 A 
ATOM      7  C   UNL     1       5.140   3.466  15.725  0.00  0.00    +0.000 A 
ATOM      8  N   UNL     1       6.208   4.260  15.783  0.00  0.00    +0.000 NA
ATOM      9  N   UNL     1       5.926   5.136  16.789  0.00  0.00    +0.000 N 
ATOM     10  C   UNL     1       2.929   3.277  17.072  0.00  0.00    +0.000 A 
ATOM     11  O   UNL     1       2.538   2.192  16.637  0.00  0.00    +0.000 OA
ATOM     12  H   UNL     1       0.904   6.098  18.899  0.00  0.00    +0.000 HD
ENDROOT
BRANCH   9  13
ATOM     13  C   UNL     1       6.991   6.033  17.187  0.00  0.00    +0.000 C 
ATOM     14  C   UNL     1       6.682   7.522  17.129  0.00  0.00    +0.000 C 
ATOM     15  C   UNL     1       7.841   8.154  17.892  0.00  0.00    +0.000 C 
ATOM     16  C   UNL     1       8.286   7.118  18.925  0.00  0.00    +0.000 C 
ATOM     17  C   UNL     1       7.539   5.824  18.599  0.00  0.00    +0.000 C 
ENDBRANCH   9  13
BRANCH   3  18
ATOM     18  C   UNL     1       2.329   7.339  19.839  0.00  0.00    +0.000 C 
ATOM     19  C   UNL     1       2.281   7.026  21.343  0.00  0.00    +0.000 C 
BRANCH  18  20
ATOM     20  C   UNL     1       1.634   8.616  19.333  0.00  0.00    +0.000 A 
ATOM     21  C   UNL     1       0.635   9.300  20.052  0.00  0.00    +0.000 A 
ATOM     22  C   UNL     1       0.251  10.609  19.703  0.00  0.00    +0.000 A 
ATOM     23  C   UNL     1       0.845  11.247  18.620  0.00  0.00    +0.000 A 
ATOM     24 CL   UNL     1       0.478  12.896  18.282  0.00  0.00    +0.000 Cl
ATOM     25  C   UNL     1       1.769  10.567  17.836  0.00  0.00    +0.000 A 
ATOM     26  C   UNL     1       2.151   9.261  18.189  0.00  0.00    +0.000 A 
ENDBRANCH  18  20
ENDBRANCH   3  18
BRANCH   1  27
ATOM     27  C   UNL     1       1.292   3.291  18.854  0.00  0.00    +0.000 C 
BRANCH  27  29
ATOM     28  C   UNL     1       3.368   2.481  20.173  0.00  0.00    +0.000 C 
ATOM     29  C   UNL     1       1.842   2.554  20.093  0.00  0.00    +0.000 C 
ATOM     30  C   UNL     1       1.322   3.239  21.368  0.00  0.00    +0.000 C 
ENDBRANCH  27  29
ENDBRANCH   1  27
TORSDOF 5
ENDMDL
MODEL 4
REMARK VINA RESULT:      -7.1      2.150      5.889
REMARK  Name = 
REMARK  8 active torsions:
REMARK  status: ('A' for Active; 'I' for Inactive)
REMARK    1  A    between atoms: C_1  and  C_2
REMARK    2  A    between atoms: C_2  and  C_3
REMARK    3  A    between atoms: C_2  and  C_4
REMARK    4  A    between atoms: C_4  and  N_5
REMARK    5  A    between atoms: N_7  and  C_8
REMARK    6  A    between atoms: C_8  and  C_9
REMARK    7  A    between atoms: C_8  and  C_10
REMARK    8  A    between atoms: N_22  and  C_23
REMARK                            x       y       z     vdW  Elec       q    Type
REMARK                         _______ _______ _______ _____ _____    ______ ____
ROOT
ATOM      1  N   UNL     1      -3.819  11.547  18.016  0.00  0.00    +0.000 N 
ATOM      2  C   UNL     1      -2.740  11.749  18.916  0.00  0.00    +0.000 A 
ATOM      3  N   UNL     1      -1.502  11.245  18.559  0.00  0.00    +0.000 N 
ATOM      4  N   UNL     1      -2.882  12.365  20.073  0.00  0.00    +0.000 NA
ATOM      5  C   UNL     1      -4.161  12.647  20.425  0.00  0.00    +0.000 A 
ATOM      6  C   UNL     1      -5.278  12.298  19.715  0.00  0.00    +0.000 A 
ATOM      7  C   UNL     1      -6.374  12.602  20.530  0.00  0.00    +0.000 A 
ATOM      8  N   UNL     1      -5.991  13.197  21.659  0.00  0.00    +0.000 NA
ATOM      9  N   UNL     1      -4.634  13.281  21.555  0.00  0.00    +0.000 N 
ATOM     10  C   UNL     1      -5.147  11.751  18.406  0.00  0.00    +0.000 A 
ATOM     11  O   UNL     1      -6.131  11.547  17.692  0.00  0.00    +0.000 OA
ATOM     12  H   UNL     1      -1.492  10.368  18.057  0.00  0.00    +0.000 HD
ENDROOT
BRANCH   9  13
ATOM     13  C   UNL     1      -3.949  14.034  22.585  0.00  0.00    +0.000 C 
ATOM     14  C   UNL     1      -4.688  15.239  23.149  0.00  0.00    +0.000 C 
ATOM     15  C   UNL     1      -3.879  15.603  24.389  0.00  0.00    +0.000 C 
ATOM     16  C   UNL     1      -3.268  14.295  24.896  0.00  0.00    +0.000 C 
ATOM     17  C   UNL     1      -3.540  13.239  23.825  0.00  0.00    +0.000 C 
ENDBRANCH   9  13
BRANCH   3  18
ATOM     18  C   UNL     1      -0.274  11.596  19.266  0.00  0.00    +0.000 C 
ATOM     19  C   UNL     1       0.279  12.854  18.577  0.00  0.00    +0.000 C 
BRANCH  18  20
ATOM     20  C   UNL     1       0.670  10.397  19.472  0.00  0.00    +0.000 A 
ATOM     21  C   UNL     1       0.733   9.647  20.662  0.00  0.00    +0.000 A 
ATOM     22  C   UNL     1       1.373   8.393  20.701  0.00  0.00    +0.000 A 
ATOM     23  C   UNL     1       1.977   7.879  19.559  0.00  0.00    +0.000 A 
ATOM     24 CL   UNL     1       2.634   6.287  19.572  0.00  0.00    +0.000 Cl
ATOM     25  C   UNL     1       2.010   8.635  18.394  0.00  0.00    +0.000 A 
ATOM     26  C   UNL     1       1.368   9.885  18.358  0.00  0.00    +0.000 A 
ENDBRANCH  18  20
ENDBRANCH   3  18
BRANCH   1  27
ATOM     27  C   UNL     1      -3.604  11.519  16.558  0.00  0.00    +0.000 C 
BRANCH  27  29
ATOM     28  C   UNL     1      -3.729  10.161  14.357  0.00  0.00    +0.000 C 
ATOM     29  C   UNL     1      -3.556  10.135  15.877  0.00  0.00    +0.000 C 
ATOM     30  C   UNL     1      -2.218   9.452  16.201  0.00  0.00    +0.000 C 
ENDBRANCH  27  29
ENDBRANCH   1  27
TORSDOF 5
ENDMDL
MODEL 5
REMARK VINA RESULT:      -7.1      1.543      5.311
REMARK  Name = 
REMARK  8 active torsions:
REMARK  status: ('A' for Active; 'I' for Inactive)
REMARK    1  A    between atoms: C_1  and  C_2
REMARK    2  A    between atoms: C_2  and  C_3
REMARK    3  A    between atoms: C_2  and  C_4
REMARK    4  A    between atoms: C_4  and  N_5
REMARK    5  A    between atoms: N_7  and  C_8
REMARK    6  A    between atoms: C_8  and  C_9
REMARK    7  A    between atoms: C_8  and  C_10
REMARK    8  A    between atoms: N_22  and  C_23
REMARK                            x       y       z     vdW  Elec       q    Type
REMARK                         _______ _______ _______ _____ _____    ______ ____
ROOT
ATOM      1  N   UNL     1      -4.769  11.585  18.312  0.00  0.00    +0.000 N 
ATOM      2  C   UNL     1      -3.777  12.145  19.159  0.00  0.00    +0.000 A 
ATOM      3  N   UNL     1      -2.472  12.156  18.701  0.00  0.00    +0.000 N 
ATOM      4  N   UNL     1      -4.049  12.620  20.359  0.00  0.00    +0.000 NA
ATOM      5  C   UNL     1      -5.309  12.388  20.801  0.00  0.00    +0.000 A 
ATOM      6  C   UNL     1      -6.267  11.670  20.137  0.00  0.00    +0.000 A 
ATOM      7  C   UNL     1      -7.332  11.510  21.030  0.00  0.00    +0.000 A 
ATOM      8  N   UNL     1      -7.112  12.164  22.170  0.00  0.00    +0.000 NA
ATOM      9  N   UNL     1      -5.896  12.756  21.994  0.00  0.00    +0.000 N 
ATOM     10  C   UNL     1      -6.043  11.260  18.791  0.00  0.00    +0.000 A 
ATOM     11  O   UNL     1      -6.932  10.727  18.123  0.00  0.00    +0.000 OA
ATOM     12  H   UNL     1      -2.175  11.366  18.145  0.00  0.00    +0.000 HD
ENDROOT
BRANCH   9  13
ATOM     13  C   UNL     1      -5.465  13.674  23.028  0.00  0.00    +0.000 C 
ATOM     14  C   UNL     1      -4.196  13.300  23.780  0.00  0.00    +0.000 C 
ATOM     15  C   UNL     1      -3.844  14.577  24.537  0.00  0.00    +0.000 C 
ATOM     16  C   UNL     1      -4.371  15.734  23.686  0.00  0.00    +0.000 C 
ATOM     17  C   UNL     1      -5.215  15.112  22.573  0.00  0.00    +0.000 C 
ENDBRANCH   9  13
BRANCH   3  18
ATOM     18  C   UNL     1      -1.412  12.917  19.356  0.00  0.00    +0.000 C 
ATOM     19  C   UNL     1      -0.476  13.405  18.240  0.00  0.00    +0.000 C 
BRANCH  18  20
ATOM     20  C   UNL     1      -0.796  12.185  20.562  0.00  0.00    +0.000 A 
ATOM     21  C   UNL     1      -1.218  12.376  21.892  0.00  0.00    +0.000 A 
ATOM     22  C   UNL     1      -0.849  11.477  22.912  0.00  0.00    +0.000 A 
ATOM     23  C   UNL     1      -0.038  10.386  22.622  0.00  0.00    +0.000 A 
ATOM     24 CL   UNL     1       0.296   9.212  23.838  0.00  0.00    +0.000 Cl
ATOM     25  C   UNL     1       0.468  10.220  21.339  0.00  0.00    +0.000 A 
ATOM     26  C   UNL     1       0.096  11.117  20.324  0.00  0.00    +0.000 A 
ENDBRANCH  18  20
ENDBRANCH   3  18
BRANCH   1  27
ATOM     27  C   UNL     1      -4.672  11.692  16.845  0.00  0.00    +0.000 C 
BRANCH  27  29
ATOM     28  C   UNL     1      -3.058  10.849  15.004  0.00  0.00    +0.000 C 
ATOM     29  C   UNL     1      -4.078  10.487  16.086  0.00  0.00    +0.000 C 
ATOM     30  C   UNL     1      -3.406   9.533  17.087  0.00  0.00    +0.000 C 
ENDBRANCH  27  29
ENDBRANCH   1  27
TORSDOF 5
ENDMDL
MODEL 6
REMARK VINA RESULT:      -6.9      3.805      6.276
REMARK  Name = 
REMARK  8 active torsions:
REMARK  status: ('A' for Active; 'I' for Inactive)
REMARK    1  A    between atoms: C_1  and  C_2
REMARK    2  A    between atoms: C_2  and  C_3
REMARK    3  A    between atoms: C_2  and  C_4
REMARK    4  A    between atoms: C_4  and  N_5
REMARK    5  A    between atoms: N_7  and  C_8
REMARK    6  A    between atoms: C_8  and  C_9
REMARK    7  A    between atoms: C_8  and  C_10
REMARK    8  A    between atoms: N_22  and  C_23
REMARK                            x       y       z     vdW  Elec       q    Type
REMARK                         _______ _______ _______ _____ _____    ______ ____
ROOT
ATOM      1  N   UNL     1      -1.310  12.832  22.032  0.00  0.00    +0.000 N 
ATOM      2  C   UNL     1      -0.632  12.390  20.865  0.00  0.00    +0.000 A 
ATOM      3  N   UNL     1      -0.933  11.129  20.385  0.00  0.00    +0.000 N 
ATOM      4  N   UNL     1       0.280  13.119  20.251  0.00  0.00    +0.000 NA
ATOM      5  C   UNL     1       0.651  14.249  20.901  0.00  0.00    +0.000 A 
ATOM      6  C   UNL     1       0.203  14.643  22.133  0.00  0.00    +0.000 A 
ATOM      7  C   UNL     1       0.985  15.742  22.505  0.00  0.00    +0.000 A 
ATOM      8  N   UNL     1       1.824  16.093  21.531  0.00  0.00    +0.000 NA
ATOM      9  N   UNL     1       1.564  15.212  20.523  0.00  0.00    +0.000 N 
ATOM     10  C   UNL     1      -0.872  13.946  22.756  0.00  0.00    +0.000 A 
ATOM     11  O   UNL     1      -1.383  14.352  23.801  0.00  0.00    +0.000 OA
ATOM     12  H   UNL     1      -1.131  10.413  21.070  0.00  0.00    +0.000 HD
ENDROOT
BRANCH   9  13
ATOM     13  C   UNL     1       2.229  15.454  19.260  0.00  0.00    +0.000 C 
ATOM     14  C   UNL     1       1.861  16.740  18.536  0.00  0.00    +0.000 C 
ATOM     15  C   UNL     1       2.930  16.856  17.454  0.00  0.00    +0.000 C 
ATOM     16  C   UNL     1       4.180  16.178  18.017  0.00  0.00    +0.000 C 
ATOM     17  C   UNL     1       3.757  15.483  19.312  0.00  0.00    +0.000 C 
ENDBRANCH   9  13
BRANCH   3  18
ATOM     18  C   UNL     1      -0.500  10.660  19.071  0.00  0.00    +0.000 C 
ATOM     19  C   UNL     1      -1.773  10.243  18.318  0.00  0.00    +0.000 C 
BRANCH  18  20
ATOM     20  C   UNL     1       0.671   9.663  19.140  0.00  0.00    +0.000 A 
ATOM     21  C   UNL     1       1.008   8.929  20.294  0.00  0.00    +0.000 A 
ATOM     22  C   UNL     1       1.874   7.821  20.228  0.00  0.00    +0.000 A 
ATOM     23  C   UNL     1       2.433   7.441  19.013  0.00  0.00    +0.000 A 
ATOM     24 CL   UNL     1       3.377   6.004  18.909  0.00  0.00    +0.000 Cl
ATOM     25  C   UNL     1       2.192   8.198  17.873  0.00  0.00    +0.000 A 
ATOM     26  C   UNL     1       1.325   9.302  17.942  0.00  0.00    +0.000 A 
ENDBRANCH  18  20
ENDBRANCH   3  18
BRANCH   1  27
ATOM     27  C   UNL     1      -2.698  12.422  22.311  0.00  0.00    +0.000 C 
BRANCH  27  29
ATOM     28  C   UNL     1      -4.283  12.614  20.273  0.00  0.00    +0.000 C 
ATOM     29  C   UNL     1      -3.822  13.209  21.605  0.00  0.00    +0.000 C 
ATOM     30  C   UNL     1      -5.040  13.308  22.538  0.00  0.00    +0.000 C 
ENDBRANCH  27  29
ENDBRANCH   1  27
TORSDOF 5
ENDMDL
MODEL 7
REMARK VINA RESULT:      -6.8      1.668      5.359
REMARK  Name = 
REMARK  8 active torsions:
REMARK  status: ('A' for Active; 'I' for Inactive)
REMARK    1  A    between atoms: C_1  and  C_2
REMARK    2  A    between atoms: C_2  and  C_3
REMARK    3  A    between atoms: C_2  and  C_4
REMARK    4  A    between atoms: C_4  and  N_5
REMARK    5  A    between atoms: N_7  and  C_8
REMARK    6  A    between atoms: C_8  and  C_9
REMARK    7  A    between atoms: C_8  and  C_10
REMARK    8  A    between atoms: N_22  and  C_23
REMARK                            x       y       z     vdW  Elec       q    Type
REMARK                         _______ _______ _______ _____ _____    ______ ____
ROOT
ATOM      1  N   UNL     1      -4.731  11.756  18.513  0.00  0.00    +0.000 N 
ATOM      2  C   UNL     1      -3.656  12.052  19.391  0.00  0.00    +0.000 A 
ATOM      3  N   UNL     1      -2.373  11.781  18.953  0.00  0.00    +0.000 N 
ATOM      4  N   UNL     1      -3.840  12.541  20.602  0.00  0.00    +0.000 NA
ATOM      5  C   UNL     1      -5.129  12.588  21.019  0.00  0.00    +0.000 A 
ATOM      6  C   UNL     1      -6.210  12.124  20.318  0.00  0.00    +0.000 A 
ATOM      7  C   UNL     1      -7.301  12.184  21.191  0.00  0.00    +0.000 A 
ATOM      8  N   UNL     1      -6.964  12.738  22.354  0.00  0.00    +0.000 NA
ATOM      9  N   UNL     1      -5.642  13.044  22.215  0.00  0.00    +0.000 N 
ATOM     10  C   UNL     1      -6.056  11.714  18.962  0.00  0.00    +0.000 A 
ATOM     11  O   UNL     1      -7.027  11.415  18.265  0.00  0.00    +0.000 OA
ATOM     12  H   UNL     1      -2.250  10.960  18.375  0.00  0.00    +0.000 HD
ENDROOT
BRANCH   9  13
ATOM     13  C   UNL     1      -5.037  13.810  23.284  0.00  0.00    +0.000 C 
ATOM     14  C   UNL     1      -3.913  13.131  24.054  0.00  0.00    +0.000 C 
ATOM     15  C   UNL     1      -3.293  14.271  24.855  0.00  0.00    +0.000 C 
ATOM     16  C   UNL     1      -3.509  15.539  24.026  0.00  0.00    +0.000 C 
ATOM     17  C   UNL     1      -4.443  15.159  22.877  0.00  0.00    +0.000 C 
ENDBRANCH   9  13
BRANCH   3  18
ATOM     18  C   UNL     1      -1.183  12.263  19.647  0.00  0.00    +0.000 C 
ATOM     19  C   UNL     1      -0.614  13.405  18.791  0.00  0.00    +0.000 C 
BRANCH  18  20
ATOM     20  C   UNL     1      -0.235  11.131  20.084  0.00  0.00    +0.000 A 
ATOM     21  C   UNL     1      -0.270  10.528  21.356  0.00  0.00    +0.000 A 
ATOM     22  C   UNL     1       0.392   9.311  21.606  0.00  0.00    +0.000 A 
ATOM     23  C   UNL     1       1.116   8.688  20.595  0.00  0.00    +0.000 A 
ATOM     24 CL   UNL     1       1.806   7.133  20.861  0.00  0.00    +0.000 Cl
ATOM     25  C   UNL     1       1.245   9.302  19.355  0.00  0.00    +0.000 A 
ATOM     26  C   UNL     1       0.580  10.516  19.109  0.00  0.00    +0.000 A 
ENDBRANCH  18  20
ENDBRANCH   3  18
BRANCH   1  27
ATOM     27  C   UNL     1      -4.581  11.881  17.052  0.00  0.00    +0.000 C 
BRANCH  27  29
ATOM     28  C   UNL     1      -3.055  10.844  15.235  0.00  0.00    +0.000 C 
ATOM     29  C   UNL     1      -4.155  10.618  16.274  0.00  0.00    +0.000 C 
ATOM     30  C   UNL     1      -3.673   9.545  17.265  0.00  0.00    +0.000 C 
ENDBRANCH  27  29
ENDBRANCH   1  27
TORSDOF 5
ENDMDL
MODEL 8
REMARK VINA RESULT:      -6.8      2.383      5.959
REMARK  Name = 
REMARK  8 active torsions:
REMARK  status: ('A' for Active; 'I' for Inactive)
REMARK    1  A    between atoms: C_1  and  C_2
REMARK    2  A    between atoms: C_2  and  C_3
REMARK    3  A    between atoms: C_2  and  C_4
REMARK    4  A    between atoms: C_4  and  N_5
REMARK    5  A    between atoms: N_7  and  C_8
REMARK    6  A    between atoms: C_8  and  C_9
REMARK    7  A    between atoms: C_8  and  C_10
REMARK    8  A    between atoms: N_22  and  C_23
REMARK                            x       y       z     vdW  Elec       q    Type
REMARK                         _______ _______ _______ _____ _____    ______ ____
ROOT
ATOM      1  N   UNL     1      -3.281  11.547  17.497  0.00  0.00    +0.000 N 
ATOM      2  C   UNL     1      -2.261  11.648  18.480  0.00  0.00    +0.000 A 
ATOM      3  N   UNL     1      -1.022  11.115  18.179  0.00  0.00    +0.000 N 
ATOM      4  N   UNL     1      -2.462  12.200  19.661  0.00  0.00    +0.000 NA
ATOM      5  C   UNL     1      -3.751  12.514  19.941  0.00  0.00    +0.000 A 
ATOM      6  C   UNL     1      -4.827  12.255  19.136  0.00  0.00    +0.000 A 
ATOM      7  C   UNL     1      -5.966  12.556  19.890  0.00  0.00    +0.000 A 
ATOM      8  N   UNL     1      -5.642  13.066  21.078  0.00  0.00    +0.000 NA
ATOM      9  N   UNL     1      -4.279  13.099  21.074  0.00  0.00    +0.000 N 
ATOM     10  C   UNL     1      -4.625  11.782  17.807  0.00  0.00    +0.000 A 
ATOM     11  O   UNL     1      -5.562  11.663  17.015  0.00  0.00    +0.000 OA
ATOM     12  H   UNL     1      -1.009  10.270  17.624  0.00  0.00    +0.000 HD
ENDROOT
BRANCH   9  13
ATOM     13  C   UNL     1      -3.642  13.760  22.193  0.00  0.00    +0.000 C 
ATOM     14  C   UNL     1      -4.317  13.603  23.548  0.00  0.00    +0.000 C 
ATOM     15  C   UNL     1      -3.267  14.115  24.528  0.00  0.00    +0.000 C 
ATOM     16  C   UNL     1      -1.909  13.825  23.886  0.00  0.00    +0.000 C 
ATOM     17  C   UNL     1      -2.189  13.363  22.456  0.00  0.00    +0.000 C 
ENDBRANCH   9  13
BRANCH   3  18
ATOM     18  C   UNL     1       0.166  11.371  18.989  0.00  0.00    +0.000 C 
ATOM     19  C   UNL     1       0.794  12.663  18.443  0.00  0.00    +0.000 C 
BRANCH  18  20
ATOM     20  C   UNL     1       1.065  10.132  19.155  0.00  0.00    +0.000 A 
ATOM     21  C   UNL     1       1.075   9.321  20.306  0.00  0.00    +0.000 A 
ATOM     22  C   UNL     1       1.672   8.046  20.297  0.00  0.00    +0.000 A 
ATOM     23  C   UNL     1       2.285   7.570  19.143  0.00  0.00    +0.000 A 
ATOM     24 CL   UNL     1       2.889   5.957  19.090  0.00  0.00    +0.000 Cl
ATOM     25  C   UNL     1       2.371   8.381  18.019  0.00  0.00    +0.000 A 
ATOM     26  C   UNL     1       1.772   9.652  18.032  0.00  0.00    +0.000 A 
ENDBRANCH  18  20
ENDBRANCH   3  18
BRANCH   1  27
ATOM     27  C   UNL     1      -2.963  11.597  16.058  0.00  0.00    +0.000 C 
BRANCH  27  29
ATOM     28  C   UNL     1      -2.936   9.012  16.210  0.00  0.00    +0.000 C 
ATOM     29  C   UNL     1      -2.716  10.252  15.342  0.00  0.00    +0.000 C 
ATOM     30  C   UNL     1      -3.634  10.153  14.112  0.00  0.00    +0.000 C 
ENDBRANCH  27  29
ENDBRANCH   1  27
TORSDOF 5
ENDMDL
MODEL 9
REMARK VINA RESULT:      -6.8      2.472      6.065
REMARK  Name = 
REMARK  8 active torsions:
REMARK  status: ('A' for Active; 'I' for Inactive)
REMARK    1  A    between atoms: C_1  and  C_2
REMARK    2  A    between atoms: C_2  and  C_3
REMARK    3  A    between atoms: C_2  and  C_4
REMARK    4  A    between atoms: C_4  and  N_5
REMARK    5  A    between atoms: N_7  and  C_8
REMARK    6  A    between atoms: C_8  and  C_9
REMARK    7  A    between atoms: C_8  and  C_10
REMARK    8  A    between atoms: N_22  and  C_23
REMARK                            x       y       z     vdW  Elec       q    Type
REMARK                         _______ _______ _______ _____ _____    ______ ____
ROOT
ATOM      1  N   UNL     1      -3.335  11.804  18.881  0.00  0.00    +0.000 N 
ATOM      2  C   UNL     1      -2.124  11.792  19.622  0.00  0.00    +0.000 A 
ATOM      3  N   UNL     1      -1.031  11.158  19.059  0.00  0.00    +0.000 N 
ATOM      4  N   UNL     1      -2.016  12.332  20.820  0.00  0.00    +0.000 NA
ATOM      5  C   UNL     1      -3.181  12.753  21.372  0.00  0.00    +0.000 A 
ATOM      6  C   UNL     1      -4.424  12.609  20.816  0.00  0.00    +0.000 A 
ATOM      7  C   UNL     1      -5.343  12.993  21.799  0.00  0.00    +0.000 A 
ATOM      8  N   UNL     1      -4.727  13.445  22.891  0.00  0.00    +0.000 NA
ATOM      9  N   UNL     1      -3.398  13.357  22.594  0.00  0.00    +0.000 N 
ATOM     10  C   UNL     1      -4.554  12.150  19.474  0.00  0.00    +0.000 A 
ATOM     11  O   UNL     1      -5.646  12.133  18.902  0.00  0.00    +0.000 OA
ATOM     12  H   UNL     1      -1.215  10.328  18.513  0.00  0.00    +0.000 HD
ENDROOT
BRANCH   9  13
ATOM     13  C   UNL     1      -2.479  13.933  23.552  0.00  0.00    +0.000 C 
ATOM     14  C   UNL     1      -1.659  15.123  23.075  0.00  0.00    +0.000 C 
ATOM     15  C   UNL     1      -1.060  15.680  24.362  0.00  0.00    +0.000 C 
ATOM     16  C   UNL     1      -2.060  15.350  25.472  0.00  0.00    +0.000 C 
ATOM     17  C   UNL     1      -3.104  14.415  24.861  0.00  0.00    +0.000 C 
ENDBRANCH   9  13
BRANCH   3  18
ATOM     18  C   UNL     1       0.320  11.289  19.596  0.00  0.00    +0.000 C 
ATOM     19  C   UNL     1       0.872  12.620  19.062  0.00  0.00    +0.000 C 
BRANCH  18  20
ATOM     20  C   UNL     1       1.170  10.018  19.416  0.00  0.00    +0.000 A 
ATOM     21  C   UNL     1       1.276   9.004  20.387  0.00  0.00    +0.000 A 
ATOM     22  C   UNL     1       1.804   7.738  20.067  0.00  0.00    +0.000 A 
ATOM     23  C   UNL     1       2.251   7.473  18.777  0.00  0.00    +0.000 A 
ATOM     24 CL   UNL     1       2.764   5.884  18.352  0.00  0.00    +0.000 Cl
ATOM     25  C   UNL     1       2.244   8.480  17.820  0.00  0.00    +0.000 A 
ATOM     26  C   UNL     1       1.714   9.741  18.143  0.00  0.00    +0.000 A 
ENDBRANCH  18  20
ENDBRANCH   3  18
BRANCH   1  27
ATOM     27  C   UNL     1      -3.329  11.858  17.408  0.00  0.00    +0.000 C 
BRANCH  27  29
ATOM     28  C   UNL     1      -3.015  10.376  15.308  0.00  0.00    +0.000 C 
ATOM     29  C   UNL     1      -3.720  10.571  16.652  0.00  0.00    +0.000 C 
ATOM     30  C   UNL     1      -3.425   9.348  17.536  0.00  0.00    +0.000 C 
ENDBRANCH  27  29
ENDBRANCH   1  27
TORSDOF 5
ENDMDL
