MODEL 1
REMARK VINA RESULT:      -7.7      0.000      0.000
REMARK  Name = 
REMARK  3 active torsions:
REMARK  status: ('A' for Active; 'I' for Inactive)
REMARK    1  A    between atoms: C_5  and  N_6
REMARK    2  A    between atoms: N_7  and  C_8
REMARK    3  A    between atoms: C_15  and  N_16
REMARK                            x       y       z     vdW  Elec       q    Type
REMARK                         _______ _______ _______ _____ _____    ______ ____
ROOT
ATOM      1  N   UNL     1       8.065   5.414  13.620  0.00  0.00    +0.000 N 
ATOM      2  C   UNL     1       7.170   4.991  14.599  0.00  0.00    +0.000 A 
ATOM      3  C   UNL     1       5.845   4.741  14.274  0.00  0.00    +0.000 A 
ATOM      4  C   UNL     1       4.965   4.359  15.284  0.00  0.00    +0.000 A 
ATOM      5  C   UNL     1       5.419   4.252  16.600  0.00  0.00    +0.000 A 
ATOM      6  C   UNL     1       6.781   4.527  16.825  0.00  0.00    +0.000 A 
ATOM      7  N   UNL     1       7.645   4.890  15.851  0.00  0.00    +0.000 NA
ATOM      8  H   UNL     1       8.067   4.800  12.815  0.00  0.00    +0.000 HD
ATOM      9  H   UNL     1       8.981   5.474  14.057  0.00  0.00    +0.000 HD
ENDROOT
BRANCH   6  10
ATOM     10  N   UNL     1       7.345   4.377  18.101  0.00  0.00    +0.000 N 
ATOM     11  H   UNL     1       6.666   4.585  18.824  0.00  0.00    +0.000 HD
ATOM     12  H   UNL     1       8.174   4.961  18.142  0.00  0.00    +0.000 HD
ENDBRANCH   6  10
BRANCH   5  13
ATOM     13  N   UNL     1       4.609   3.854  17.685  0.00  0.00    +0.000 NA
ATOM     14  N   UNL     1       3.417   4.207  17.572  0.00  0.00    +0.000 NA
BRANCH  14  15
ATOM     15  C   UNL     1       2.636   3.817  18.690  0.00  0.00    +0.000 A 
ATOM     16  C   UNL     1       2.144   2.508  18.851  0.00  0.00    +0.000 A 
ATOM     17  C   UNL     1       1.371   2.149  19.958  0.00  0.00    +0.000 A 
ATOM     18  C   UNL     1       1.063   3.098  20.927  0.00  0.00    +0.000 A 
ATOM     19  C   UNL     1       1.524   4.406  20.785  0.00  0.00    +0.000 A 
ATOM     20  C   UNL     1       2.302   4.763  19.675  0.00  0.00    +0.000 A 
ATOM     21 CL   UNL     1       2.835   6.406  19.563  0.00  0.00    +0.000 Cl
ENDBRANCH  14  15
ENDBRANCH   5  13
TORSDOF 3
ENDMDL
MODEL 2
REMARK VINA RESULT:      -7.6      1.310      1.352
REMARK  Name = 
REMARK  3 active torsions:
REMARK  status: ('A' for Active; 'I' for Inactive)
REMARK    1  A    between atoms: C_5  and  N_6
REMARK    2  A    between atoms: N_7  and  C_8
REMARK    3  A    between atoms: C_15  and  N_16
REMARK                            x       y       z     vdW  Elec       q    Type
REMARK                         _______ _______ _______ _____ _____    ______ ____
ROOT
ATOM      1  N   UNL     1       8.083   5.462  13.593  0.00  0.00    +0.000 N 
ATOM      2  C   UNL     1       7.265   5.140  14.673  0.00  0.00    +0.000 A 
ATOM      3  C   UNL     1       6.312   4.139  14.554  0.00  0.00    +0.000 A 
ATOM      4  C   UNL     1       5.481   3.868  15.638  0.00  0.00    +0.000 A 
ATOM      5  C   UNL     1       5.606   4.613  16.814  0.00  0.00    +0.000 A 
ATOM      6  C   UNL     1       6.605   5.605  16.833  0.00  0.00    +0.000 A 
ATOM      7  N   UNL     1       7.421   5.870  15.789  0.00  0.00    +0.000 NA
ATOM      8  H   UNL     1       8.551   4.648  13.212  0.00  0.00    +0.000 HD
ATOM      9  H   UNL     1       8.741   6.167  13.915  0.00  0.00    +0.000 HD
ENDROOT
BRANCH   6  10
ATOM     10  N   UNL     1       6.853   6.354  17.993  0.00  0.00    +0.000 N 
ATOM     11  H   UNL     1       6.372   5.956  18.792  0.00  0.00    +0.000 HD
ATOM     12  H   UNL     1       6.593   7.316  17.800  0.00  0.00    +0.000 HD
ENDBRANCH   6  10
BRANCH   5  13
ATOM     13  N   UNL     1       4.825   4.399  17.970  0.00  0.00    +0.000 NA
ATOM     14  N   UNL     1       3.944   3.529  17.822  0.00  0.00    +0.000 NA
BRANCH  14  15
ATOM     15  C   UNL     1       3.159   3.358  18.990  0.00  0.00    +0.000 A 
ATOM     16  C   UNL     1       3.650   2.723  20.147  0.00  0.00    +0.000 A 
ATOM     17  C   UNL     1       2.856   2.561  21.285  0.00  0.00    +0.000 A 
ATOM     18  C   UNL     1       1.544   3.022  21.287  0.00  0.00    +0.000 A 
ATOM     19  C   UNL     1       1.026   3.639  20.149  0.00  0.00    +0.000 A 
ATOM     20  C   UNL     1       1.826   3.804  19.011  0.00  0.00    +0.000 A 
ATOM     21 CL   UNL     1       1.114   4.575  17.634  0.00  0.00    +0.000 Cl
ENDBRANCH  14  15
ENDBRANCH   5  13
TORSDOF 3
ENDMDL
MODEL 3
REMARK VINA RESULT:      -7.5      1.470      1.843
REMARK  Name = 
REMARK  3 active torsions:
REMARK  status: ('A' for Active; 'I' for Inactive)
REMARK    1  A    between atoms: C_5  and  N_6
REMARK    2  A    between atoms: N_7  and  C_8
REMARK    3  A    between atoms: C_15  and  N_16
REMARK                            x       y       z     vdW  Elec       q    Type
REMARK                         _______ _______ _______ _____ _____    ______ ____
ROOT
ATOM      1  N   UNL     1       8.122   5.505  13.413  0.00  0.00    +0.000 N 
ATOM      2  C   UNL     1       7.265   5.206  14.469  0.00  0.00    +0.000 A 
ATOM      3  C   UNL     1       6.176   4.371  14.272  0.00  0.00    +0.000 A 
ATOM      4  C   UNL     1       5.314   4.125  15.338  0.00  0.00    +0.000 A 
ATOM      5  C   UNL     1       5.546   4.732  16.575  0.00  0.00    +0.000 A 
ATOM      6  C   UNL     1       6.678   5.562  16.671  0.00  0.00    +0.000 A 
ATOM      7  N   UNL     1       7.525   5.800  15.646  0.00  0.00    +0.000 NA
ATOM      8  H   UNL     1       8.466   4.670  12.954  0.00  0.00    +0.000 HD
ATOM      9  H   UNL     1       8.877   6.073  13.790  0.00  0.00    +0.000 HD
ENDROOT
BRANCH   6  10
ATOM     10  N   UNL     1       7.033   6.157  17.892  0.00  0.00    +0.000 N 
ATOM     11  H   UNL     1       6.467   5.793  18.651  0.00  0.00    +0.000 HD
ATOM     12  H   UNL     1       6.960   7.162  17.777  0.00  0.00    +0.000 HD
ENDBRANCH   6  10
BRANCH   5  13
ATOM     13  N   UNL     1       4.741   4.528  17.717  0.00  0.00    +0.000 NA
ATOM     14  N   UNL     1       3.618   4.051  17.456  0.00  0.00    +0.000 NA
BRANCH  14  15
ATOM     15  C   UNL     1       2.824   3.886  18.619  0.00  0.00    +0.000 A 
ATOM     16  C   UNL     1       2.168   4.962  19.248  0.00  0.00    +0.000 A 
ATOM     17  C   UNL     1       1.396   4.777  20.397  0.00  0.00    +0.000 A 
ATOM     18  C   UNL     1       1.271   3.507  20.951  0.00  0.00    +0.000 A 
ATOM     19  C   UNL     1       1.924   2.427  20.360  0.00  0.00    +0.000 A 
ATOM     20  C   UNL     1       2.694   2.615  19.204  0.00  0.00    +0.000 A 
ATOM     21 CL   UNL     1       3.479   1.228  18.528  0.00  0.00    +0.000 Cl
ENDBRANCH  14  15
ENDBRANCH   5  13
TORSDOF 3
ENDMDL
MODEL 4
REMARK VINA RESULT:      -7.4      1.383      1.614
REMARK  Name = 
REMARK  3 active torsions:
REMARK  status: ('A' for Active; 'I' for Inactive)
REMARK    1  A    between atoms: C_5  and  N_6
REMARK    2  A    between atoms: N_7  and  C_8
REMARK    3  A    between atoms: C_15  and  N_16
REMARK                            x       y       z     vdW  Elec       q    Type
REMARK                         _______ _______ _______ _____ _____    ______ ____
ROOT
ATOM      1  N   UNL     1       8.134   5.400  13.995  0.00  0.00    +0.000 N 
ATOM      2  C   UNL     1       7.124   4.933  14.832  0.00  0.00    +0.000 A 
ATOM      3  C   UNL     1       5.867   4.648  14.321  0.00  0.00    +0.000 A 
ATOM      4  C   UNL     1       4.867   4.222  15.191  0.00  0.00    +0.000 A 
ATOM      5  C   UNL     1       5.135   4.105  16.557  0.00  0.00    +0.000 A 
ATOM      6  C   UNL     1       6.443   4.417  16.974  0.00  0.00    +0.000 A 
ATOM      7  N   UNL     1       7.423   4.824  16.137  0.00  0.00    +0.000 NA
ATOM      8  H   UNL     1       8.268   4.801  13.189  0.00  0.00    +0.000 HD
ATOM      9  H   UNL     1       8.977   5.480  14.557  0.00  0.00    +0.000 HD
ENDROOT
BRANCH   6  10
ATOM     10  N   UNL     1       6.827   4.261  18.315  0.00  0.00    +0.000 N 
ATOM     11  H   UNL     1       7.813   4.038  18.386  0.00  0.00    +0.000 HD
ATOM     12  H   UNL     1       6.221   3.561  18.730  0.00  0.00    +0.000 HD
ENDBRANCH   6  10
BRANCH   5  13
ATOM     13  N   UNL     1       4.194   3.663  17.511  0.00  0.00    +0.000 NA
ATOM     14  N   UNL     1       3.953   4.505  18.401  0.00  0.00    +0.000 NA
BRANCH  14  15
ATOM     15  C   UNL     1       3.027   4.020  19.359  0.00  0.00    +0.000 A 
ATOM     16  C   UNL     1       1.748   4.584  19.529  0.00  0.00    +0.000 A 
ATOM     17  C   UNL     1       0.854   4.094  20.484  0.00  0.00    +0.000 A 
ATOM     18  C   UNL     1       1.225   3.031  21.300  0.00  0.00    +0.000 A 
ATOM     19  C   UNL     1       2.492   2.464  21.165  0.00  0.00    +0.000 A 
ATOM     20  C   UNL     1       3.385   2.955  20.203  0.00  0.00    +0.000 A 
ATOM     21 CL   UNL     1       4.941   2.205  20.096  0.00  0.00    +0.000 Cl
ENDBRANCH  14  15
ENDBRANCH   5  13
TORSDOF 3
ENDMDL
MODEL 5
REMARK VINA RESULT:      -7.4      2.264      6.404
REMARK  Name = 
REMARK  3 active torsions:
REMARK  status: ('A' for Active; 'I' for Inactive)
REMARK    1  A    between atoms: C_5  and  N_6
REMARK    2  A    between atoms: N_7  and  C_8
REMARK    3  A    between atoms: C_15  and  N_16
REMARK                            x       y       z     vdW  Elec       q    Type
REMARK                         _______ _______ _______ _____ _____    ______ ____
ROOT
ATOM      1  N   UNL     1       1.029   2.622  22.328  0.00  0.00    +0.000 N 
ATOM      2  C   UNL     1       1.685   2.891  21.130  0.00  0.00    +0.000 A 
ATOM      3  C   UNL     1       1.025   3.551  20.103  0.00  0.00    +0.000 A 
ATOM      4  C   UNL     1       1.696   3.768  18.902  0.00  0.00    +0.000 A 
ATOM      5  C   UNL     1       3.005   3.308  18.742  0.00  0.00    +0.000 A 
ATOM      6  C   UNL     1       3.585   2.651  19.844  0.00  0.00    +0.000 A 
ATOM      7  N   UNL     1       2.946   2.443  21.016  0.00  0.00    +0.000 NA
ATOM      8  H   UNL     1       0.611   3.454  22.728  0.00  0.00    +0.000 HD
ATOM      9  H   UNL     1       1.709   2.197  22.953  0.00  0.00    +0.000 HD
ENDROOT
BRANCH   6  10
ATOM     10  N   UNL     1       4.918   2.217  19.803  0.00  0.00    +0.000 N 
ATOM     11  H   UNL     1       5.557   2.996  19.921  0.00  0.00    +0.000 HD
ATOM     12  H   UNL     1       5.051   1.711  18.934  0.00  0.00    +0.000 HD
ENDBRANCH   6  10
BRANCH   5  13
ATOM     13  N   UNL     1       3.771   3.498  17.571  0.00  0.00    +0.000 NA
ATOM     14  N   UNL     1       4.792   4.191  17.751  0.00  0.00    +0.000 NA
BRANCH  14  15
ATOM     15  C   UNL     1       5.523   4.387  16.552  0.00  0.00    +0.000 A 
ATOM     16  C   UNL     1       5.009   4.044  15.287  0.00  0.00    +0.000 A 
ATOM     17  C   UNL     1       5.749   4.240  14.119  0.00  0.00    +0.000 A 
ATOM     18  C   UNL     1       7.030   4.777  14.192  0.00  0.00    +0.000 A 
ATOM     19  C   UNL     1       7.571   5.111  15.433  0.00  0.00    +0.000 A 
ATOM     20  C   UNL     1       6.824   4.916  16.602  0.00  0.00    +0.000 A 
ATOM     21 CL   UNL     1       7.562   5.349  18.107  0.00  0.00    +0.000 Cl
ENDBRANCH  14  15
ENDBRANCH   5  13
TORSDOF 3
ENDMDL
MODEL 6
REMARK VINA RESULT:      -6.8      1.262      1.367
REMARK  Name = 
REMARK  3 active torsions:
REMARK  status: ('A' for Active; 'I' for Inactive)
REMARK    1  A    between atoms: C_5  and  N_6
REMARK    2  A    between atoms: N_7  and  C_8
REMARK    3  A    between atoms: C_15  and  N_16
REMARK                            x       y       z     vdW  Elec       q    Type
REMARK                         _______ _______ _______ _____ _____    ______ ____
ROOT
ATOM      1  N   UNL     1       7.815   5.446  13.500  0.00  0.00    +0.000 N 
ATOM      2  C   UNL     1       6.882   5.060  14.459  0.00  0.00    +0.000 A 
ATOM      3  C   UNL     1       6.430   3.750  14.508  0.00  0.00    +0.000 A 
ATOM      4  C   UNL     1       5.466   3.405  15.452  0.00  0.00    +0.000 A 
ATOM      5  C   UNL     1       4.959   4.378  16.317  0.00  0.00    +0.000 A 
ATOM      6  C   UNL     1       5.483   5.677  16.185  0.00  0.00    +0.000 A 
ATOM      7  N   UNL     1       6.425   6.020  15.279  0.00  0.00    +0.000 NA
ATOM      8  H   UNL     1       8.633   4.848  13.503  0.00  0.00    +0.000 HD
ATOM      9  H   UNL     1       8.051   6.417  13.684  0.00  0.00    +0.000 HD
ENDROOT
BRANCH   6  10
ATOM     10  N   UNL     1       5.088   6.704  17.056  0.00  0.00    +0.000 N 
ATOM     11  H   UNL     1       4.192   6.494  17.482  0.00  0.00    +0.000 HD
ATOM     12  H   UNL     1       5.094   7.572  16.531  0.00  0.00    +0.000 HD
ENDBRANCH   6  10
BRANCH   5  13
ATOM     13  N   UNL     1       3.996   4.120  17.317  0.00  0.00    +0.000 NA
ATOM     14  N   UNL     1       4.432   4.265  18.477  0.00  0.00    +0.000 NA
BRANCH  14  15
ATOM     15  C   UNL     1       3.451   3.971  19.457  0.00  0.00    +0.000 A 
ATOM     16  C   UNL     1       3.400   2.735  20.131  0.00  0.00    +0.000 A 
ATOM     17  C   UNL     1       2.420   2.466  21.089  0.00  0.00    +0.000 A 
ATOM     18  C   UNL     1       1.458   3.426  21.387  0.00  0.00    +0.000 A 
ATOM     19  C   UNL     1       1.475   4.651  20.723  0.00  0.00    +0.000 A 
ATOM     20  C   UNL     1       2.462   4.921  19.766  0.00  0.00    +0.000 A 
ATOM     21 CL   UNL     1       2.417   6.462  18.979  0.00  0.00    +0.000 Cl
ENDBRANCH  14  15
ENDBRANCH   5  13
TORSDOF 3
ENDMDL
MODEL 7
REMARK VINA RESULT:      -6.7      2.234      6.345
REMARK  Name = 
REMARK  3 active torsions:
REMARK  status: ('A' for Active; 'I' for Inactive)
REMARK    1  A    between atoms: C_5  and  N_6
REMARK    2  A    between atoms: N_7  and  C_8
REMARK    3  A    between atoms: C_15  and  N_16
REMARK                            x       y       z     vdW  Elec       q    Type
REMARK                         _______ _______ _______ _____ _____    ______ ____
ROOT
ATOM      1  N   UNL     1       1.125   2.888  21.203  0.00  0.00    +0.000 N 
ATOM      2  C   UNL     1       1.904   2.989  20.054  0.00  0.00    +0.000 A 
ATOM      3  C   UNL     1       1.326   2.847  18.801  0.00  0.00    +0.000 A 
ATOM      4  C   UNL     1       2.140   2.912  17.673  0.00  0.00    +0.000 A 
ATOM      5  C   UNL     1       3.517   3.099  17.817  0.00  0.00    +0.000 A 
ATOM      6  C   UNL     1       4.004   3.233  19.130  0.00  0.00    +0.000 A 
ATOM      7  N   UNL     1       3.222   3.180  20.231  0.00  0.00    +0.000 NA
ATOM      8  H   UNL     1       0.322   3.505  21.174  0.00  0.00    +0.000 HD
ATOM      9  H   UNL     1       1.731   3.086  21.995  0.00  0.00    +0.000 HD
ENDROOT
BRANCH   6  10
ATOM     10  N   UNL     1       5.361   3.495  19.372  0.00  0.00    +0.000 N 
ATOM     11  H   UNL     1       5.780   3.986  18.589  0.00  0.00    +0.000 HD
ATOM     12  H   UNL     1       5.812   2.612  19.586  0.00  0.00    +0.000 HD
ENDBRANCH   6  10
BRANCH   5  13
ATOM     13  N   UNL     1       4.417   3.198  16.734  0.00  0.00    +0.000 NA
ATOM     14  N   UNL     1       4.608   4.369  16.349  0.00  0.00    +0.000 NA
BRANCH  14  15
ATOM     15  C   UNL     1       5.493   4.431  15.243  0.00  0.00    +0.000 A 
ATOM     16  C   UNL     1       5.207   3.816  14.009  0.00  0.00    +0.000 A 
ATOM     17  C   UNL     1       6.098   3.886  12.935  0.00  0.00    +0.000 A 
ATOM     18  C   UNL     1       7.303   4.564  13.076  0.00  0.00    +0.000 A 
ATOM     19  C   UNL     1       7.620   5.168  14.292  0.00  0.00    +0.000 A 
ATOM     20  C   UNL     1       6.723   5.101  15.367  0.00  0.00    +0.000 A 
ATOM     21 CL   UNL     1       7.185   5.869  16.847  0.00  0.00    +0.000 Cl
ENDBRANCH  14  15
ENDBRANCH   5  13
TORSDOF 3
ENDMDL
MODEL 8
REMARK VINA RESULT:      -6.6      2.141      6.479
REMARK  Name = 
REMARK  3 active torsions:
REMARK  status: ('A' for Active; 'I' for Inactive)
REMARK    1  A    between atoms: C_5  and  N_6
REMARK    2  A    between atoms: N_7  and  C_8
REMARK    3  A    between atoms: C_15  and  N_16
REMARK                            x       y       z     vdW  Elec       q    Type
REMARK                         _______ _______ _______ _____ _____    ______ ____
ROOT
ATOM      1  N   UNL     1       1.196   2.746  22.192  0.00  0.00    +0.000 N 
ATOM      2  C   UNL     1       1.892   3.154  21.057  0.00  0.00    +0.000 A 
ATOM      3  C   UNL     1       2.190   4.495  20.863  0.00  0.00    +0.000 A 
ATOM      4  C   UNL     1       2.850   4.877  19.698  0.00  0.00    +0.000 A 
ATOM      5  C   UNL     1       3.184   3.916  18.740  0.00  0.00    +0.000 A 
ATOM      6  C   UNL     1       2.838   2.584  19.032  0.00  0.00    +0.000 A 
ATOM      7  N   UNL     1       2.205   2.202  20.163  0.00  0.00    +0.000 NA
ATOM      8  H   UNL     1       1.628   3.081  23.044  0.00  0.00    +0.000 HD
ATOM      9  H   UNL     1       1.144   1.731  22.162  0.00  0.00    +0.000 HD
ENDROOT
BRANCH   6  10
ATOM     10  N   UNL     1       3.196   1.541  18.164  0.00  0.00    +0.000 N 
ATOM     11  H   UNL     1       4.190   1.351  18.216  0.00  0.00    +0.000 HD
ATOM     12  H   UNL     1       2.878   1.791  17.234  0.00  0.00    +0.000 HD
ENDBRANCH   6  10
BRANCH   5  13
ATOM     13  N   UNL     1       3.869   4.204  17.540  0.00  0.00    +0.000 NA
ATOM     14  N   UNL     1       5.068   3.859  17.556  0.00  0.00    +0.000 NA
BRANCH  14  15
ATOM     15  C   UNL     1       5.735   4.188  16.349  0.00  0.00    +0.000 A 
ATOM     16  C   UNL     1       5.374   3.630  15.107  0.00  0.00    +0.000 A 
ATOM     17  C   UNL     1       6.049   3.964  13.932  0.00  0.00    +0.000 A 
ATOM     18  C   UNL     1       7.113   4.859  13.973  0.00  0.00    +0.000 A 
ATOM     19  C   UNL     1       7.503   5.414  15.190  0.00  0.00    +0.000 A 
ATOM     20  C   UNL     1       6.821   5.080  16.368  0.00  0.00    +0.000 A 
ATOM     21 CL   UNL     1       7.364   5.805  17.843  0.00  0.00    +0.000 Cl
ENDBRANCH  14  15
ENDBRANCH   5  13
TORSDOF 3
ENDMDL
MODEL 9
REMARK VINA RESULT:      -6.6      3.763      5.693
REMARK  Name = 
REMARK  3 active torsions:
REMARK  status: ('A' for Active; 'I' for Inactive)
REMARK    1  A    between atoms: C_5  and  N_6
REMARK    2  A    between atoms: N_7  and  C_8
REMARK    3  A    between atoms: C_15  and  N_16
REMARK                            x       y       z     vdW  Elec       q    Type
REMARK                         _______ _______ _______ _____ _____    ______ ____
ROOT
ATOM      1  N   UNL     1       4.117   0.936  18.473  0.00  0.00    +0.000 N 
ATOM      2  C   UNL     1       3.630   2.169  18.897  0.00  0.00    +0.000 A 
ATOM      3  C   UNL     1       4.437   3.296  18.843  0.00  0.00    +0.000 A 
ATOM      4  C   UNL     1       3.936   4.507  19.314  0.00  0.00    +0.000 A 
ATOM      5  C   UNL     1       2.645   4.566  19.845  0.00  0.00    +0.000 A 
ATOM      6  C   UNL     1       1.908   3.367  19.854  0.00  0.00    +0.000 A 
ATOM      7  N   UNL     1       2.382   2.189  19.392  0.00  0.00    +0.000 NA
ATOM      8  H   UNL     1       4.505   0.980  17.538  0.00  0.00    +0.000 HD
ATOM      9  H   UNL     1       3.350   0.272  18.537  0.00  0.00    +0.000 HD
ENDROOT
BRANCH   6  10
ATOM     10  N   UNL     1       0.578   3.343  20.301  0.00  0.00    +0.000 N 
ATOM     11  H   UNL     1       0.028   4.064  19.845  0.00  0.00    +0.000 HD
ATOM     12  H   UNL     1       0.592   3.422  21.312  0.00  0.00    +0.000 HD
ENDBRANCH   6  10
BRANCH   5  13
ATOM     13  N   UNL     1       2.043   5.749  20.327  0.00  0.00    +0.000 NA
ATOM     14  N   UNL     1       2.259   6.746  19.608  0.00  0.00    +0.000 NA
BRANCH  14  15
ATOM     15  C   UNL     1       1.667   7.922  20.134  0.00  0.00    +0.000 A 
ATOM     16  C   UNL     1       1.237   8.021  21.472  0.00  0.00    +0.000 A 
ATOM     17  C   UNL     1       0.651   9.188  21.966  0.00  0.00    +0.000 A 
ATOM     18  C   UNL     1       0.470  10.283  21.128  0.00  0.00    +0.000 A 
ATOM     19  C   UNL     1       0.871  10.207  19.795  0.00  0.00    +0.000 A 
ATOM     20  C   UNL     1       1.463   9.036  19.302  0.00  0.00    +0.000 A 
ATOM     21 CL   UNL     1       1.931   9.013  17.636  0.00  0.00    +0.000 Cl
ENDBRANCH  14  15
ENDBRANCH   5  13
TORSDOF 3
ENDMDL
