MODEL 1
REMARK VINA RESULT:      -6.5      0.000      0.000
REMARK  Name = 
REMARK  8 active torsions:
REMARK  status: ('A' for Active; 'I' for Inactive)
REMARK    1  A    between atoms: C_1  and  N_2
REMARK    2  A    between atoms: N_2  and  C_3
REMARK    3  A    between atoms: C_3  and  C_4
REMARK    4  A    between atoms: N_6  and  C_7
REMARK    5  A    between atoms: C_14  and  C_16
REMARK    6  A    between atoms: C_16  and  N_17
REMARK    7  A    between atoms: N_20  and  C_21
REMARK    8  A    between atoms: C_21  and  C_22
REMARK                            x       y       z     vdW  Elec       q    Type
REMARK                         _______ _______ _______ _____ _____    ______ ____
ROOT
ATOM      1  C   UNL     1       2.094   2.573  20.658  0.00  0.00    +0.000 C 
ATOM      2  N   UNL     1       1.823   3.611  19.674  0.00  0.00    +0.000 N 
ATOM      3  C   UNL     1       1.788   4.934  20.104  0.00  0.00    +0.000 C 
ATOM      4  O   UNL     1       1.838   5.212  21.308  0.00  0.00    +0.000 OA
ENDROOT
BRANCH   2   5
ATOM      5  C   UNL     1       1.778   3.207  18.265  0.00  0.00    +0.000 C 
BRANCH   5   6
ATOM      6  C   UNL     1       3.160   3.158  17.602  0.00  0.00    +0.000 C 
ATOM      7  O   UNL     1       3.766   2.096  17.489  0.00  0.00    +0.000 OA
ATOM      8  N   UNL     1       3.603   4.376  17.110  0.00  0.00    +0.000 N 
ATOM      9  H   UNL     1       3.242   5.195  17.591  0.00  0.00    +0.000 HD
BRANCH   8  10
ATOM     10  C   UNL     1       4.854   4.511  16.469  0.00  0.00    +0.000 A 
ATOM     11  C   UNL     1       4.972   4.268  15.095  0.00  0.00    +0.000 A 
ATOM     12  C   UNL     1       6.214   4.419  14.456  0.00  0.00    +0.000 A 
ATOM     13  C   UNL     1       7.325   4.800  15.191  0.00  0.00    +0.000 A 
ATOM     14  C   UNL     1       7.222   5.037  16.566  0.00  0.00    +0.000 A 
ATOM     15  C   UNL     1       5.981   4.913  17.199  0.00  0.00    +0.000 A 
ATOM     16 BR   UNL     1       5.902   5.162  19.081  0.00  0.00    +0.000 Br
ENDBRANCH   8  10
ENDBRANCH   5   6
ENDBRANCH   2   5
BRANCH   3  17
ATOM     17  C   UNL     1       1.654   6.069  19.069  0.00  0.00    +0.000 C 
BRANCH  17  18
ATOM     18  N   UNL     1       2.473   7.256  19.414  0.00  0.00    +0.000 NA
ATOM     19  C   UNL     1       2.759   8.066  18.208  0.00  0.00    +0.000 C 
ATOM     20  C   UNL     1       1.575   8.940  17.699  0.00  0.00    +0.000 C 
ATOM     21  N   UNL     1       0.957   9.798  18.736  0.00  0.00    +0.000 NA
ATOM     22  C   UNL     1       0.634   8.943  19.900  0.00  0.00    +0.000 C 
ATOM     23  C   UNL     1       1.828   8.117  20.431  0.00  0.00    +0.000 C 
BRANCH  21  24
ATOM     24  C   UNL     1       1.859  10.923  19.064  0.00  0.00    +0.000 C 
BRANCH  24  25
ATOM     25  C   UNL     1       1.222  12.294  18.971  0.00  0.00    +0.000 A 
ATOM     26  C   UNL     1       1.994  13.405  18.596  0.00  0.00    +0.000 A 
ATOM     27  C   UNL     1       1.424  14.679  18.539  0.00  0.00    +0.000 A 
ATOM     28  C   UNL     1       0.077  14.846  18.847  0.00  0.00    +0.000 A 
ATOM     29 CL   UNL     1      -0.617  16.420  18.803  0.00  0.00    +0.000 Cl
ATOM     30  C   UNL     1      -0.710  13.749  19.192  0.00  0.00    +0.000 A 
ATOM     31  C   UNL     1      -0.139  12.476  19.254  0.00  0.00    +0.000 A 
ENDBRANCH  24  25
ENDBRANCH  21  24
ENDBRANCH  17  18
ENDBRANCH   3  17
TORSDOF 7
ENDMDL
MODEL 2
REMARK VINA RESULT:      -6.4      4.965      9.974
REMARK  Name = 
REMARK  8 active torsions:
REMARK  status: ('A' for Active; 'I' for Inactive)
REMARK    1  A    between atoms: C_1  and  N_2
REMARK    2  A    between atoms: N_2  and  C_3
REMARK    3  A    between atoms: C_3  and  C_4
REMARK    4  A    between atoms: N_6  and  C_7
REMARK    5  A    between atoms: C_14  and  C_16
REMARK    6  A    between atoms: C_16  and  N_17
REMARK    7  A    between atoms: N_20  and  C_21
REMARK    8  A    between atoms: C_21  and  C_22
REMARK                            x       y       z     vdW  Elec       q    Type
REMARK                         _______ _______ _______ _____ _____    ______ ____
ROOT
ATOM      1  C   UNL     1      -1.926  12.064  23.260  0.00  0.00    +0.000 C 
ATOM      2  N   UNL     1      -0.914  11.876  22.230  0.00  0.00    +0.000 N 
ATOM      3  C   UNL     1      -0.199  10.683  22.221  0.00  0.00    +0.000 C 
ATOM      4  O   UNL     1      -0.310   9.868  23.143  0.00  0.00    +0.000 OA
ENDROOT
BRANCH   2   5
ATOM      5  C   UNL     1      -0.840  12.885  21.167  0.00  0.00    +0.000 C 
BRANCH   5   6
ATOM      6  C   UNL     1      -2.175  13.109  20.448  0.00  0.00    +0.000 C 
ATOM      7  O   UNL     1      -2.677  14.229  20.390  0.00  0.00    +0.000 OA
ATOM      8  N   UNL     1      -2.699  11.976  19.844  0.00  0.00    +0.000 N 
ATOM      9  H   UNL     1      -2.439  11.095  20.277  0.00  0.00    +0.000 HD
BRANCH   8  10
ATOM     10  C   UNL     1      -3.921  12.005  19.139  0.00  0.00    +0.000 A 
ATOM     11  C   UNL     1      -5.098  12.409  19.784  0.00  0.00    +0.000 A 
ATOM     12  C   UNL     1      -6.311  12.453  19.077  0.00  0.00    +0.000 A 
ATOM     13  C   UNL     1      -6.343  12.086  17.741  0.00  0.00    +0.000 A 
ATOM     14  C   UNL     1      -5.177  11.672  17.087  0.00  0.00    +0.000 A 
ATOM     15  C   UNL     1      -3.963  11.653  17.783  0.00  0.00    +0.000 A 
ATOM     16 BR   UNL     1      -2.421  11.005  16.883  0.00  0.00    +0.000 Br
ENDBRANCH   8  10
ENDBRANCH   5   6
ENDBRANCH   2   5
BRANCH   3  17
ATOM     17  C   UNL     1       0.772  10.385  21.060  0.00  0.00    +0.000 C 
BRANCH  17  18
ATOM     18  N   UNL     1       0.245   9.365  20.122  0.00  0.00    +0.000 NA
ATOM     19  C   UNL     1       0.662   9.663  18.732  0.00  0.00    +0.000 C 
ATOM     20  C   UNL     1       2.142   9.315  18.394  0.00  0.00    +0.000 C 
ATOM     21  N   UNL     1       2.541   7.932  18.745  0.00  0.00    +0.000 NA
ATOM     22  C   UNL     1       2.160   7.693  20.155  0.00  0.00    +0.000 C 
ATOM     23  C   UNL     1       0.677   7.994  20.471  0.00  0.00    +0.000 C 
BRANCH  21  24
ATOM     24  C   UNL     1       1.930   6.975  17.800  0.00  0.00    +0.000 C 
BRANCH  24  25
ATOM     25  C   UNL     1       2.375   5.538  17.978  0.00  0.00    +0.000 A 
ATOM     26  C   UNL     1       3.740   5.212  17.930  0.00  0.00    +0.000 A 
ATOM     27  C   UNL     1       4.158   3.886  18.059  0.00  0.00    +0.000 A 
ATOM     28  C   UNL     1       3.215   2.880  18.246  0.00  0.00    +0.000 A 
ATOM     29 CL   UNL     1       3.729   1.243  18.377  0.00  0.00    +0.000 Cl
ATOM     30  C   UNL     1       1.858   3.190  18.325  0.00  0.00    +0.000 A 
ATOM     31  C   UNL     1       1.439   4.516  18.191  0.00  0.00    +0.000 A 
ENDBRANCH  24  25
ENDBRANCH  21  24
ENDBRANCH  17  18
ENDBRANCH   3  17
TORSDOF 7
ENDMDL
MODEL 3
REMARK VINA RESULT:      -6.3      4.966     10.485
REMARK  Name = 
REMARK  8 active torsions:
REMARK  status: ('A' for Active; 'I' for Inactive)
REMARK    1  A    between atoms: C_1  and  N_2
REMARK    2  A    between atoms: N_2  and  C_3
REMARK    3  A    between atoms: C_3  and  C_4
REMARK    4  A    between atoms: N_6  and  C_7
REMARK    5  A    between atoms: C_14  and  C_16
REMARK    6  A    between atoms: C_16  and  N_17
REMARK    7  A    between atoms: N_20  and  C_21
REMARK    8  A    between atoms: C_21  and  C_22
REMARK                            x       y       z     vdW  Elec       q    Type
REMARK                         _______ _______ _______ _____ _____    ______ ____
ROOT
ATOM      1  C   UNL     1      -0.536  13.091  18.527  0.00  0.00    +0.000 C 
ATOM      2  N   UNL     1      -0.207  12.009  19.445  0.00  0.00    +0.000 N 
ATOM      3  C   UNL     1      -0.530  10.709  19.072  0.00  0.00    +0.000 C 
ATOM      4  O   UNL     1      -1.208  10.486  18.062  0.00  0.00    +0.000 OA
ENDROOT
BRANCH   2   5
ATOM      5  C   UNL     1       0.599  12.348  20.622  0.00  0.00    +0.000 C 
BRANCH   5   6
ATOM      6  C   UNL     1      -0.237  12.573  21.888  0.00  0.00    +0.000 C 
ATOM      7  O   UNL     1      -0.287  11.717  22.768  0.00  0.00    +0.000 OA
ATOM      8  N   UNL     1      -0.851  13.813  21.956  0.00  0.00    +0.000 N 
ATOM      9  H   UNL     1      -1.068  14.240  21.060  0.00  0.00    +0.000 HD
BRANCH   8  10
ATOM     10  C   UNL     1      -1.659  14.186  23.052  0.00  0.00    +0.000 A 
ATOM     11  C   UNL     1      -1.095  14.848  24.151  0.00  0.00    +0.000 A 
ATOM     12  C   UNL     1      -1.903  15.233  25.233  0.00  0.00    +0.000 A 
ATOM     13  C   UNL     1      -3.259  14.948  25.217  0.00  0.00    +0.000 A 
ATOM     14  C   UNL     1      -3.833  14.279  24.130  0.00  0.00    +0.000 A 
ATOM     15  C   UNL     1      -3.035  13.919  23.039  0.00  0.00    +0.000 A 
ATOM     16 BR   UNL     1      -3.837  12.938  21.623  0.00  0.00    +0.000 Br
ENDBRANCH   8  10
ENDBRANCH   5   6
ENDBRANCH   2   5
BRANCH   3  17
ATOM     17  C   UNL     1      -0.065   9.526  19.946  0.00  0.00    +0.000 C 
BRANCH  17  18
ATOM     18  N   UNL     1       1.408   9.357  19.940  0.00  0.00    +0.000 NA
ATOM     19  C   UNL     1       1.807   8.199  20.773  0.00  0.00    +0.000 C 
ATOM     20  C   UNL     1       1.571   6.803  20.127  0.00  0.00    +0.000 C 
ATOM     21  N   UNL     1       2.138   6.653  18.767  0.00  0.00    +0.000 NA
ATOM     22  C   UNL     1       1.670   7.795  17.950  0.00  0.00    +0.000 C 
ATOM     23  C   UNL     1       1.954   9.180  18.576  0.00  0.00    +0.000 C 
BRANCH  21  24
ATOM     24  C   UNL     1       3.611   6.548  18.843  0.00  0.00    +0.000 C 
BRANCH  24  25
ATOM     25  C   UNL     1       4.259   5.861  17.659  0.00  0.00    +0.000 A 
ATOM     26  C   UNL     1       4.912   6.621  16.675  0.00  0.00    +0.000 A 
ATOM     27  C   UNL     1       5.483   6.000  15.562  0.00  0.00    +0.000 A 
ATOM     28  C   UNL     1       5.414   4.616  15.432  0.00  0.00    +0.000 A 
ATOM     29 CL   UNL     1       6.095   3.855  14.047  0.00  0.00    +0.000 Cl
ATOM     30  C   UNL     1       4.795   3.845  16.415  0.00  0.00    +0.000 A 
ATOM     31  C   UNL     1       4.219   4.467  17.525  0.00  0.00    +0.000 A 
ENDBRANCH  24  25
ENDBRANCH  21  24
ENDBRANCH  17  18
ENDBRANCH   3  17
TORSDOF 7
ENDMDL
MODEL 4
REMARK VINA RESULT:      -6.1      6.092     11.881
REMARK  Name = 
REMARK  8 active torsions:
REMARK  status: ('A' for Active; 'I' for Inactive)
REMARK    1  A    between atoms: C_1  and  N_2
REMARK    2  A    between atoms: N_2  and  C_3
REMARK    3  A    between atoms: C_3  and  C_4
REMARK    4  A    between atoms: N_6  and  C_7
REMARK    5  A    between atoms: C_14  and  C_16
REMARK    6  A    between atoms: C_16  and  N_17
REMARK    7  A    between atoms: N_20  and  C_21
REMARK    8  A    between atoms: C_21  and  C_22
REMARK                            x       y       z     vdW  Elec       q    Type
REMARK                         _______ _______ _______ _____ _____    ______ ____
ROOT
ATOM      1  C   UNL     1      -0.993  14.739  20.108  0.00  0.00    +0.000 C 
ATOM      2  N   UNL     1      -0.970  13.913  21.307  0.00  0.00    +0.000 N 
ATOM      3  C   UNL     1      -1.530  12.642  21.242  0.00  0.00    +0.000 C 
ATOM      4  O   UNL     1      -2.161  12.276  20.244  0.00  0.00    +0.000 OA
ENDROOT
BRANCH   2   5
ATOM      5  C   UNL     1      -0.201  14.413  22.453  0.00  0.00    +0.000 C 
BRANCH   5   6
ATOM      6  C   UNL     1      -1.070  15.094  23.517  0.00  0.00    +0.000 C 
ATOM      7  O   UNL     1      -0.869  14.895  24.712  0.00  0.00    +0.000 OA
ATOM      8  N   UNL     1      -2.020  15.966  23.009  0.00  0.00    +0.000 N 
ATOM      9  H   UNL     1      -2.351  15.750  22.073  0.00  0.00    +0.000 HD
BRANCH   8  10
ATOM     10  C   UNL     1      -2.904  16.677  23.850  0.00  0.00    +0.000 A 
ATOM     11  C   UNL     1      -2.482  17.852  24.484  0.00  0.00    +0.000 A 
ATOM     12  C   UNL     1      -3.367  18.567  25.307  0.00  0.00    +0.000 A 
ATOM     13  C   UNL     1      -4.659  18.102  25.498  0.00  0.00    +0.000 A 
ATOM     14  C   UNL     1      -5.090  16.924  24.878  0.00  0.00    +0.000 A 
ATOM     15  C   UNL     1      -4.218  16.225  24.037  0.00  0.00    +0.000 A 
ATOM     16 BR   UNL     1      -4.816  14.587  23.283  0.00  0.00    +0.000 Br
ENDBRANCH   8  10
ENDBRANCH   5   6
ENDBRANCH   2   5
BRANCH   3  17
ATOM     17  C   UNL     1      -1.391  11.685  22.444  0.00  0.00    +0.000 C 
BRANCH  17  18
ATOM     18  N   UNL     1      -0.031  11.107  22.558  0.00  0.00    +0.000 NA
ATOM     19  C   UNL     1      -0.085   9.751  23.153  0.00  0.00    +0.000 C 
ATOM     20  C   UNL     1      -0.563   8.623  22.193  0.00  0.00    +0.000 C 
ATOM     21  N   UNL     1       0.163   8.568  20.903  0.00  0.00    +0.000 NA
ATOM     22  C   UNL     1       0.144   9.926  20.313  0.00  0.00    +0.000 C 
ATOM     23  C   UNL     1       0.668  11.033  21.255  0.00  0.00    +0.000 C 
BRANCH  21  24
ATOM     24  C   UNL     1       1.526   8.036  21.111  0.00  0.00    +0.000 C 
BRANCH  24  25
ATOM     25  C   UNL     1       1.915   6.908  20.178  0.00  0.00    +0.000 A 
ATOM     26  C   UNL     1       2.505   7.194  18.936  0.00  0.00    +0.000 A 
ATOM     27  C   UNL     1       2.837   6.164  18.054  0.00  0.00    +0.000 A 
ATOM     28  C   UNL     1       2.590   4.842  18.413  0.00  0.00    +0.000 A 
ATOM     29 CL   UNL     1       2.974   3.575  17.314  0.00  0.00    +0.000 Cl
ATOM     30  C   UNL     1       2.032   4.539  19.654  0.00  0.00    +0.000 A 
ATOM     31  C   UNL     1       1.696   5.571  20.534  0.00  0.00    +0.000 A 
ENDBRANCH  24  25
ENDBRANCH  21  24
ENDBRANCH  17  18
ENDBRANCH   3  17
TORSDOF 7
ENDMDL
MODEL 5
REMARK VINA RESULT:      -6.1      5.064     10.329
REMARK  Name = 
REMARK  8 active torsions:
REMARK  status: ('A' for Active; 'I' for Inactive)
REMARK    1  A    between atoms: C_1  and  N_2
REMARK    2  A    between atoms: N_2  and  C_3
REMARK    3  A    between atoms: C_3  and  C_4
REMARK    4  A    between atoms: N_6  and  C_7
REMARK    5  A    between atoms: C_14  and  C_16
REMARK    6  A    between atoms: C_16  and  N_17
REMARK    7  A    between atoms: N_20  and  C_21
REMARK    8  A    between atoms: C_21  and  C_22
REMARK                            x       y       z     vdW  Elec       q    Type
REMARK                         _______ _______ _______ _____ _____    ______ ____
ROOT
ATOM      1  C   UNL     1      -0.121  13.747  21.748  0.00  0.00    +0.000 C 
ATOM      2  N   UNL     1       0.097  13.054  20.486  0.00  0.00    +0.000 N 
ATOM      3  C   UNL     1       1.204  12.219  20.377  0.00  0.00    +0.000 C 
ATOM      4  O   UNL     1       2.060  12.177  21.268  0.00  0.00    +0.000 OA
ENDROOT
BRANCH   2   5
ATOM      5  C   UNL     1      -0.962  13.148  19.475  0.00  0.00    +0.000 C 
BRANCH   5   6
ATOM      6  C   UNL     1      -2.243  12.402  19.865  0.00  0.00    +0.000 C 
ATOM      7  O   UNL     1      -2.219  11.513  20.712  0.00  0.00    +0.000 OA
ATOM      8  N   UNL     1      -3.388  12.859  19.232  0.00  0.00    +0.000 N 
ATOM      9  H   UNL     1      -3.241  13.277  18.318  0.00  0.00    +0.000 HD
BRANCH   8  10
ATOM     10  C   UNL     1      -4.655  12.284  19.475  0.00  0.00    +0.000 A 
ATOM     11  C   UNL     1      -5.328  12.541  20.676  0.00  0.00    +0.000 A 
ATOM     12  C   UNL     1      -6.594  11.982  20.909  0.00  0.00    +0.000 A 
ATOM     13  C   UNL     1      -7.174  11.166  19.951  0.00  0.00    +0.000 A 
ATOM     14  C   UNL     1      -6.509  10.893  18.750  0.00  0.00    +0.000 A 
ATOM     15  C   UNL     1      -5.259  11.471  18.505  0.00  0.00    +0.000 A 
ATOM     16 BR   UNL     1      -4.353  11.009  16.901  0.00  0.00    +0.000 Br
ENDBRANCH   8  10
ENDBRANCH   5   6
ENDBRANCH   2   5
BRANCH   3  17
ATOM     17  C   UNL     1       1.385  11.354  19.112  0.00  0.00    +0.000 C 
BRANCH  17  18
ATOM     18  N   UNL     1       0.513  10.155  19.111  0.00  0.00    +0.000 NA
ATOM     19  C   UNL     1       0.913   9.215  18.039  0.00  0.00    +0.000 C 
ATOM     20  C   UNL     1       2.191   8.376  18.335  0.00  0.00    +0.000 C 
ATOM     21  N   UNL     1       2.169   7.664  19.634  0.00  0.00    +0.000 NA
ATOM     22  C   UNL     1       1.823   8.647  20.685  0.00  0.00    +0.000 C 
ATOM     23  C   UNL     1       0.526   9.441  20.408  0.00  0.00    +0.000 C 
BRANCH  21  24
ATOM     24  C   UNL     1       1.236   6.520  19.568  0.00  0.00    +0.000 C 
BRANCH  24  25
ATOM     25  C   UNL     1       1.892   5.183  19.288  0.00  0.00    +0.000 A 
ATOM     26  C   UNL     1       2.506   4.468  20.329  0.00  0.00    +0.000 A 
ATOM     27  C   UNL     1       3.142   3.252  20.075  0.00  0.00    +0.000 A 
ATOM     28  C   UNL     1       3.160   2.738  18.781  0.00  0.00    +0.000 A 
ATOM     29 CL   UNL     1       3.968   1.253  18.465  0.00  0.00    +0.000 Cl
ATOM     30  C   UNL     1       2.530   3.422  17.742  0.00  0.00    +0.000 A 
ATOM     31  C   UNL     1       1.897   4.642  17.996  0.00  0.00    +0.000 A 
ENDBRANCH  24  25
ENDBRANCH  21  24
ENDBRANCH  17  18
ENDBRANCH   3  17
TORSDOF 7
ENDMDL
MODEL 6
REMARK VINA RESULT:      -6.1      0.595      1.046
REMARK  Name = 
REMARK  8 active torsions:
REMARK  status: ('A' for Active; 'I' for Inactive)
REMARK    1  A    between atoms: C_1  and  N_2
REMARK    2  A    between atoms: N_2  and  C_3
REMARK    3  A    between atoms: C_3  and  C_4
REMARK    4  A    between atoms: N_6  and  C_7
REMARK    5  A    between atoms: C_14  and  C_16
REMARK    6  A    between atoms: C_16  and  N_17
REMARK    7  A    between atoms: N_20  and  C_21
REMARK    8  A    between atoms: C_21  and  C_22
REMARK                            x       y       z     vdW  Elec       q    Type
REMARK                         _______ _______ _______ _____ _____    ______ ____
ROOT
ATOM      1  C   UNL     1       2.686   2.551  20.363  0.00  0.00    +0.000 C 
ATOM      2  N   UNL     1       1.969   3.698  19.827  0.00  0.00    +0.000 N 
ATOM      3  C   UNL     1       1.925   4.861  20.588  0.00  0.00    +0.000 C 
ATOM      4  O   UNL     1       2.352   4.879  21.748  0.00  0.00    +0.000 OA
ENDROOT
BRANCH   2   5
ATOM      5  C   UNL     1       1.489   3.605  18.444  0.00  0.00    +0.000 C 
BRANCH   5   6
ATOM      6  C   UNL     1       2.620   3.572  17.409  0.00  0.00    +0.000 C 
ATOM      7  O   UNL     1       2.512   2.909  16.381  0.00  0.00    +0.000 OA
ATOM      8  N   UNL     1       3.701   4.384  17.716  0.00  0.00    +0.000 N 
ATOM      9  H   UNL     1       3.856   4.544  18.707  0.00  0.00    +0.000 HD
BRANCH   8  10
ATOM     10  C   UNL     1       4.830   4.473  16.872  0.00  0.00    +0.000 A 
ATOM     11  C   UNL     1       4.731   4.113  15.521  0.00  0.00    +0.000 A 
ATOM     12  C   UNL     1       5.849   4.218  14.679  0.00  0.00    +0.000 A 
ATOM     13  C   UNL     1       7.056   4.669  15.190  0.00  0.00    +0.000 A 
ATOM     14  C   UNL     1       7.172   5.023  16.538  0.00  0.00    +0.000 A 
ATOM     15  C   UNL     1       6.051   4.944  17.373  0.00  0.00    +0.000 A 
ATOM     16 BR   UNL     1       6.271   5.353  19.215  0.00  0.00    +0.000 Br
ENDBRANCH   8  10
ENDBRANCH   5   6
ENDBRANCH   2   5
BRANCH   3  17
ATOM     17  C   UNL     1       1.304   6.141  19.990  0.00  0.00    +0.000 C 
BRANCH  17  18
ATOM     18  N   UNL     1       2.242   7.289  20.002  0.00  0.00    +0.000 NA
ATOM     19  C   UNL     1       2.585   7.702  18.622  0.00  0.00    +0.000 C 
ATOM     20  C   UNL     1       1.484   8.515  17.879  0.00  0.00    +0.000 C 
ATOM     21  N   UNL     1       0.972   9.683  18.633  0.00  0.00    +0.000 NA
ATOM     22  C   UNL     1       0.587   9.220  19.985  0.00  0.00    +0.000 C 
ATOM     23  C   UNL     1       1.703   8.457  20.735  0.00  0.00    +0.000 C 
BRANCH  21  24
ATOM     24  C   UNL     1       1.986  10.759  18.646  0.00  0.00    +0.000 C 
BRANCH  24  25
ATOM     25  C   UNL     1       1.420  12.162  18.729  0.00  0.00    +0.000 A 
ATOM     26  C   UNL     1       0.030  12.363  18.713  0.00  0.00    +0.000 A 
ATOM     27  C   UNL     1      -0.501  13.653  18.754  0.00  0.00    +0.000 A 
ATOM     28  C   UNL     1       0.354  14.750  18.823  0.00  0.00    +0.000 A 
ATOM     29 CL   UNL     1      -0.301  16.340  18.848  0.00  0.00    +0.000 Cl
ATOM     30  C   UNL     1       1.735  14.566  18.870  0.00  0.00    +0.000 A 
ATOM     31  C   UNL     1       2.266  13.275  18.823  0.00  0.00    +0.000 A 
ENDBRANCH  24  25
ENDBRANCH  21  24
ENDBRANCH  17  18
ENDBRANCH   3  17
TORSDOF 7
ENDMDL
MODEL 7
REMARK VINA RESULT:      -6.1      4.385      9.544
REMARK  Name = 
REMARK  8 active torsions:
REMARK  status: ('A' for Active; 'I' for Inactive)
REMARK    1  A    between atoms: C_1  and  N_2
REMARK    2  A    between atoms: N_2  and  C_3
REMARK    3  A    between atoms: C_3  and  C_4
REMARK    4  A    between atoms: N_6  and  C_7
REMARK    5  A    between atoms: C_14  and  C_16
REMARK    6  A    between atoms: C_16  and  N_17
REMARK    7  A    between atoms: N_20  and  C_21
REMARK    8  A    between atoms: C_21  and  C_22
REMARK                            x       y       z     vdW  Elec       q    Type
REMARK                         _______ _______ _______ _____ _____    ______ ____
ROOT
ATOM      1  C   UNL     1       0.465  11.829  21.099  0.00  0.00    +0.000 C 
ATOM      2  N   UNL     1       0.593  10.589  20.345  0.00  0.00    +0.000 N 
ATOM      3  C   UNL     1       0.952   9.435  21.034  0.00  0.00    +0.000 C 
ATOM      4  O   UNL     1       1.296   9.483  22.220  0.00  0.00    +0.000 OA
ENDROOT
BRANCH   2   5
ATOM      5  C   UNL     1       0.166  10.607  18.942  0.00  0.00    +0.000 C 
BRANCH   5   6
ATOM      6  C   UNL     1      -1.355  10.519  18.769  0.00  0.00    +0.000 C 
ATOM      7  O   UNL     1      -1.942   9.450  18.916  0.00  0.00    +0.000 OA
ATOM      8  N   UNL     1      -1.973  11.730  18.503  0.00  0.00    +0.000 N 
ATOM      9  H   UNL     1      -1.396  12.417  18.026  0.00  0.00    +0.000 HD
BRANCH   8  10
ATOM     10  C   UNL     1      -3.369  11.830  18.315  0.00  0.00    +0.000 A 
ATOM     11  C   UNL     1      -4.192  12.272  19.359  0.00  0.00    +0.000 A 
ATOM     12  C   UNL     1      -5.578  12.386  19.165  0.00  0.00    +0.000 A 
ATOM     13  C   UNL     1      -6.132  12.051  17.941  0.00  0.00    +0.000 A 
ATOM     14  C   UNL     1      -5.323  11.599  16.892  0.00  0.00    +0.000 A 
ATOM     15  C   UNL     1      -3.939  11.510  17.074  0.00  0.00    +0.000 A 
ATOM     16 BR   UNL     1      -2.887  10.813  15.654  0.00  0.00    +0.000 Br
ENDBRANCH   8  10
ENDBRANCH   5   6
ENDBRANCH   2   5
BRANCH   3  17
ATOM     17  C   UNL     1       0.951   8.078  20.300  0.00  0.00    +0.000 C 
BRANCH  17  18
ATOM     18  N   UNL     1       2.241   7.359  20.430  0.00  0.00    +0.000 NA
ATOM     19  C   UNL     1       2.048   6.048  21.091  0.00  0.00    +0.000 C 
ATOM     20  C   UNL     1       1.434   4.935  20.193  0.00  0.00    +0.000 C 
ATOM     21  N   UNL     1       2.129   4.739  18.900  0.00  0.00    +0.000 NA
ATOM     22  C   UNL     1       2.251   6.060  18.244  0.00  0.00    +0.000 C 
ATOM     23  C   UNL     1       2.908   7.146  19.125  0.00  0.00    +0.000 C 
BRANCH  21  24
ATOM     24  C   UNL     1       3.428   4.069  19.121  0.00  0.00    +0.000 C 
BRANCH  24  25
ATOM     25  C   UNL     1       4.437   4.259  18.007  0.00  0.00    +0.000 A 
ATOM     26  C   UNL     1       5.691   4.828  18.282  0.00  0.00    +0.000 A 
ATOM     27  C   UNL     1       6.614   5.039  17.257  0.00  0.00    +0.000 A 
ATOM     28  C   UNL     1       6.294   4.672  15.952  0.00  0.00    +0.000 A 
ATOM     29 CL   UNL     1       7.423   4.957  14.686  0.00  0.00    +0.000 Cl
ATOM     30  C   UNL     1       5.065   4.079  15.668  0.00  0.00    +0.000 A 
ATOM     31  C   UNL     1       4.139   3.873  16.693  0.00  0.00    +0.000 A 
ENDBRANCH  24  25
ENDBRANCH  21  24
ENDBRANCH  17  18
ENDBRANCH   3  17
TORSDOF 7
ENDMDL
MODEL 8
REMARK VINA RESULT:      -6.1      5.297     10.577
REMARK  Name = 
REMARK  8 active torsions:
REMARK  status: ('A' for Active; 'I' for Inactive)
REMARK    1  A    between atoms: C_1  and  N_2
REMARK    2  A    between atoms: N_2  and  C_3
REMARK    3  A    between atoms: C_3  and  C_4
REMARK    4  A    between atoms: N_6  and  C_7
REMARK    5  A    between atoms: C_14  and  C_16
REMARK    6  A    between atoms: C_16  and  N_17
REMARK    7  A    between atoms: N_20  and  C_21
REMARK    8  A    between atoms: C_21  and  C_22
REMARK                            x       y       z     vdW  Elec       q    Type
REMARK                         _______ _______ _______ _____ _____    ______ ____
ROOT
ATOM      1  C   UNL     1      -1.509  16.161  20.069  0.00  0.00    +0.000 C 
ATOM      2  N   UNL     1      -1.543  14.759  20.459  0.00  0.00    +0.000 N 
ATOM      3  C   UNL     1      -0.656  13.882  19.841  0.00  0.00    +0.000 C 
ATOM      4  O   UNL     1       0.038  14.248  18.886  0.00  0.00    +0.000 OA
ENDROOT
BRANCH   2   5
ATOM      5  C   UNL     1      -2.389  14.399  21.601  0.00  0.00    +0.000 C 
BRANCH   5   6
ATOM      6  C   UNL     1      -3.455  13.349  21.262  0.00  0.00    +0.000 C 
ATOM      7  O   UNL     1      -3.767  12.485  22.076  0.00  0.00    +0.000 OA
ATOM      8  N   UNL     1      -4.044  13.513  20.018  0.00  0.00    +0.000 N 
ATOM      9  H   UNL     1      -3.463  13.965  19.318  0.00  0.00    +0.000 HD
BRANCH   8  10
ATOM     10  C   UNL     1      -5.044  12.635  19.546  0.00  0.00    +0.000 A 
ATOM     11  C   UNL     1      -6.344  12.702  20.064  0.00  0.00    +0.000 A 
ATOM     12  C   UNL     1      -7.342  11.840  19.582  0.00  0.00    +0.000 A 
ATOM     13  C   UNL     1      -7.035  10.914  18.598  0.00  0.00    +0.000 A 
ATOM     14  C   UNL     1      -5.739  10.829  18.078  0.00  0.00    +0.000 A 
ATOM     15  C   UNL     1      -4.750  11.706  18.538  0.00  0.00    +0.000 A 
ATOM     16 BR   UNL     1      -2.985  11.502  17.867  0.00  0.00    +0.000 Br
ENDBRANCH   8  10
ENDBRANCH   5   6
ENDBRANCH   2   5
BRANCH   3  17
ATOM     17  C   UNL     1      -0.559  12.423  20.333  0.00  0.00    +0.000 C 
BRANCH  17  18
ATOM     18  N   UNL     1       0.803  11.860  20.182  0.00  0.00    +0.000 NA
ATOM     19  C   UNL     1       1.086  10.873  21.250  0.00  0.00    +0.000 C 
ATOM     20  C   UNL     1       0.410   9.483  21.066  0.00  0.00    +0.000 C 
ATOM     21  N   UNL     1       0.644   8.859  19.743  0.00  0.00    +0.000 NA
ATOM     22  C   UNL     1       0.296   9.854  18.703  0.00  0.00    +0.000 C 
ATOM     23  C   UNL     1       1.010  11.216  18.866  0.00  0.00    +0.000 C 
BRANCH  21  24
ATOM     24  C   UNL     1       2.038   8.375  19.651  0.00  0.00    +0.000 C 
BRANCH  24  25
ATOM     25  C   UNL     1       2.179   6.876  19.490  0.00  0.00    +0.000 A 
ATOM     26  C   UNL     1       1.770   6.015  20.521  0.00  0.00    +0.000 A 
ATOM     27  C   UNL     1       1.927   4.633  20.396  0.00  0.00    +0.000 A 
ATOM     28  C   UNL     1       2.483   4.104  19.235  0.00  0.00    +0.000 A 
ATOM     29 CL   UNL     1       2.700   2.403  19.094  0.00  0.00    +0.000 Cl
ATOM     30  C   UNL     1       2.867   4.943  18.190  0.00  0.00    +0.000 A 
ATOM     31  C   UNL     1       2.714   6.326  18.318  0.00  0.00    +0.000 A 
ENDBRANCH  24  25
ENDBRANCH  21  24
ENDBRANCH  17  18
ENDBRANCH   3  17
TORSDOF 7
ENDMDL
MODEL 9
REMARK VINA RESULT:      -6.1      5.138      9.267
REMARK  Name = 
REMARK  8 active torsions:
REMARK  status: ('A' for Active; 'I' for Inactive)
REMARK    1  A    between atoms: C_1  and  N_2
REMARK    2  A    between atoms: N_2  and  C_3
REMARK    3  A    between atoms: C_3  and  C_4
REMARK    4  A    between atoms: N_6  and  C_7
REMARK    5  A    between atoms: C_14  and  C_16
REMARK    6  A    between atoms: C_16  and  N_17
REMARK    7  A    between atoms: N_20  and  C_21
REMARK    8  A    between atoms: C_21  and  C_22
REMARK                            x       y       z     vdW  Elec       q    Type
REMARK                         _______ _______ _______ _____ _____    ______ ____
ROOT
ATOM      1  C   UNL     1      -0.567  13.441  18.026  0.00  0.00    +0.000 C 
ATOM      2  N   UNL     1       0.160  12.785  19.104  0.00  0.00    +0.000 N 
ATOM      3  C   UNL     1      -0.518  12.518  20.289  0.00  0.00    +0.000 C 
ATOM      4  O   UNL     1      -1.658  12.955  20.481  0.00  0.00    +0.000 OA
ENDROOT
BRANCH   2   5
ATOM      5  C   UNL     1       1.509  12.293  18.803  0.00  0.00    +0.000 C 
BRANCH   5   6
ATOM      6  C   UNL     1       2.616  13.283  19.185  0.00  0.00    +0.000 C 
ATOM      7  O   UNL     1       2.920  13.462  20.361  0.00  0.00    +0.000 OA
ATOM      8  N   UNL     1       3.250  13.878  18.105  0.00  0.00    +0.000 N 
ATOM      9  H   UNL     1       2.685  13.969  17.266  0.00  0.00    +0.000 HD
BRANCH   8  10
ATOM     10  C   UNL     1       4.293  14.815  18.276  0.00  0.00    +0.000 A 
ATOM     11  C   UNL     1       5.628  14.421  18.116  0.00  0.00    +0.000 A 
ATOM     12  C   UNL     1       6.663  15.357  18.270  0.00  0.00    +0.000 A 
ATOM     13  C   UNL     1       6.361  16.671  18.592  0.00  0.00    +0.000 A 
ATOM     14  C   UNL     1       5.033  17.076  18.764  0.00  0.00    +0.000 A 
ATOM     15  C   UNL     1       3.999  16.150  18.584  0.00  0.00    +0.000 A 
ATOM     16 BR   UNL     1       2.216  16.720  18.910  0.00  0.00    +0.000 Br
ENDBRANCH   8  10
ENDBRANCH   5   6
ENDBRANCH   2   5
BRANCH   3  17
ATOM     17  C   UNL     1       0.173  11.693  21.393  0.00  0.00    +0.000 C 
BRANCH  17  18
ATOM     18  N   UNL     1      -0.425  10.347  21.558  0.00  0.00    +0.000 NA
ATOM     19  C   UNL     1      -0.360   9.584  20.290  0.00  0.00    +0.000 C 
ATOM     20  C   UNL     1       1.039   8.999  19.938  0.00  0.00    +0.000 C 
ATOM     21  N   UNL     1       1.664   8.208  21.024  0.00  0.00    +0.000 NA
ATOM     22  C   UNL     1       1.632   9.025  22.257  0.00  0.00    +0.000 C 
ATOM     23  C   UNL     1       0.229   9.560  22.627  0.00  0.00    +0.000 C 
BRANCH  21  24
ATOM     24  C   UNL     1       0.975   6.907  21.161  0.00  0.00    +0.000 C 
BRANCH  24  25
ATOM     25  C   UNL     1       1.647   5.756  20.441  0.00  0.00    +0.000 A 
ATOM     26  C   UNL     1       2.857   5.963  19.758  0.00  0.00    +0.000 A 
ATOM     27  C   UNL     1       3.466   4.916  19.062  0.00  0.00    +0.000 A 
ATOM     28  C   UNL     1       2.875   3.656  19.054  0.00  0.00    +0.000 A 
ATOM     29 CL   UNL     1       3.613   2.375  18.175  0.00  0.00    +0.000 Cl
ATOM     30  C   UNL     1       1.689   3.428  19.751  0.00  0.00    +0.000 A 
ATOM     31  C   UNL     1       1.077   4.476  20.443  0.00  0.00    +0.000 A 
ENDBRANCH  24  25
ENDBRANCH  21  24
ENDBRANCH  17  18
ENDBRANCH   3  17
TORSDOF 7
ENDMDL
