MODEL 1
REMARK VINA RESULT:      -8.1      0.000      0.000
REMARK  Name = 
REMARK  11 active torsions:
REMARK  status: ('A' for Active; 'I' for Inactive)
REMARK    1  A    between atoms: C_1  and  C_2
REMARK    2  A    between atoms: C_2  and  C_4
REMARK    3  A    between atoms: C_5  and  C_6
REMARK    4  A    between atoms: N_7  and  C_8
REMARK    5  A    between atoms: C_12  and  C_13
REMARK    6  A    between atoms: N_20  and  C_21
REMARK    7  A    between atoms: C_22  and  C_23
REMARK    8  A    between atoms: C_26  and  C_27
REMARK    9  A    between atoms: C_30  and  C_31
REMARK   10  A    between atoms: N_33  and  C_34
REMARK   11  A    between atoms: C_34  and  C_35
REMARK                            x       y       z     vdW  Elec       q    Type
REMARK                         _______ _______ _______ _____ _____    ______ ____
ROOT
ATOM      1  C   UNL     1       1.035   8.554  20.431  0.00  0.00    +0.000 C 
ATOM      2  C   UNL     1       1.582   7.386  20.011  0.00  0.00    +0.000 C 
ATOM      3  C   UNL     1       1.469   6.054  20.740  0.00  0.00    +0.000 C 
ATOM      4  N   UNL     1       2.376   7.375  18.849  0.00  0.00    +0.000 N 
ATOM      5  C   UNL     1       2.709   8.549  18.153  0.00  0.00    +0.000 C 
ATOM      6  O   UNL     1       3.583   8.582  17.283  0.00  0.00    +0.000 OA
ATOM      7  N   UNL     1       1.952   9.676  18.434  0.00  0.00    +0.000 N 
ATOM      8  C   UNL     1       2.183  10.849  17.593  0.00  0.00    +0.000 C 
ATOM      9  C   UNL     1       1.035   9.815  19.574  0.00  0.00    +0.000 C 
ENDROOT
BRANCH   4  10
ATOM     10  C   UNL     1       2.910   6.159  18.283  0.00  0.00    +0.000 A 
ATOM     11  C   UNL     1       2.041   5.123  17.914  0.00  0.00    +0.000 A 
ATOM     12  C   UNL     1       2.531   3.966  17.304  0.00  0.00    +0.000 A 
ATOM     13  C   UNL     1       3.896   3.831  17.056  0.00  0.00    +0.000 A 
ATOM     14  C   UNL     1       4.788   4.854  17.407  0.00  0.00    +0.000 A 
ATOM     15  C   UNL     1       4.283   6.018  18.020  0.00  0.00    +0.000 A 
BRANCH  14  16
ATOM     16  C   UNL     1       6.266   4.723  17.130  0.00  0.00    +0.000 C 
ATOM     17  F   UNL     1       6.985   4.308  18.215  0.00  0.00    +0.000 F 
ATOM     18  F   UNL     1       6.545   3.831  16.142  0.00  0.00    +0.000 F 
ATOM     19  F   UNL     1       6.830   5.901  16.746  0.00  0.00    +0.000 F 
ENDBRANCH  14  16
ENDBRANCH   4  10
BRANCH   9  20
ATOM     20  C   UNL     1      -0.388  10.188  19.078  0.00  0.00    +0.000 A 
ATOM     21  C   UNL     1      -0.834   9.575  17.877  0.00  0.00    +0.000 A 
ATOM     22  C   UNL     1      -2.026   9.940  17.254  0.00  0.00    +0.000 A 
ATOM     23  C   UNL     1      -2.794  10.967  17.783  0.00  0.00    +0.000 A 
ATOM     24  C   UNL     1      -2.399  11.573  18.976  0.00  0.00    +0.000 A 
ATOM     25  C   UNL     1      -1.245  11.163  19.666  0.00  0.00    +0.000 A 
BRANCH  25  26
ATOM     26  C   UNL     1      -0.975  11.862  20.979  0.00  0.00    +0.000 C 
ATOM     27  O   UNL     1       0.032  12.527  21.164  0.00  0.00    +0.000 OA
ATOM     28  N   UNL     1      -1.942  11.702  21.954  0.00  0.00    +0.000 N 
ATOM     29  H   UNL     1      -2.650  10.983  21.863  0.00  0.00    +0.000 HD
BRANCH  28  30
ATOM     30  C   UNL     1      -1.915  12.448  23.210  0.00  0.00    +0.000 C 
BRANCH  30  31
ATOM     31  C   UNL     1      -3.206  12.362  23.924  0.00  0.00    +0.000 C 
ATOM     32  N   UNL     1      -4.235  12.272  24.449  0.00  0.00    +0.000 NA
ENDBRANCH  30  31
ENDBRANCH  28  30
ENDBRANCH  25  26
BRANCH  23  33
ATOM     33  C   UNL     1      -3.958  11.428  17.094  0.00  0.00    +0.000 C 
ATOM     34  N   UNL     1      -4.896  11.805  16.520  0.00  0.00    +0.000 NA
ENDBRANCH  23  33
ENDBRANCH   9  20
BRANCH   1  36
ATOM     35  C   UNL     1       0.931   9.400  22.892  0.00  0.00    +0.000 C 
ATOM     36  C   UNL     1       0.279   8.675  21.735  0.00  0.00    +0.000 C 
ATOM     37  O   UNL     1      -0.851   8.210  21.872  0.00  0.00    +0.000 OA
ENDBRANCH   1  36
TORSDOF 8
ENDMDL
MODEL 2
REMARK VINA RESULT:      -8.0      1.623      2.240
REMARK  Name = 
REMARK  11 active torsions:
REMARK  status: ('A' for Active; 'I' for Inactive)
REMARK    1  A    between atoms: C_1  and  C_2
REMARK    2  A    between atoms: C_2  and  C_4
REMARK    3  A    between atoms: C_5  and  C_6
REMARK    4  A    between atoms: N_7  and  C_8
REMARK    5  A    between atoms: C_12  and  C_13
REMARK    6  A    between atoms: N_20  and  C_21
REMARK    7  A    between atoms: C_22  and  C_23
REMARK    8  A    between atoms: C_26  and  C_27
REMARK    9  A    between atoms: C_30  and  C_31
REMARK   10  A    between atoms: N_33  and  C_34
REMARK   11  A    between atoms: C_34  and  C_35
REMARK                            x       y       z     vdW  Elec       q    Type
REMARK                         _______ _______ _______ _____ _____    ______ ____
ROOT
ATOM      1  C   UNL     1       1.325   8.813  20.631  0.00  0.00    +0.000 C 
ATOM      2  C   UNL     1       1.735   7.598  20.187  0.00  0.00    +0.000 C 
ATOM      3  C   UNL     1       1.685   6.308  20.994  0.00  0.00    +0.000 C 
ATOM      4  N   UNL     1       2.314   7.491  18.909  0.00  0.00    +0.000 N 
ATOM      5  C   UNL     1       2.578   8.612  18.105  0.00  0.00    +0.000 C 
ATOM      6  O   UNL     1       3.290   8.558  17.098  0.00  0.00    +0.000 OA
ATOM      7  N   UNL     1       1.936   9.792  18.450  0.00  0.00    +0.000 N 
ATOM      8  C   UNL     1       2.075  10.911  17.521  0.00  0.00    +0.000 C 
ATOM      9  C   UNL     1       1.238  10.033  19.720  0.00  0.00    +0.000 C 
ENDROOT
BRANCH   4  10
ATOM     10  C   UNL     1       2.684   6.223  18.326  0.00  0.00    +0.000 A 
ATOM     11  C   UNL     1       1.696   5.263  18.066  0.00  0.00    +0.000 A 
ATOM     12  C   UNL     1       2.023   4.057  17.442  0.00  0.00    +0.000 A 
ATOM     13  C   UNL     1       3.340   3.796  17.070  0.00  0.00    +0.000 A 
ATOM     14  C   UNL     1       4.348   4.741  17.310  0.00  0.00    +0.000 A 
ATOM     15  C   UNL     1       4.007   5.956  17.939  0.00  0.00    +0.000 A 
BRANCH  14  16
ATOM     16  C   UNL     1       5.775   4.475  16.898  0.00  0.00    +0.000 C 
ATOM     17  F   UNL     1       6.373   5.545  16.294  0.00  0.00    +0.000 F 
ATOM     18  F   UNL     1       6.579   4.149  17.946  0.00  0.00    +0.000 F 
ATOM     19  F   UNL     1       5.878   3.448  16.010  0.00  0.00    +0.000 F 
ENDBRANCH  14  16
ENDBRANCH   4  10
BRANCH   9  20
ATOM     20  C   UNL     1      -0.230  10.463  19.454  0.00  0.00    +0.000 A 
ATOM     21  C   UNL     1      -0.977   9.677  18.537  0.00  0.00    +0.000 A 
ATOM     22  C   UNL     1      -2.249  10.046  18.105  0.00  0.00    +0.000 A 
ATOM     23  C   UNL     1      -2.803  11.243  18.537  0.00  0.00    +0.000 A 
ATOM     24  C   UNL     1      -2.108  12.028  19.457  0.00  0.00    +0.000 A 
ATOM     25  C   UNL     1      -0.861  11.631  19.971  0.00  0.00    +0.000 A 
BRANCH  25  26
ATOM     26  C   UNL     1      -0.254  12.545  21.011  0.00  0.00    +0.000 C 
ATOM     27  O   UNL     1      -0.247  12.261  22.199  0.00  0.00    +0.000 OA
ATOM     28  N   UNL     1       0.294  13.720  20.532  0.00  0.00    +0.000 N 
ATOM     29  H   UNL     1       0.089  14.038  19.592  0.00  0.00    +0.000 HD
BRANCH  28  30
ATOM     30  C   UNL     1       1.066  14.625  21.381  0.00  0.00    +0.000 C 
BRANCH  30  31
ATOM     31  C   UNL     1       2.485  14.221  21.462  0.00  0.00    +0.000 C 
ATOM     32  N   UNL     1       3.598  13.918  21.568  0.00  0.00    +0.000 NA
ENDBRANCH  30  31
ENDBRANCH  28  30
ENDBRANCH  25  26
BRANCH  23  33
ATOM     33  C   UNL     1      -4.057  11.689  18.013  0.00  0.00    +0.000 C 
ATOM     34  N   UNL     1      -5.083  12.041  17.596  0.00  0.00    +0.000 NA
ENDBRANCH  23  33
ENDBRANCH   9  20
BRANCH   1  36
ATOM     35  C   UNL     1      -0.630   8.696  22.346  0.00  0.00    +0.000 C 
ATOM     36  C   UNL     1       0.812   9.033  22.036  0.00  0.00    +0.000 C 
ATOM     37  O   UNL     1       1.538   9.467  22.929  0.00  0.00    +0.000 OA
ENDBRANCH   1  36
TORSDOF 8
ENDMDL
MODEL 3
REMARK VINA RESULT:      -7.8      0.855      1.098
REMARK  Name = 
REMARK  11 active torsions:
REMARK  status: ('A' for Active; 'I' for Inactive)
REMARK    1  A    between atoms: C_1  and  C_2
REMARK    2  A    between atoms: C_2  and  C_4
REMARK    3  A    between atoms: C_5  and  C_6
REMARK    4  A    between atoms: N_7  and  C_8
REMARK    5  A    between atoms: C_12  and  C_13
REMARK    6  A    between atoms: N_20  and  C_21
REMARK    7  A    between atoms: C_22  and  C_23
REMARK    8  A    between atoms: C_26  and  C_27
REMARK    9  A    between atoms: C_30  and  C_31
REMARK   10  A    between atoms: N_33  and  C_34
REMARK   11  A    between atoms: C_34  and  C_35
REMARK                            x       y       z     vdW  Elec       q    Type
REMARK                         _______ _______ _______ _____ _____    ______ ____
ROOT
ATOM      1  C   UNL     1       1.257   8.828  20.570  0.00  0.00    +0.000 C 
ATOM      2  C   UNL     1       1.715   7.621  20.151  0.00  0.00    +0.000 C 
ATOM      3  C   UNL     1       1.674   6.337  20.968  0.00  0.00    +0.000 C 
ATOM      4  N   UNL     1       2.340   7.520  18.893  0.00  0.00    +0.000 N 
ATOM      5  C   UNL     1       2.599   8.641  18.089  0.00  0.00    +0.000 C 
ATOM      6  O   UNL     1       3.345   8.599  17.107  0.00  0.00    +0.000 OA
ATOM      7  N   UNL     1       1.913   9.806  18.401  0.00  0.00    +0.000 N 
ATOM      8  C   UNL     1       2.052  10.921  17.468  0.00  0.00    +0.000 C 
ATOM      9  C   UNL     1       1.166  10.037  19.645  0.00  0.00    +0.000 C 
ENDROOT
BRANCH   4  10
ATOM     10  C   UNL     1       2.763   6.258  18.335  0.00  0.00    +0.000 A 
ATOM     11  C   UNL     1       1.810   5.276  18.034  0.00  0.00    +0.000 A 
ATOM     12  C   UNL     1       2.192   4.074  17.432  0.00  0.00    +0.000 A 
ATOM     13  C   UNL     1       3.531   3.841  17.123  0.00  0.00    +0.000 A 
ATOM     14  C   UNL     1       4.505   4.809  17.406  0.00  0.00    +0.000 A 
ATOM     15  C   UNL     1       4.109   6.019  18.012  0.00  0.00    +0.000 A 
BRANCH  14  16
ATOM     16  C   UNL     1       5.956   4.572  17.063  0.00  0.00    +0.000 C 
ATOM     17  F   UNL     1       6.592   5.689  16.597  0.00  0.00    +0.000 F 
ATOM     18  F   UNL     1       6.692   4.148  18.125  0.00  0.00    +0.000 F 
ATOM     19  F   UNL     1       6.115   3.630  16.094  0.00  0.00    +0.000 F 
ENDBRANCH  14  16
ENDBRANCH   4  10
BRANCH   9  20
ATOM     20  C   UNL     1      -0.303  10.424  19.327  0.00  0.00    +0.000 A 
ATOM     21  C   UNL     1      -0.972   9.658  18.335  0.00  0.00    +0.000 A 
ATOM     22  C   UNL     1      -2.235  10.000  17.858  0.00  0.00    +0.000 A 
ATOM     23  C   UNL     1      -2.858  11.150  18.320  0.00  0.00    +0.000 A 
ATOM     24  C   UNL     1      -2.242  11.912  19.312  0.00  0.00    +0.000 A 
ATOM     25  C   UNL     1      -1.006  11.539  19.869  0.00  0.00    +0.000 A 
BRANCH  25  26
ATOM     26  C   UNL     1      -0.489  12.420  20.982  0.00  0.00    +0.000 C 
ATOM     27  O   UNL     1       0.570  13.024  20.893  0.00  0.00    +0.000 OA
ATOM     28  N   UNL     1      -1.290  12.501  22.106  0.00  0.00    +0.000 N 
ATOM     29  H   UNL     1      -2.040  11.837  22.251  0.00  0.00    +0.000 HD
BRANCH  28  30
ATOM     30  C   UNL     1      -1.018  13.439  23.193  0.00  0.00    +0.000 C 
BRANCH  30  31
ATOM     31  C   UNL     1      -2.265  13.941  23.807  0.00  0.00    +0.000 C 
ATOM     32  N   UNL     1      -3.222  14.335  24.327  0.00  0.00    +0.000 NA
ENDBRANCH  30  31
ENDBRANCH  28  30
ENDBRANCH  25  26
BRANCH  23  33
ATOM     33  C   UNL     1      -4.102  11.575  17.756  0.00  0.00    +0.000 C 
ATOM     34  N   UNL     1      -5.105  11.930  17.289  0.00  0.00    +0.000 NA
ENDBRANCH  23  33
ENDBRANCH   9  20
BRANCH   1  36
ATOM     35  C   UNL     1      -0.733   8.618  22.236  0.00  0.00    +0.000 C 
ATOM     36  C   UNL     1       0.691   9.045  21.955  0.00  0.00    +0.000 C 
ATOM     37  O   UNL     1       1.361   9.547  22.856  0.00  0.00    +0.000 OA
ENDBRANCH   1  36
TORSDOF 8
ENDMDL
MODEL 4
REMARK VINA RESULT:      -7.6      1.631      2.058
REMARK  Name = 
REMARK  11 active torsions:
REMARK  status: ('A' for Active; 'I' for Inactive)
REMARK    1  A    between atoms: C_1  and  C_2
REMARK    2  A    between atoms: C_2  and  C_4
REMARK    3  A    between atoms: C_5  and  C_6
REMARK    4  A    between atoms: N_7  and  C_8
REMARK    5  A    between atoms: C_12  and  C_13
REMARK    6  A    between atoms: N_20  and  C_21
REMARK    7  A    between atoms: C_22  and  C_23
REMARK    8  A    between atoms: C_26  and  C_27
REMARK    9  A    between atoms: C_30  and  C_31
REMARK   10  A    between atoms: N_33  and  C_34
REMARK   11  A    between atoms: C_34  and  C_35
REMARK                            x       y       z     vdW  Elec       q    Type
REMARK                         _______ _______ _______ _____ _____    ______ ____
ROOT
ATOM      1  C   UNL     1       0.970   8.711  20.491  0.00  0.00    +0.000 C 
ATOM      2  C   UNL     1       1.538   7.547  20.089  0.00  0.00    +0.000 C 
ATOM      3  C   UNL     1       1.444   6.223  20.834  0.00  0.00    +0.000 C 
ATOM      4  N   UNL     1       2.337   7.534  18.930  0.00  0.00    +0.000 N 
ATOM      5  C   UNL     1       2.653   8.704  18.221  0.00  0.00    +0.000 C 
ATOM      6  O   UNL     1       3.531   8.741  17.354  0.00  0.00    +0.000 OA
ATOM      7  N   UNL     1       1.876   9.823  18.483  0.00  0.00    +0.000 N 
ATOM      8  C   UNL     1       2.092  10.988  17.629  0.00  0.00    +0.000 C 
ATOM      9  C   UNL     1       0.953   9.961  19.618  0.00  0.00    +0.000 C 
ENDROOT
BRANCH   4  10
ATOM     10  C   UNL     1       2.894   6.320  18.382  0.00  0.00    +0.000 A 
ATOM     11  C   UNL     1       4.162   6.343  17.787  0.00  0.00    +0.000 A 
ATOM     12  C   UNL     1       4.746   5.167  17.311  0.00  0.00    +0.000 A 
ATOM     13  C   UNL     1       4.070   3.954  17.425  0.00  0.00    +0.000 A 
ATOM     14  C   UNL     1       2.803   3.899  18.024  0.00  0.00    +0.000 A 
ATOM     15  C   UNL     1       2.223   5.092  18.502  0.00  0.00    +0.000 A 
BRANCH  14  16
ATOM     16  C   UNL     1       2.068   2.589  18.165  0.00  0.00    +0.000 C 
ATOM     17  F   UNL     1       2.397   1.903  19.301  0.00  0.00    +0.000 F 
ATOM     18  F   UNL     1       0.716   2.738  18.206  0.00  0.00    +0.000 F 
ATOM     19  F   UNL     1       2.323   1.735  17.136  0.00  0.00    +0.000 F 
ENDBRANCH  14  16
ENDBRANCH   4  10
BRANCH   9  20
ATOM     20  C   UNL     1      -0.474  10.303  19.111  0.00  0.00    +0.000 A 
ATOM     21  C   UNL     1      -0.905   9.668  17.916  0.00  0.00    +0.000 A 
ATOM     22  C   UNL     1      -2.099  10.005  17.283  0.00  0.00    +0.000 A 
ATOM     23  C   UNL     1      -2.887  11.026  17.796  0.00  0.00    +0.000 A 
ATOM     24  C   UNL     1      -2.508  11.654  18.982  0.00  0.00    +0.000 A 
ATOM     25  C   UNL     1      -1.350  11.271  19.682  0.00  0.00    +0.000 A 
BRANCH  25  26
ATOM     26  C   UNL     1      -1.098  11.992  20.988  0.00  0.00    +0.000 C 
ATOM     27  O   UNL     1      -0.214  12.826  21.108  0.00  0.00    +0.000 OA
ATOM     28  N   UNL     1      -1.933  11.648  22.034  0.00  0.00    +0.000 N 
ATOM     29  H   UNL     1      -2.506  10.815  21.982  0.00  0.00    +0.000 HD
BRANCH  28  30
ATOM     30  C   UNL     1      -1.932  12.371  23.304  0.00  0.00    +0.000 C 
BRANCH  30  31
ATOM     31  C   UNL     1      -3.257  12.331  23.957  0.00  0.00    +0.000 C 
ATOM     32  N   UNL     1      -4.290  12.256  24.476  0.00  0.00    +0.000 NA
ENDBRANCH  30  31
ENDBRANCH  28  30
ENDBRANCH  25  26
BRANCH  23  33
ATOM     33  C   UNL     1      -4.056  11.459  17.095  0.00  0.00    +0.000 C 
ATOM     34  N   UNL     1      -5.014  11.800  16.534  0.00  0.00    +0.000 NA
ENDBRANCH  23  33
ENDBRANCH   9  20
BRANCH   1  36
ATOM     35  C   UNL     1       0.871   9.519  22.965  0.00  0.00    +0.000 C 
ATOM     36  C   UNL     1       0.205   8.836  21.790  0.00  0.00    +0.000 C 
ATOM     37  O   UNL     1      -0.941   8.408  21.909  0.00  0.00    +0.000 OA
ENDBRANCH   1  36
TORSDOF 8
ENDMDL
MODEL 5
REMARK VINA RESULT:      -7.4      1.119      1.318
REMARK  Name = 
REMARK  11 active torsions:
REMARK  status: ('A' for Active; 'I' for Inactive)
REMARK    1  A    between atoms: C_1  and  C_2
REMARK    2  A    between atoms: C_2  and  C_4
REMARK    3  A    between atoms: C_5  and  C_6
REMARK    4  A    between atoms: N_7  and  C_8
REMARK    5  A    between atoms: C_12  and  C_13
REMARK    6  A    between atoms: N_20  and  C_21
REMARK    7  A    between atoms: C_22  and  C_23
REMARK    8  A    between atoms: C_26  and  C_27
REMARK    9  A    between atoms: C_30  and  C_31
REMARK   10  A    between atoms: N_33  and  C_34
REMARK   11  A    between atoms: C_34  and  C_35
REMARK                            x       y       z     vdW  Elec       q    Type
REMARK                         _______ _______ _______ _____ _____    ______ ____
ROOT
ATOM      1  C   UNL     1       1.106   8.602  20.575  0.00  0.00    +0.000 C 
ATOM      2  C   UNL     1       1.573   7.415  20.112  0.00  0.00    +0.000 C 
ATOM      3  C   UNL     1       1.454   6.084  20.841  0.00  0.00    +0.000 C 
ATOM      4  N   UNL     1       2.284   7.380  18.898  0.00  0.00    +0.000 N 
ATOM      5  C   UNL     1       2.617   8.544  18.187  0.00  0.00    +0.000 C 
ATOM      6  O   UNL     1       3.431   8.548  17.258  0.00  0.00    +0.000 OA
ATOM      7  N   UNL     1       1.930   9.700  18.524  0.00  0.00    +0.000 N 
ATOM      8  C   UNL     1       2.152  10.869  17.676  0.00  0.00    +0.000 C 
ATOM      9  C   UNL     1       1.100   9.868  19.725  0.00  0.00    +0.000 C 
ENDROOT
BRANCH   4  10
ATOM     10  C   UNL     1       2.726   6.147  18.291  0.00  0.00    +0.000 A 
ATOM     11  C   UNL     1       1.789   5.158  17.962  0.00  0.00    +0.000 A 
ATOM     12  C   UNL     1       2.188   3.987  17.314  0.00  0.00    +0.000 A 
ATOM     13  C   UNL     1       3.529   3.791  16.987  0.00  0.00    +0.000 A 
ATOM     14  C   UNL     1       4.487   4.766  17.296  0.00  0.00    +0.000 A 
ATOM     15  C   UNL     1       4.074   5.945  17.949  0.00  0.00    +0.000 A 
BRANCH  14  16
ATOM     16  C   UNL     1       5.939   4.569  16.934  0.00  0.00    +0.000 C 
ATOM     17  F   UNL     1       6.140   3.560  16.034  0.00  0.00    +0.000 F 
ATOM     18  F   UNL     1       6.503   5.674  16.377  0.00  0.00    +0.000 F 
ATOM     19  F   UNL     1       6.707   4.256  18.013  0.00  0.00    +0.000 F 
ENDBRANCH  14  16
ENDBRANCH   4  10
BRANCH   9  20
ATOM     20  C   UNL     1      -0.337  10.304  19.330  0.00  0.00    +0.000 A 
ATOM     21  C   UNL     1      -1.030   9.478  18.406  0.00  0.00    +0.000 A 
ATOM     22  C   UNL     1      -2.261   9.841  17.863  0.00  0.00    +0.000 A 
ATOM     23  C   UNL     1      -2.823  11.067  18.187  0.00  0.00    +0.000 A 
ATOM     24  C   UNL     1      -2.182  11.893  19.111  0.00  0.00    +0.000 A 
ATOM     25  C   UNL     1      -0.982  11.508  19.735  0.00  0.00    +0.000 A 
BRANCH  25  26
ATOM     26  C   UNL     1      -0.435  12.470  20.765  0.00  0.00    +0.000 C 
ATOM     27  O   UNL     1       0.437  12.146  21.557  0.00  0.00    +0.000 OA
ATOM     28  N   UNL     1      -0.981  13.739  20.751  0.00  0.00    +0.000 N 
ATOM     29  H   UNL     1      -1.839  13.924  20.246  0.00  0.00    +0.000 HD
BRANCH  28  30
ATOM     30  C   UNL     1      -0.445  14.830  21.564  0.00  0.00    +0.000 C 
BRANCH  30  31
ATOM     31  C   UNL     1      -0.754  14.646  22.997  0.00  0.00    +0.000 C 
ATOM     32  N   UNL     1      -1.038  14.514  24.113  0.00  0.00    +0.000 NA
ENDBRANCH  30  31
ENDBRANCH  28  30
ENDBRANCH  25  26
BRANCH  23  33
ATOM     33  C   UNL     1      -4.027  11.502  17.550  0.00  0.00    +0.000 C 
ATOM     34  N   UNL     1      -5.005  11.870  17.040  0.00  0.00    +0.000 NA
ENDBRANCH  23  33
ENDBRANCH   9  20
BRANCH   1  36
ATOM     35  C   UNL     1       1.250   9.320  23.073  0.00  0.00    +0.000 C 
ATOM     36  C   UNL     1       0.446   8.744  21.928  0.00  0.00    +0.000 C 
ATOM     37  O   UNL     1      -0.724   8.414  22.115  0.00  0.00    +0.000 OA
ENDBRANCH   1  36
TORSDOF 8
ENDMDL
MODEL 6
REMARK VINA RESULT:      -7.4      2.290      2.956
REMARK  Name = 
REMARK  11 active torsions:
REMARK  status: ('A' for Active; 'I' for Inactive)
REMARK    1  A    between atoms: C_1  and  C_2
REMARK    2  A    between atoms: C_2  and  C_4
REMARK    3  A    between atoms: C_5  and  C_6
REMARK    4  A    between atoms: N_7  and  C_8
REMARK    5  A    between atoms: C_12  and  C_13
REMARK    6  A    between atoms: N_20  and  C_21
REMARK    7  A    between atoms: C_22  and  C_23
REMARK    8  A    between atoms: C_26  and  C_27
REMARK    9  A    between atoms: C_30  and  C_31
REMARK   10  A    between atoms: N_33  and  C_34
REMARK   11  A    between atoms: C_34  and  C_35
REMARK                            x       y       z     vdW  Elec       q    Type
REMARK                         _______ _______ _______ _____ _____    ______ ____
ROOT
ATOM      1  C   UNL     1       1.248   8.902  20.597  0.00  0.00    +0.000 C 
ATOM      2  C   UNL     1       1.720   7.713  20.144  0.00  0.00    +0.000 C 
ATOM      3  C   UNL     1       1.692   6.406  20.923  0.00  0.00    +0.000 C 
ATOM      4  N   UNL     1       2.348   7.656  18.886  0.00  0.00    +0.000 N 
ATOM      5  C   UNL     1       2.596   8.803  18.115  0.00  0.00    +0.000 C 
ATOM      6  O   UNL     1       3.345   8.798  17.134  0.00  0.00    +0.000 OA
ATOM      7  N   UNL     1       1.897   9.950  18.460  0.00  0.00    +0.000 N 
ATOM      8  C   UNL     1       2.025  11.094  17.560  0.00  0.00    +0.000 C 
ATOM      9  C   UNL     1       1.145  10.136  19.708  0.00  0.00    +0.000 C 
ENDROOT
BRANCH   4  10
ATOM     10  C   UNL     1       2.787   6.416  18.291  0.00  0.00    +0.000 A 
ATOM     11  C   UNL     1       3.958   6.389  17.522  0.00  0.00    +0.000 A 
ATOM     12  C   UNL     1       4.435   5.187  16.994  0.00  0.00    +0.000 A 
ATOM     13  C   UNL     1       3.748   3.998  17.229  0.00  0.00    +0.000 A 
ATOM     14  C   UNL     1       2.578   3.993  18.002  0.00  0.00    +0.000 A 
ATOM     15  C   UNL     1       2.106   5.211  18.532  0.00  0.00    +0.000 A 
BRANCH  14  16
ATOM     16  C   UNL     1       1.834   2.708  18.275  0.00  0.00    +0.000 C 
ATOM     17  F   UNL     1       2.125   2.162  19.493  0.00  0.00    +0.000 F 
ATOM     18  F   UNL     1       0.483   2.861  18.255  0.00  0.00    +0.000 F 
ATOM     19  F   UNL     1       2.118   1.739  17.363  0.00  0.00    +0.000 F 
ENDBRANCH  14  16
ENDBRANCH   4  10
BRANCH   9  20
ATOM     20  C   UNL     1      -0.328  10.516  19.398  0.00  0.00    +0.000 A 
ATOM     21  C   UNL     1      -1.013   9.717  18.445  0.00  0.00    +0.000 A 
ATOM     22  C   UNL     1      -2.283  10.045  17.974  0.00  0.00    +0.000 A 
ATOM     23  C   UNL     1      -2.896  11.213  18.403  0.00  0.00    +0.000 A 
ATOM     24  C   UNL     1      -2.263  12.009  19.358  0.00  0.00    +0.000 A 
ATOM     25  C   UNL     1      -1.020  11.652  19.909  0.00  0.00    +0.000 A 
BRANCH  25  26
ATOM     26  C   UNL     1      -0.483  12.572  20.983  0.00  0.00    +0.000 C 
ATOM     27  O   UNL     1      -0.605  12.321  22.172  0.00  0.00    +0.000 OA
ATOM     28  N   UNL     1       0.155  13.712  20.533  0.00  0.00    +0.000 N 
ATOM     29  H   UNL     1       0.057  14.010  19.570  0.00  0.00    +0.000 HD
BRANCH  28  30
ATOM     30  C   UNL     1       0.874  14.612  21.432  0.00  0.00    +0.000 C 
BRANCH  30  31
ATOM     31  C   UNL     1       2.310  14.270  21.513  0.00  0.00    +0.000 C 
ATOM     32  N   UNL     1       3.442  14.038  21.603  0.00  0.00    +0.000 NA
ENDBRANCH  30  31
ENDBRANCH  28  30
ENDBRANCH  25  26
BRANCH  23  33
ATOM     33  C   UNL     1      -4.147  11.621  17.844  0.00  0.00    +0.000 C 
ATOM     34  N   UNL     1      -5.156  11.962  17.378  0.00  0.00    +0.000 NA
ENDBRANCH  23  33
ENDBRANCH   9  20
BRANCH   1  36
ATOM     35  C   UNL     1      -0.744   8.622  22.251  0.00  0.00    +0.000 C 
ATOM     36  C   UNL     1       0.676   9.072  21.987  0.00  0.00    +0.000 C 
ATOM     37  O   UNL     1       1.339   9.554  22.904  0.00  0.00    +0.000 OA
ENDBRANCH   1  36
TORSDOF 8
ENDMDL
MODEL 7
REMARK VINA RESULT:      -7.2      2.088      2.532
REMARK  Name = 
REMARK  11 active torsions:
REMARK  status: ('A' for Active; 'I' for Inactive)
REMARK    1  A    between atoms: C_1  and  C_2
REMARK    2  A    between atoms: C_2  and  C_4
REMARK    3  A    between atoms: C_5  and  C_6
REMARK    4  A    between atoms: N_7  and  C_8
REMARK    5  A    between atoms: C_12  and  C_13
REMARK    6  A    between atoms: N_20  and  C_21
REMARK    7  A    between atoms: C_22  and  C_23
REMARK    8  A    between atoms: C_26  and  C_27
REMARK    9  A    between atoms: C_30  and  C_31
REMARK   10  A    between atoms: N_33  and  C_34
REMARK   11  A    between atoms: C_34  and  C_35
REMARK                            x       y       z     vdW  Elec       q    Type
REMARK                         _______ _______ _______ _____ _____    ______ ____
ROOT
ATOM      1  C   UNL     1       0.970   8.723  20.547  0.00  0.00    +0.000 C 
ATOM      2  C   UNL     1       1.517   7.570  20.086  0.00  0.00    +0.000 C 
ATOM      3  C   UNL     1       1.442   6.223  20.791  0.00  0.00    +0.000 C 
ATOM      4  N   UNL     1       2.274   7.592  18.899  0.00  0.00    +0.000 N 
ATOM      5  C   UNL     1       2.570   8.784  18.218  0.00  0.00    +0.000 C 
ATOM      6  O   UNL     1       3.417   8.845  17.321  0.00  0.00    +0.000 OA
ATOM      7  N   UNL     1       1.809   9.896  18.544  0.00  0.00    +0.000 N 
ATOM      8  C   UNL     1       2.001  11.088  17.722  0.00  0.00    +0.000 C 
ATOM      9  C   UNL     1       0.928  10.001  19.715  0.00  0.00    +0.000 C 
ENDROOT
BRANCH   4  10
ATOM     10  C   UNL     1       2.804   6.394  18.292  0.00  0.00    +0.000 A 
ATOM     11  C   UNL     1       4.004   6.452  17.572  0.00  0.00    +0.000 A 
ATOM     12  C   UNL     1       4.568   5.293  17.034  0.00  0.00    +0.000 A 
ATOM     13  C   UNL     1       3.938   4.062  17.210  0.00  0.00    +0.000 A 
ATOM     14  C   UNL     1       2.741   3.973  17.934  0.00  0.00    +0.000 A 
ATOM     15  C   UNL     1       2.181   5.148  18.474  0.00  0.00    +0.000 A 
BRANCH  14  16
ATOM     16  C   UNL     1       2.058   2.643  18.142  0.00  0.00    +0.000 C 
ATOM     17  F   UNL     1       0.699   2.742  18.245  0.00  0.00    +0.000 F 
ATOM     18  F   UNL     1       2.286   1.763  17.131  0.00  0.00    +0.000 F 
ATOM     19  F   UNL     1       2.466   2.021  19.282  0.00  0.00    +0.000 F 
ENDBRANCH  14  16
ENDBRANCH   4  10
BRANCH   9  20
ATOM     20  C   UNL     1      -0.514  10.366  19.272  0.00  0.00    +0.000 A 
ATOM     21  C   UNL     1      -1.055   9.643  18.175  0.00  0.00    +0.000 A 
ATOM     22  C   UNL     1      -2.275   9.979  17.592  0.00  0.00    +0.000 A 
ATOM     23  C   UNL     1      -2.979  11.082  18.054  0.00  0.00    +0.000 A 
ATOM     24  C   UNL     1      -2.490  11.799  19.146  0.00  0.00    +0.000 A 
ATOM     25  C   UNL     1      -1.304  11.426  19.802  0.00  0.00    +0.000 A 
BRANCH  25  26
ATOM     26  C   UNL     1      -0.930  12.253  21.012  0.00  0.00    +0.000 C 
ATOM     27  O   UNL     1      -1.344  11.989  22.130  0.00  0.00    +0.000 OA
ATOM     28  N   UNL     1      -0.089  13.323  20.771  0.00  0.00    +0.000 N 
ATOM     29  H   UNL     1       0.066  13.653  19.827  0.00  0.00    +0.000 HD
BRANCH  28  30
ATOM     30  C   UNL     1       0.499  14.112  21.852  0.00  0.00    +0.000 C 
BRANCH  30  31
ATOM     31  C   UNL     1      -0.201  15.401  22.030  0.00  0.00    +0.000 C 
ATOM     32  N   UNL     1      -0.730  16.417  22.209  0.00  0.00    +0.000 NA
ENDBRANCH  30  31
ENDBRANCH  28  30
ENDBRANCH  25  26
BRANCH  23  33
ATOM     33  C   UNL     1      -4.173  11.506  17.392  0.00  0.00    +0.000 C 
ATOM     34  N   UNL     1      -5.149  11.859  16.867  0.00  0.00    +0.000 NA
ENDBRANCH  23  33
ENDBRANCH   9  20
BRANCH   1  36
ATOM     35  C   UNL     1       0.944   9.496  23.033  0.00  0.00    +0.000 C 
ATOM     36  C   UNL     1       0.254   8.808  21.876  0.00  0.00    +0.000 C 
ATOM     37  O   UNL     1      -0.875   8.344  22.033  0.00  0.00    +0.000 OA
ENDBRANCH   1  36
TORSDOF 8
ENDMDL
MODEL 8
REMARK VINA RESULT:      -6.9      5.438      9.499
REMARK  Name = 
REMARK  11 active torsions:
REMARK  status: ('A' for Active; 'I' for Inactive)
REMARK    1  A    between atoms: C_1  and  C_2
REMARK    2  A    between atoms: C_2  and  C_4
REMARK    3  A    between atoms: C_5  and  C_6
REMARK    4  A    between atoms: N_7  and  C_8
REMARK    5  A    between atoms: C_12  and  C_13
REMARK    6  A    between atoms: N_20  and  C_21
REMARK    7  A    between atoms: C_22  and  C_23
REMARK    8  A    between atoms: C_26  and  C_27
REMARK    9  A    between atoms: C_30  and  C_31
REMARK   10  A    between atoms: N_33  and  C_34
REMARK   11  A    between atoms: C_34  and  C_35
REMARK                            x       y       z     vdW  Elec       q    Type
REMARK                         _______ _______ _______ _____ _____    ______ ____
ROOT
ATOM      1  C   UNL     1       0.440  13.192  20.452  0.00  0.00    +0.000 C 
ATOM      2  C   UNL     1      -0.228  13.948  21.359  0.00  0.00    +0.000 C 
ATOM      3  C   UNL     1      -0.212  15.470  21.412  0.00  0.00    +0.000 C 
ATOM      4  N   UNL     1      -0.953  13.314  22.385  0.00  0.00    +0.000 N 
ATOM      5  C   UNL     1      -0.935  11.922  22.570  0.00  0.00    +0.000 C 
ATOM      6  O   UNL     1      -1.368  11.380  23.591  0.00  0.00    +0.000 OA
ATOM      7  N   UNL     1      -0.471  11.157  21.510  0.00  0.00    +0.000 N 
ATOM      8  C   UNL     1      -0.609   9.708  21.635  0.00  0.00    +0.000 C 
ATOM      9  C   UNL     1       0.249  11.683  20.342  0.00  0.00    +0.000 C 
ENDROOT
BRANCH   4  10
ATOM     10  C   UNL     1      -1.768  14.044  23.327  0.00  0.00    +0.000 A 
ATOM     11  C   UNL     1      -1.167  14.679  24.422  0.00  0.00    +0.000 A 
ATOM     12  C   UNL     1      -1.929  15.445  25.307  0.00  0.00    +0.000 A 
ATOM     13  C   UNL     1      -3.301  15.586  25.107  0.00  0.00    +0.000 A 
ATOM     14  C   UNL     1      -3.929  14.968  24.016  0.00  0.00    +0.000 A 
ATOM     15  C   UNL     1      -3.150  14.198  23.128  0.00  0.00    +0.000 A 
BRANCH  14  16
ATOM     16  C   UNL     1      -5.412  15.125  23.783  0.00  0.00    +0.000 C 
ATOM     17  F   UNL     1      -5.967  16.146  24.502  0.00  0.00    +0.000 F 
ATOM     18  F   UNL     1      -5.723  15.381  22.484  0.00  0.00    +0.000 F 
ATOM     19  F   UNL     1      -6.114  14.011  24.127  0.00  0.00    +0.000 F 
ENDBRANCH  14  16
ENDBRANCH   4  10
BRANCH   9  20
ATOM     20  C   UNL     1      -0.481  11.278  19.033  0.00  0.00    +0.000 A 
ATOM     21  C   UNL     1      -1.713  11.928  18.753  0.00  0.00    +0.000 A 
ATOM     22  C   UNL     1      -2.531  11.545  17.692  0.00  0.00    +0.000 A 
ATOM     23  C   UNL     1      -2.171  10.466  16.899  0.00  0.00    +0.000 A 
ATOM     24  C   UNL     1      -0.956   9.820  17.129  0.00  0.00    +0.000 A 
ATOM     25  C   UNL     1      -0.076  10.244  18.141  0.00  0.00    +0.000 A 
BRANCH  25  26
ATOM     26  C   UNL     1       1.234   9.495  18.233  0.00  0.00    +0.000 C 
ATOM     27  O   UNL     1       2.245   9.886  17.669  0.00  0.00    +0.000 OA
ATOM     28  N   UNL     1       1.216   8.344  18.997  0.00  0.00    +0.000 N 
ATOM     29  H   UNL     1       0.337   7.923  19.272  0.00  0.00    +0.000 HD
BRANCH  28  30
ATOM     30  C   UNL     1       2.433   7.604  19.324  0.00  0.00    +0.000 C 
BRANCH  30  31
ATOM     31  C   UNL     1       2.530   6.345  18.556  0.00  0.00    +0.000 C 
ATOM     32  N   UNL     1       2.563   5.362  17.944  0.00  0.00    +0.000 NA
ENDBRANCH  30  31
ENDBRANCH  28  30
ENDBRANCH  25  26
BRANCH  23  33
ATOM     33  C   UNL     1      -3.055   9.991  15.880  0.00  0.00    +0.000 C 
ATOM     34  N   UNL     1      -3.786   9.611  15.060  0.00  0.00    +0.000 NA
ENDBRANCH  23  33
ENDBRANCH   9  20
BRANCH   1  36
ATOM     35  C   UNL     1       2.842  13.671  19.568  0.00  0.00    +0.000 C 
ATOM     36  C   UNL     1       1.343  13.794  19.399  0.00  0.00    +0.000 C 
ATOM     37  O   UNL     1       0.890  14.368  18.411  0.00  0.00    +0.000 OA
ENDBRANCH   1  36
TORSDOF 8
ENDMDL
MODEL 9
REMARK VINA RESULT:      -6.8      5.533      9.654
REMARK  Name = 
REMARK  11 active torsions:
REMARK  status: ('A' for Active; 'I' for Inactive)
REMARK    1  A    between atoms: C_1  and  C_2
REMARK    2  A    between atoms: C_2  and  C_4
REMARK    3  A    between atoms: C_5  and  C_6
REMARK    4  A    between atoms: N_7  and  C_8
REMARK    5  A    between atoms: C_12  and  C_13
REMARK    6  A    between atoms: N_20  and  C_21
REMARK    7  A    between atoms: C_22  and  C_23
REMARK    8  A    between atoms: C_26  and  C_27
REMARK    9  A    between atoms: C_30  and  C_31
REMARK   10  A    between atoms: N_33  and  C_34
REMARK   11  A    between atoms: C_34  and  C_35
REMARK                            x       y       z     vdW  Elec       q    Type
REMARK                         _______ _______ _______ _____ _____    ______ ____
ROOT
ATOM      1  C   UNL     1       0.538  13.267  20.737  0.00  0.00    +0.000 C 
ATOM      2  C   UNL     1      -0.172  14.081  21.558  0.00  0.00    +0.000 C 
ATOM      3  C   UNL     1      -0.109  15.602  21.551  0.00  0.00    +0.000 C 
ATOM      4  N   UNL     1      -0.995  13.513  22.549  0.00  0.00    +0.000 N 
ATOM      5  C   UNL     1      -1.038  12.130  22.789  0.00  0.00    +0.000 C 
ATOM      6  O   UNL     1      -1.566  11.645  23.794  0.00  0.00    +0.000 OA
ATOM      7  N   UNL     1      -0.520  11.308  21.800  0.00  0.00    +0.000 N 
ATOM      8  C   UNL     1      -0.716   9.870  21.972  0.00  0.00    +0.000 C 
ATOM      9  C   UNL     1       0.305  11.761  20.672  0.00  0.00    +0.000 C 
ENDROOT
BRANCH   4  10
ATOM     10  C   UNL     1      -1.855  14.307  23.394  0.00  0.00    +0.000 A 
ATOM     11  C   UNL     1      -1.338  14.895  24.556  0.00  0.00    +0.000 A 
ATOM     12  C   UNL     1      -2.136  15.720  25.352  0.00  0.00    +0.000 A 
ATOM     13  C   UNL     1      -3.460  15.968  24.994  0.00  0.00    +0.000 A 
ATOM     14  C   UNL     1      -4.002  15.400  23.832  0.00  0.00    +0.000 A 
ATOM     15  C   UNL     1      -3.188  14.569  23.036  0.00  0.00    +0.000 A 
BRANCH  14  16
ATOM     16  C   UNL     1      -5.430  15.673  23.429  0.00  0.00    +0.000 C 
ATOM     17  F   UNL     1      -6.060  14.584  22.894  0.00  0.00    +0.000 F 
ATOM     18  F   UNL     1      -6.211  16.071  24.470  0.00  0.00    +0.000 F 
ATOM     19  F   UNL     1      -5.528  16.651  22.488  0.00  0.00    +0.000 F 
ENDBRANCH  14  16
ENDBRANCH   4  10
BRANCH   9  20
ATOM     20  C   UNL     1      -0.336  11.324  19.327  0.00  0.00    +0.000 A 
ATOM     21  C   UNL     1      -1.459  12.067  18.875  0.00  0.00    +0.000 A 
ATOM     22  C   UNL     1      -2.207  11.681  17.765  0.00  0.00    +0.000 A 
ATOM     23  C   UNL     1      -1.891  10.509  17.094  0.00  0.00    +0.000 A 
ATOM     24  C   UNL     1      -0.780   9.768  17.495  0.00  0.00    +0.000 A 
ATOM     25  C   UNL     1       0.040  10.184  18.559  0.00  0.00    +0.000 A 
BRANCH  25  26
ATOM     26  C   UNL     1       1.248   9.320  18.840  0.00  0.00    +0.000 C 
ATOM     27  O   UNL     1       1.535   8.956  19.971  0.00  0.00    +0.000 OA
ATOM     28  N   UNL     1       2.003   8.966  17.738  0.00  0.00    +0.000 N 
ATOM     29  H   UNL     1       1.880   9.446  16.855  0.00  0.00    +0.000 HD
BRANCH  28  30
ATOM     30  C   UNL     1       3.097   8.000  17.818  0.00  0.00    +0.000 C 
BRANCH  30  31
ATOM     31  C   UNL     1       2.597   6.625  18.031  0.00  0.00    +0.000 C 
ATOM     32  N   UNL     1       2.241   5.532  18.175  0.00  0.00    +0.000 NA
ENDBRANCH  30  31
ENDBRANCH  28  30
ENDBRANCH  25  26
BRANCH  23  33
ATOM     33  C   UNL     1      -2.719  10.042  16.026  0.00  0.00    +0.000 C 
ATOM     34  N   UNL     1      -3.403   9.673  15.160  0.00  0.00    +0.000 NA
ENDBRANCH  23  33
ENDBRANCH   9  20
BRANCH   1  36
ATOM     35  C   UNL     1       3.009  13.779  20.094  0.00  0.00    +0.000 C 
ATOM     36  C   UNL     1       1.539  13.797  19.734  0.00  0.00    +0.000 C 
ATOM     37  O   UNL     1       1.189  14.227  18.637  0.00  0.00    +0.000 OA
ENDBRANCH   1  36
TORSDOF 8
ENDMDL
