MODEL 1
REMARK VINA RESULT:      -8.1      0.000      0.000
REMARK  Name = 
REMARK  4 active torsions:
REMARK  status: ('A' for Active; 'I' for Inactive)
REMARK    1  A    between atoms: C_1  and  C_2
REMARK    2  A    between atoms: C_5  and  C_6
REMARK    3  A    between atoms: C_6  and  N_7
REMARK    4  A    between atoms: C_8  and  C_10
REMARK                            x       y       z     vdW  Elec       q    Type
REMARK                         _______ _______ _______ _____ _____    ______ ____
ROOT
ATOM      1  C   UNL     1       2.149   7.268  19.674  0.00  0.00    +0.000 A 
ATOM      2  C   UNL     1       2.139   5.940  20.049  0.00  0.00    +0.000 A 
ATOM      3  C   UNL     1       2.904   5.100  19.164  0.00  0.00    +0.000 A 
ATOM      4  C   UNL     1       3.515   5.836  18.164  0.00  0.00    +0.000 A 
ATOM      5  S   UNL     1       3.116   7.488  18.285  0.00  0.00    +0.000 S 
ATOM      6  C   UNL     1       4.379   5.317  17.093  0.00  0.00    +0.000 A 
ATOM      7  C   UNL     1       4.954   6.161  16.119  0.00  0.00    +0.000 A 
ATOM      8  C   UNL     1       5.764   5.653  15.101  0.00  0.00    +0.000 A 
ATOM      9  C   UNL     1       6.017   4.290  15.036  0.00  0.00    +0.000 A 
ATOM     10  C   UNL     1       5.464   3.442  15.993  0.00  0.00    +0.000 A 
ATOM     11  C   UNL     1       4.651   3.942  17.027  0.00  0.00    +0.000 A 
ATOM     12  S   UNL     1       4.069   2.713  18.191  0.00  0.00    +0.000 S 
ATOM     13  C   UNL     1       2.978   3.621  19.316  0.00  0.00    +0.000 C 
ENDROOT
BRANCH   1  15
ATOM     14  N   UNL     1       1.083   9.379  19.388  0.00  0.00    +0.000 N 
ATOM     15  C   UNL     1       1.480   8.414  20.280  0.00  0.00    +0.000 C 
ATOM     16  O   UNL     1       1.273   8.509  21.496  0.00  0.00    +0.000 OA
ATOM     17  H   UNL     1       1.007   9.075  18.420  0.00  0.00    +0.000 HD
BRANCH  14  18
ATOM     18  C   UNL     1       0.396  10.564  19.814  0.00  0.00    +0.000 C 
BRANCH  18  23
ATOM     19  C   UNL     1      -4.647  11.414  16.987  0.00  0.00    +0.000 C 
ATOM     20  C   UNL     1      -3.341  11.207  17.689  0.00  0.00    +0.000 A 
ATOM     21  C   UNL     1      -2.377  10.314  17.207  0.00  0.00    +0.000 A 
ATOM     22  C   UNL     1      -1.174  10.130  17.898  0.00  0.00    +0.000 A 
ATOM     23  C   UNL     1      -0.899  10.832  19.081  0.00  0.00    +0.000 A 
ATOM     24  C   UNL     1      -1.871  11.725  19.557  0.00  0.00    +0.000 A 
ATOM     25  C   UNL     1      -3.076  11.909  18.866  0.00  0.00    +0.000 A 
ENDBRANCH  18  23
ENDBRANCH  14  18
ENDBRANCH   1  15
TORSDOF 3
ENDMDL
MODEL 2
REMARK VINA RESULT:      -8.0      1.710      3.268
REMARK  Name = 
REMARK  4 active torsions:
REMARK  status: ('A' for Active; 'I' for Inactive)
REMARK    1  A    between atoms: C_1  and  C_2
REMARK    2  A    between atoms: C_5  and  C_6
REMARK    3  A    between atoms: C_6  and  N_7
REMARK    4  A    between atoms: C_8  and  C_10
REMARK                            x       y       z     vdW  Elec       q    Type
REMARK                         _______ _______ _______ _____ _____    ______ ____
ROOT
ATOM      1  C   UNL     1       2.327   8.424  18.336  0.00  0.00    +0.000 A 
ATOM      2  C   UNL     1       3.201   7.751  17.508  0.00  0.00    +0.000 A 
ATOM      3  C   UNL     1       3.500   6.420  17.969  0.00  0.00    +0.000 A 
ATOM      4  C   UNL     1       2.795   6.109  19.120  0.00  0.00    +0.000 A 
ATOM      5  S   UNL     1       1.847   7.426  19.634  0.00  0.00    +0.000 S 
ATOM      6  C   UNL     1       2.841   4.841  19.863  0.00  0.00    +0.000 A 
ATOM      7  C   UNL     1       2.077   4.629  21.030  0.00  0.00    +0.000 A 
ATOM      8  C   UNL     1       2.138   3.424  21.732  0.00  0.00    +0.000 A 
ATOM      9  C   UNL     1       2.963   2.403  21.282  0.00  0.00    +0.000 A 
ATOM     10  C   UNL     1       3.719   2.591  20.127  0.00  0.00    +0.000 A 
ATOM     11  C   UNL     1       3.662   3.799  19.407  0.00  0.00    +0.000 A 
ATOM     12  S   UNL     1       4.664   3.842  17.924  0.00  0.00    +0.000 S 
ATOM     13  C   UNL     1       4.477   5.527  17.288  0.00  0.00    +0.000 C 
ENDROOT
BRANCH   1  15
ATOM     14  N   UNL     1       0.667  10.014  18.965  0.00  0.00    +0.000 N 
ATOM     15  C   UNL     1       1.809   9.785  18.236  0.00  0.00    +0.000 C 
ATOM     16  O   UNL     1       2.355  10.667  17.564  0.00  0.00    +0.000 OA
ATOM     17  H   UNL     1       0.484   9.349  19.713  0.00  0.00    +0.000 HD
BRANCH  14  18
ATOM     18  C   UNL     1       0.036  11.301  18.992  0.00  0.00    +0.000 C 
BRANCH  18  23
ATOM     19  C   UNL     1      -5.683  11.026  17.821  0.00  0.00    +0.000 C 
ATOM     20  C   UNL     1      -4.213  11.104  18.094  0.00  0.00    +0.000 A 
ATOM     21  C   UNL     1      -3.298  10.253  17.463  0.00  0.00    +0.000 A 
ATOM     22  C   UNL     1      -1.933  10.340  17.756  0.00  0.00    +0.000 A 
ATOM     23  C   UNL     1      -1.443  11.278  18.677  0.00  0.00    +0.000 A 
ATOM     24  C   UNL     1      -2.367  12.128  19.304  0.00  0.00    +0.000 A 
ATOM     25  C   UNL     1      -3.734  12.040  19.013  0.00  0.00    +0.000 A 
ENDBRANCH  18  23
ENDBRANCH  14  18
ENDBRANCH   1  15
TORSDOF 3
ENDMDL
MODEL 3
REMARK VINA RESULT:      -8.0      0.581      1.135
REMARK  Name = 
REMARK  4 active torsions:
REMARK  status: ('A' for Active; 'I' for Inactive)
REMARK    1  A    between atoms: C_1  and  C_2
REMARK    2  A    between atoms: C_5  and  C_6
REMARK    3  A    between atoms: C_6  and  N_7
REMARK    4  A    between atoms: C_8  and  C_10
REMARK                            x       y       z     vdW  Elec       q    Type
REMARK                         _______ _______ _______ _____ _____    ______ ____
ROOT
ATOM      1  C   UNL     1       2.067   7.777  19.337  0.00  0.00    +0.000 A 
ATOM      2  C   UNL     1       2.122   6.536  19.936  0.00  0.00    +0.000 A 
ATOM      3  C   UNL     1       2.929   5.594  19.203  0.00  0.00    +0.000 A 
ATOM      4  C   UNL     1       3.503   6.175  18.086  0.00  0.00    +0.000 A 
ATOM      5  S   UNL     1       3.022   7.801  17.923  0.00  0.00    +0.000 S 
ATOM      6  C   UNL     1       4.392   5.522  17.114  0.00  0.00    +0.000 A 
ATOM      7  C   UNL     1       4.925   6.212  16.005  0.00  0.00    +0.000 A 
ATOM      8  C   UNL     1       5.760   5.577  15.083  0.00  0.00    +0.000 A 
ATOM      9  C   UNL     1       6.081   4.237  15.252  0.00  0.00    +0.000 A 
ATOM     10  C   UNL     1       5.571   3.541  16.345  0.00  0.00    +0.000 A 
ATOM     11  C   UNL     1       4.733   4.171  17.284  0.00  0.00    +0.000 A 
ATOM     12  S   UNL     1       4.212   3.135  18.647  0.00  0.00    +0.000 S 
ATOM     13  C   UNL     1       3.077   4.168  19.608  0.00  0.00    +0.000 C 
ENDROOT
BRANCH   1  15
ATOM     14  N   UNL     1       1.132   9.883  18.732  0.00  0.00    +0.000 N 
ATOM     15  C   UNL     1       1.341   8.977  19.742  0.00  0.00    +0.000 C 
ATOM     16  O   UNL     1       0.933   9.161  20.895  0.00  0.00    +0.000 OA
ATOM     17  H   UNL     1       1.212   9.513  17.788  0.00  0.00    +0.000 HD
BRANCH  14  18
ATOM     18  C   UNL     1       0.420  11.108  18.955  0.00  0.00    +0.000 C 
BRANCH  18  23
ATOM     19  C   UNL     1      -5.267  11.043  17.611  0.00  0.00    +0.000 C 
ATOM     20  C   UNL     1      -3.816  11.052  17.982  0.00  0.00    +0.000 A 
ATOM     21  C   UNL     1      -3.302  11.944  18.930  0.00  0.00    +0.000 A 
ATOM     22  C   UNL     1      -1.938  11.938  19.240  0.00  0.00    +0.000 A 
ATOM     23  C   UNL     1      -1.053  11.044  18.619  0.00  0.00    +0.000 A 
ATOM     24  C   UNL     1      -1.578  10.152  17.671  0.00  0.00    +0.000 A 
ATOM     25  C   UNL     1      -2.943  10.158  17.359  0.00  0.00    +0.000 A 
ENDBRANCH  18  23
ENDBRANCH  14  18
ENDBRANCH   1  15
TORSDOF 3
ENDMDL
MODEL 4
REMARK VINA RESULT:      -8.0      2.955      8.885
REMARK  Name = 
REMARK  4 active torsions:
REMARK  status: ('A' for Active; 'I' for Inactive)
REMARK    1  A    between atoms: C_1  and  C_2
REMARK    2  A    between atoms: C_5  and  C_6
REMARK    3  A    between atoms: C_6  and  N_7
REMARK    4  A    between atoms: C_8  and  C_10
REMARK                            x       y       z     vdW  Elec       q    Type
REMARK                         _______ _______ _______ _____ _____    ______ ____
ROOT
ATOM      1  C   UNL     1       2.425   7.062  19.000  0.00  0.00    +0.000 A 
ATOM      2  C   UNL     1       2.308   8.200  18.229  0.00  0.00    +0.000 A 
ATOM      3  C   UNL     1       1.557   9.243  18.878  0.00  0.00    +0.000 A 
ATOM      4  C   UNL     1       1.168   8.874  20.154  0.00  0.00    +0.000 A 
ATOM      5  S   UNL     1       1.665   7.285  20.512  0.00  0.00    +0.000 S 
ATOM      6  C   UNL     1       0.399   9.687  21.109  0.00  0.00    +0.000 A 
ATOM      7  C   UNL     1       0.055   9.209  22.391  0.00  0.00    +0.000 A 
ATOM      8  C   UNL     1      -0.684   9.987  23.285  0.00  0.00    +0.000 A 
ATOM      9  C   UNL     1      -1.094  11.261  22.915  0.00  0.00    +0.000 A 
ATOM     10  C   UNL     1      -0.757  11.753  21.656  0.00  0.00    +0.000 A 
ATOM     11  C   UNL     1      -0.007  10.980  20.749  0.00  0.00    +0.000 A 
ATOM     12  S   UNL     1       0.372  11.792  19.200  0.00  0.00    +0.000 S 
ATOM     13  C   UNL     1       1.229  10.536  18.216  0.00  0.00    +0.000 C 
ENDROOT
BRANCH   1  15
ATOM     14  N   UNL     1       4.445   5.833  18.707  0.00  0.00    +0.000 N 
ATOM     15  C   UNL     1       3.073   5.790  18.695  0.00  0.00    +0.000 C 
ATOM     16  O   UNL     1       2.443   4.753  18.456  0.00  0.00    +0.000 OA
ATOM     17  H   UNL     1       4.854   6.615  19.213  0.00  0.00    +0.000 HD
BRANCH  14  18
ATOM     18  C   UNL     1       5.238   4.667  18.445  0.00  0.00    +0.000 C 
BRANCH  18  23
ATOM     19  C   UNL     1       7.022   4.356  12.888  0.00  0.00    +0.000 C 
ATOM     20  C   UNL     1       6.563   4.407  14.313  0.00  0.00    +0.000 A 
ATOM     21  C   UNL     1       5.294   3.959  14.697  0.00  0.00    +0.000 A 
ATOM     22  C   UNL     1       4.890   4.038  16.034  0.00  0.00    +0.000 A 
ATOM     23  C   UNL     1       5.739   4.561  17.021  0.00  0.00    +0.000 A 
ATOM     24  C   UNL     1       7.009   5.007  16.628  0.00  0.00    +0.000 A 
ATOM     25  C   UNL     1       7.414   4.929  15.289  0.00  0.00    +0.000 A 
ENDBRANCH  18  23
ENDBRANCH  14  18
ENDBRANCH   1  15
TORSDOF 3
ENDMDL
MODEL 5
REMARK VINA RESULT:      -8.0      2.907      8.896
REMARK  Name = 
REMARK  4 active torsions:
REMARK  status: ('A' for Active; 'I' for Inactive)
REMARK    1  A    between atoms: C_1  and  C_2
REMARK    2  A    between atoms: C_5  and  C_6
REMARK    3  A    between atoms: C_6  and  N_7
REMARK    4  A    between atoms: C_8  and  C_10
REMARK                            x       y       z     vdW  Elec       q    Type
REMARK                         _______ _______ _______ _____ _____    ______ ____
ROOT
ATOM      1  C   UNL     1       2.504   7.088  19.061  0.00  0.00    +0.000 A 
ATOM      2  C   UNL     1       2.298   8.186  18.251  0.00  0.00    +0.000 A 
ATOM      3  C   UNL     1       1.496   9.205  18.879  0.00  0.00    +0.000 A 
ATOM      4  C   UNL     1       1.159   8.861  20.177  0.00  0.00    +0.000 A 
ATOM      5  S   UNL     1       1.763   7.321  20.581  0.00  0.00    +0.000 S 
ATOM      6  C   UNL     1       0.361   9.660  21.119  0.00  0.00    +0.000 A 
ATOM      7  C   UNL     1       0.075   9.211  22.426  0.00  0.00    +0.000 A 
ATOM      8  C   UNL     1      -0.692   9.976  23.308  0.00  0.00    +0.000 A 
ATOM      9  C   UNL     1      -1.190  11.205  22.901  0.00  0.00    +0.000 A 
ATOM     10  C   UNL     1      -0.912  11.669  21.617  0.00  0.00    +0.000 A 
ATOM     11  C   UNL     1      -0.135  10.911  20.722  0.00  0.00    +0.000 A 
ATOM     12  S   UNL     1       0.159  11.685  19.135  0.00  0.00    +0.000 S 
ATOM     13  C   UNL     1       1.072  10.448  18.178  0.00  0.00    +0.000 C 
ENDROOT
BRANCH   1  15
ATOM     14  N   UNL     1       4.565   6.013  18.543  0.00  0.00    +0.000 N 
ATOM     15  C   UNL     1       3.224   5.849  18.787  0.00  0.00    +0.000 C 
ATOM     16  O   UNL     1       2.679   4.739  18.786  0.00  0.00    +0.000 OA
ATOM     17  H   UNL     1       4.967   6.887  18.875  0.00  0.00    +0.000 HD
BRANCH  14  18
ATOM     18  C   UNL     1       5.424   4.896  18.273  0.00  0.00    +0.000 C 
BRANCH  18  23
ATOM     19  C   UNL     1       6.770   3.988  12.660  0.00  0.00    +0.000 C 
ATOM     20  C   UNL     1       6.427   4.249  14.094  0.00  0.00    +0.000 A 
ATOM     21  C   UNL     1       7.331   4.860  14.970  0.00  0.00    +0.000 A 
ATOM     22  C   UNL     1       6.985   5.072  16.309  0.00  0.00    +0.000 A 
ATOM     23  C   UNL     1       5.732   4.686  16.807  0.00  0.00    +0.000 A 
ATOM     24  C   UNL     1       4.832   4.075  15.922  0.00  0.00    +0.000 A 
ATOM     25  C   UNL     1       5.178   3.861  14.581  0.00  0.00    +0.000 A 
ENDBRANCH  18  23
ENDBRANCH  14  18
ENDBRANCH   1  15
TORSDOF 3
ENDMDL
MODEL 6
REMARK VINA RESULT:      -7.8      2.214      4.006
REMARK  Name = 
REMARK  4 active torsions:
REMARK  status: ('A' for Active; 'I' for Inactive)
REMARK    1  A    between atoms: C_1  and  C_2
REMARK    2  A    between atoms: C_5  and  C_6
REMARK    3  A    between atoms: C_6  and  N_7
REMARK    4  A    between atoms: C_8  and  C_10
REMARK                            x       y       z     vdW  Elec       q    Type
REMARK                         _______ _______ _______ _____ _____    ______ ____
ROOT
ATOM      1  C   UNL     1       2.299   8.548  18.378  0.00  0.00    +0.000 A 
ATOM      2  C   UNL     1       3.121   7.861  17.508  0.00  0.00    +0.000 A 
ATOM      3  C   UNL     1       3.399   6.516  17.943  0.00  0.00    +0.000 A 
ATOM      4  C   UNL     1       2.732   6.212  19.117  0.00  0.00    +0.000 A 
ATOM      5  S   UNL     1       1.842   7.549  19.684  0.00  0.00    +0.000 S 
ATOM      6  C   UNL     1       2.771   4.934  19.844  0.00  0.00    +0.000 A 
ATOM      7  C   UNL     1       2.048   4.730  21.039  0.00  0.00    +0.000 A 
ATOM      8  C   UNL     1       2.102   3.514  21.725  0.00  0.00    +0.000 A 
ATOM      9  C   UNL     1       2.880   2.477  21.230  0.00  0.00    +0.000 A 
ATOM     10  C   UNL     1       3.595   2.657  20.048  0.00  0.00    +0.000 A 
ATOM     11  C   UNL     1       3.544   3.874  19.345  0.00  0.00    +0.000 A 
ATOM     12  S   UNL     1       4.487   3.907  17.824  0.00  0.00    +0.000 S 
ATOM     13  C   UNL     1       4.324   5.605  17.214  0.00  0.00    +0.000 C 
ENDROOT
BRANCH   1  15
ATOM     14  N   UNL     1       0.731  10.184  19.113  0.00  0.00    +0.000 N 
ATOM     15  C   UNL     1       1.816   9.924  18.314  0.00  0.00    +0.000 C 
ATOM     16  O   UNL     1       2.345  10.792  17.609  0.00  0.00    +0.000 OA
ATOM     17  H   UNL     1       0.576   9.522  19.870  0.00  0.00    +0.000 HD
BRANCH  14  18
ATOM     18  C   UNL     1       0.141  11.489  19.183  0.00  0.00    +0.000 C 
BRANCH  18  23
ATOM     19  C   UNL     1      -3.304  12.352  23.823  0.00  0.00    +0.000 C 
ATOM     20  C   UNL     1      -2.426  12.103  22.636  0.00  0.00    +0.000 A 
ATOM     21  C   UNL     1      -1.238  11.371  22.737  0.00  0.00    +0.000 A 
ATOM     22  C   UNL     1      -0.431  11.173  21.612  0.00  0.00    +0.000 A 
ATOM     23  C   UNL     1      -0.788  11.693  20.359  0.00  0.00    +0.000 A 
ATOM     24  C   UNL     1      -1.982  12.424  20.266  0.00  0.00    +0.000 A 
ATOM     25  C   UNL     1      -2.789  12.625  21.393  0.00  0.00    +0.000 A 
ENDBRANCH  18  23
ENDBRANCH  14  18
ENDBRANCH   1  15
TORSDOF 3
ENDMDL
MODEL 7
REMARK VINA RESULT:      -7.7      1.892      3.240
REMARK  Name = 
REMARK  4 active torsions:
REMARK  status: ('A' for Active; 'I' for Inactive)
REMARK    1  A    between atoms: C_1  and  C_2
REMARK    2  A    between atoms: C_5  and  C_6
REMARK    3  A    between atoms: C_6  and  N_7
REMARK    4  A    between atoms: C_8  and  C_10
REMARK                            x       y       z     vdW  Elec       q    Type
REMARK                         _______ _______ _______ _____ _____    ______ ____
ROOT
ATOM      1  C   UNL     1       1.616   8.926  19.197  0.00  0.00    +0.000 A 
ATOM      2  C   UNL     1       2.439   8.541  18.158  0.00  0.00    +0.000 A 
ATOM      3  C   UNL     1       2.928   7.194  18.298  0.00  0.00    +0.000 A 
ATOM      4  C   UNL     1       2.414   6.580  19.428  0.00  0.00    +0.000 A 
ATOM      5  S   UNL     1       1.412   7.643  20.303  0.00  0.00    +0.000 S 
ATOM      6  C   UNL     1       2.684   5.207  19.881  0.00  0.00    +0.000 A 
ATOM      7  C   UNL     1       2.103   4.679  21.054  0.00  0.00    +0.000 A 
ATOM      8  C   UNL     1       2.376   3.377  21.480  0.00  0.00    +0.000 A 
ATOM      9  C   UNL     1       3.235   2.576  20.741  0.00  0.00    +0.000 A 
ATOM     10  C   UNL     1       3.811   3.077  19.576  0.00  0.00    +0.000 A 
ATOM     11  C   UNL     1       3.540   4.385  19.134  0.00  0.00    +0.000 A 
ATOM     12  S   UNL     1       4.331   4.840  17.594  0.00  0.00    +0.000 S 
ATOM     13  C   UNL     1       3.894   6.580  17.345  0.00  0.00    +0.000 C 
ENDROOT
BRANCH   1  15
ATOM     14  N   UNL     1       0.177  10.648  18.398  0.00  0.00    +0.000 N 
ATOM     15  C   UNL     1       0.955  10.204  19.439  0.00  0.00    +0.000 C 
ATOM     16  O   UNL     1       1.072  10.835  20.496  0.00  0.00    +0.000 OA
ATOM     17  H   UNL     1      -0.106   9.936  17.729  0.00  0.00    +0.000 HD
BRANCH  14  18
ATOM     18  C   UNL     1      -0.557  11.878  18.477  0.00  0.00    +0.000 C 
BRANCH  18  23
ATOM     19  C   UNL     1      -6.333  11.065  18.126  0.00  0.00    +0.000 C 
ATOM     20  C   UNL     1      -4.854  11.286  18.191  0.00  0.00    +0.000 A 
ATOM     21  C   UNL     1      -3.979  10.713  17.261  0.00  0.00    +0.000 A 
ATOM     22  C   UNL     1      -2.600  10.926  17.361  0.00  0.00    +0.000 A 
ATOM     23  C   UNL     1      -2.058  11.716  18.385  0.00  0.00    +0.000 A 
ATOM     24  C   UNL     1      -2.941  12.288  19.312  0.00  0.00    +0.000 A 
ATOM     25  C   UNL     1      -4.322  12.074  19.213  0.00  0.00    +0.000 A 
ENDBRANCH  18  23
ENDBRANCH  14  18
ENDBRANCH   1  15
TORSDOF 3
ENDMDL
MODEL 8
REMARK VINA RESULT:      -7.6      1.899      3.341
REMARK  Name = 
REMARK  4 active torsions:
REMARK  status: ('A' for Active; 'I' for Inactive)
REMARK    1  A    between atoms: C_1  and  C_2
REMARK    2  A    between atoms: C_5  and  C_6
REMARK    3  A    between atoms: C_6  and  N_7
REMARK    4  A    between atoms: C_8  and  C_10
REMARK                            x       y       z     vdW  Elec       q    Type
REMARK                         _______ _______ _______ _____ _____    ______ ____
ROOT
ATOM      1  C   UNL     1       1.569   8.865  19.281  0.00  0.00    +0.000 A 
ATOM      2  C   UNL     1       2.410   8.521  18.243  0.00  0.00    +0.000 A 
ATOM      3  C   UNL     1       2.936   7.186  18.365  0.00  0.00    +0.000 A 
ATOM      4  C   UNL     1       2.432   6.539  19.481  0.00  0.00    +0.000 A 
ATOM      5  S   UNL     1       1.394   7.559  20.366  0.00  0.00    +0.000 S 
ATOM      6  C   UNL     1       2.738   5.168  19.915  0.00  0.00    +0.000 A 
ATOM      7  C   UNL     1       2.165   4.604  21.075  0.00  0.00    +0.000 A 
ATOM      8  C   UNL     1       2.471   3.304  21.482  0.00  0.00    +0.000 A 
ATOM      9  C   UNL     1       3.358   2.539  20.737  0.00  0.00    +0.000 A 
ATOM     10  C   UNL     1       3.928   3.075  19.585  0.00  0.00    +0.000 A 
ATOM     11  C   UNL     1       3.622   4.382  19.161  0.00  0.00    +0.000 A 
ATOM     12  S   UNL     1       4.410   4.884  17.634  0.00  0.00    +0.000 S 
ATOM     13  C   UNL     1       3.926   6.615  17.410  0.00  0.00    +0.000 C 
ENDROOT
BRANCH   1  15
ATOM     14  N   UNL     1       0.378  10.737  18.415  0.00  0.00    +0.000 N 
ATOM     15  C   UNL     1       0.870  10.120  19.538  0.00  0.00    +0.000 C 
ATOM     16  O   UNL     1       0.719  10.588  20.673  0.00  0.00    +0.000 OA
ATOM     17  H   UNL     1       0.270  10.139  17.599  0.00  0.00    +0.000 HD
BRANCH  14  18
ATOM     18  C   UNL     1      -0.351  11.970  18.491  0.00  0.00    +0.000 C 
BRANCH  18  23
ATOM     19  C   UNL     1      -6.152  11.583  17.902  0.00  0.00    +0.000 C 
ATOM     20  C   UNL     1      -4.667  11.663  18.074  0.00  0.00    +0.000 A 
ATOM     21  C   UNL     1      -4.083  12.119  19.261  0.00  0.00    +0.000 A 
ATOM     22  C   UNL     1      -2.692  12.199  19.381  0.00  0.00    +0.000 A 
ATOM     23  C   UNL     1      -1.847  11.822  18.327  0.00  0.00    +0.000 A 
ATOM     24  C   UNL     1      -2.440  11.364  17.141  0.00  0.00    +0.000 A 
ATOM     25  C   UNL     1      -3.833  11.286  17.019  0.00  0.00    +0.000 A 
ENDBRANCH  18  23
ENDBRANCH  14  18
ENDBRANCH   1  15
TORSDOF 3
ENDMDL
MODEL 9
REMARK VINA RESULT:      -7.6      1.200      1.788
REMARK  Name = 
REMARK  4 active torsions:
REMARK  status: ('A' for Active; 'I' for Inactive)
REMARK    1  A    between atoms: C_1  and  C_2
REMARK    2  A    between atoms: C_5  and  C_6
REMARK    3  A    between atoms: C_6  and  N_7
REMARK    4  A    between atoms: C_8  and  C_10
REMARK                            x       y       z     vdW  Elec       q    Type
REMARK                         _______ _______ _______ _____ _____    ______ ____
ROOT
ATOM      1  C   UNL     1       1.544   8.758  19.436  0.00  0.00    +0.000 A 
ATOM      2  C   UNL     1       1.597   7.624  20.220  0.00  0.00    +0.000 A 
ATOM      3  C   UNL     1       2.417   6.585  19.651  0.00  0.00    +0.000 A 
ATOM      4  C   UNL     1       3.003   6.991  18.464  0.00  0.00    +0.000 A 
ATOM      5  S   UNL     1       2.517   8.569  18.046  0.00  0.00    +0.000 S 
ATOM      6  C   UNL     1       3.907   6.200  17.615  0.00  0.00    +0.000 A 
ATOM      7  C   UNL     1       4.451   6.715  16.419  0.00  0.00    +0.000 A 
ATOM      8  C   UNL     1       5.301   5.950  15.616  0.00  0.00    +0.000 A 
ATOM      9  C   UNL     1       5.625   4.654  15.994  0.00  0.00    +0.000 A 
ATOM     10  C   UNL     1       5.104   4.132  17.175  0.00  0.00    +0.000 A 
ATOM     11  C   UNL     1       4.252   4.895  17.995  0.00  0.00    +0.000 A 
ATOM     12  S   UNL     1       3.719   4.078  19.496  0.00  0.00    +0.000 S 
ATOM     13  C   UNL     1       2.567   5.240  20.272  0.00  0.00    +0.000 C 
ENDROOT
BRANCH   1  15
ATOM     14  N   UNL     1       0.496  10.675  18.488  0.00  0.00    +0.000 N 
ATOM     15  C   UNL     1       0.808  10.001  19.642  0.00  0.00    +0.000 C 
ATOM     16  O   UNL     1       0.479  10.411  20.761  0.00  0.00    +0.000 OA
ATOM     17  H   UNL     1       0.521  10.120  17.636  0.00  0.00    +0.000 HD
BRANCH  14  18
ATOM     18  C   UNL     1      -0.241  11.906  18.510  0.00  0.00    +0.000 C 
BRANCH  18  23
ATOM     19  C   UNL     1      -6.030  11.462  17.851  0.00  0.00    +0.000 C 
ATOM     20  C   UNL     1      -4.548  11.558  18.042  0.00  0.00    +0.000 A 
ATOM     21  C   UNL     1      -3.985  12.061  19.220  0.00  0.00    +0.000 A 
ATOM     22  C   UNL     1      -2.596  12.153  19.357  0.00  0.00    +0.000 A 
ATOM     23  C   UNL     1      -1.734  11.743  18.330  0.00  0.00    +0.000 A 
ATOM     24  C   UNL     1      -2.306  11.238  17.152  0.00  0.00    +0.000 A 
ATOM     25  C   UNL     1      -3.697  11.147  17.014  0.00  0.00    +0.000 A 
ENDBRANCH  18  23
ENDBRANCH  14  18
ENDBRANCH   1  15
TORSDOF 3
ENDMDL
