MODEL 1
REMARK VINA RESULT:      -8.3      0.000      0.000
REMARK  Name = 
REMARK  7 active torsions:
REMARK  status: ('A' for Active; 'I' for Inactive)
REMARK    1  A    between atoms: C_1  and  C_2
REMARK    2  A    between atoms: C_2  and  C_3
REMARK    3  A    between atoms: C_6  and  C_7
REMARK    4  A    between atoms: N_9  and  C_10
REMARK    5  A    between atoms: C_10  and  C_11
REMARK    6  A    between atoms: C_14  and  C_15
REMARK    7  A    between atoms: N_18  and  C_19
REMARK                            x       y       z     vdW  Elec       q    Type
REMARK                         _______ _______ _______ _____ _____    ______ ____
ROOT
ATOM      1  C   UNL     1       6.621   6.023  16.532  0.00  0.00    +0.000 C 
ATOM      2  C   UNL     1       6.315   4.732  17.315  0.00  0.00    +0.000 C 
ATOM      3  N   UNL     1       5.475   3.771  16.546  0.00  0.00    +0.000 NA
ATOM      4  C   UNL     1       6.134   3.554  15.230  0.00  0.00    +0.000 C 
ATOM      5  C   UNL     1       6.609   4.837  14.508  0.00  0.00    +0.000 C 
ATOM      6  O   UNL     1       7.394   5.684  15.364  0.00  0.00    +0.000 OA
ENDROOT
BRANCH   1  10
ATOM      7  C   UNL     1       8.331   8.701  18.136  0.00  0.00    +0.000 A 
ATOM      8  N   UNL     1       8.597   7.771  19.063  0.00  0.00    +0.000 NA
ATOM      9  N   UNL     1       8.003   6.688  18.529  0.00  0.00    +0.000 N 
ATOM     10  C   UNL     1       7.390   6.991  17.349  0.00  0.00    +0.000 A 
ATOM     11  N   UNL     1       7.591   8.261  17.077  0.00  0.00    +0.000 NA
ATOM     12  H   UNL     1       8.045   5.794  19.008  0.00  0.00    +0.000 HD
BRANCH   7  14
ATOM     13  C   UNL     1       9.451  10.381  19.568  0.00  0.00    +0.000 C 
ATOM     14  C   UNL     1       8.718  10.126  18.261  0.00  0.00    +0.000 C 
ENDBRANCH   7  14
ENDBRANCH   1  10
BRANCH   3  15
ATOM     15  C   UNL     1       4.086   4.249  16.368  0.00  0.00    +0.000 C 
BRANCH  15  16
ATOM     16  C   UNL     1       3.118   3.759  17.401  0.00  0.00    +0.000 A 
ATOM     17  N   UNL     1       2.353   2.692  17.281  0.00  0.00    +0.000 NA
ATOM     18  N   UNL     1       1.616   2.561  18.429  0.00  0.00    +0.000 NA
ATOM     19  C   UNL     1       1.933   3.550  19.238  0.00  0.00    +0.000 A 
ATOM     20  N   UNL     1       2.884   4.329  18.630  0.00  0.00    +0.000 N 
ATOM     21  C   UNL     1       3.524   5.494  19.176  0.00  0.00    +0.000 C 
BRANCH  19  22
ATOM     22  C   UNL     1       1.316   3.744  20.618  0.00  0.00    +0.000 C 
ATOM     23  C   UNL     1       1.259   2.549  21.549  0.00  0.00    +0.000 C 
ATOM     24  C   UNL     1       2.224   3.648  21.829  0.00  0.00    +0.000 C 
ENDBRANCH  19  22
ENDBRANCH  15  16
ENDBRANCH   3  15
TORSDOF 5
ENDMDL
MODEL 2
REMARK VINA RESULT:      -7.5      2.279      4.807
REMARK  Name = 
REMARK  7 active torsions:
REMARK  status: ('A' for Active; 'I' for Inactive)
REMARK    1  A    between atoms: C_1  and  C_2
REMARK    2  A    between atoms: C_2  and  C_3
REMARK    3  A    between atoms: C_6  and  C_7
REMARK    4  A    between atoms: N_9  and  C_10
REMARK    5  A    between atoms: C_10  and  C_11
REMARK    6  A    between atoms: C_14  and  C_15
REMARK    7  A    between atoms: N_18  and  C_19
REMARK                            x       y       z     vdW  Elec       q    Type
REMARK                         _______ _______ _______ _____ _____    ______ ____
ROOT
ATOM      1  C   UNL     1       6.880   5.329  15.959  0.00  0.00    +0.000 C 
ATOM      2  C   UNL     1       5.466   5.532  16.536  0.00  0.00    +0.000 C 
ATOM      3  N   UNL     1       5.477   6.017  17.945  0.00  0.00    +0.000 NA
ATOM      4  C   UNL     1       6.344   7.223  17.996  0.00  0.00    +0.000 C 
ATOM      5  C   UNL     1       7.702   7.095  17.265  0.00  0.00    +0.000 C 
ATOM      6  O   UNL     1       7.552   6.603  15.923  0.00  0.00    +0.000 OA
ENDROOT
BRANCH   1  10
ATOM      7  C   UNL     1       6.400   3.680  12.840  0.00  0.00    +0.000 A 
ATOM      8  N   UNL     1       7.322   4.554  12.414  0.00  0.00    +0.000 NA
ATOM      9  N   UNL     1       7.596   5.225  13.547  0.00  0.00    +0.000 N 
ATOM     10  C   UNL     1       6.837   4.773  14.586  0.00  0.00    +0.000 A 
ATOM     11  N   UNL     1       6.076   3.789  14.162  0.00  0.00    +0.000 NA
ATOM     12  H   UNL     1       8.290   5.965  13.547  0.00  0.00    +0.000 HD
BRANCH   7  14
ATOM     13  C   UNL     1       4.370   3.273  11.485  0.00  0.00    +0.000 C 
ATOM     14  C   UNL     1       5.703   2.717  11.957  0.00  0.00    +0.000 C 
ENDBRANCH   7  14
ENDBRANCH   1  10
BRANCH   3  15
ATOM     15  C   UNL     1       5.951   4.985  18.894  0.00  0.00    +0.000 C 
BRANCH  15  16
ATOM     16  C   UNL     1       4.929   3.951  19.257  0.00  0.00    +0.000 A 
ATOM     17  N   UNL     1       5.132   2.648  19.257  0.00  0.00    +0.000 NA
ATOM     18  N   UNL     1       3.974   2.033  19.653  0.00  0.00    +0.000 NA
ATOM     19  C   UNL     1       3.073   2.963  19.887  0.00  0.00    +0.000 A 
ATOM     20  N   UNL     1       3.636   4.191  19.654  0.00  0.00    +0.000 N 
ATOM     21  C   UNL     1       3.008   5.474  19.816  0.00  0.00    +0.000 C 
BRANCH  19  22
ATOM     22  C   UNL     1       1.650   2.665  20.349  0.00  0.00    +0.000 C 
ATOM     23  C   UNL     1       0.603   3.747  20.176  0.00  0.00    +0.000 C 
ATOM     24  C   UNL     1       0.565   2.546  19.297  0.00  0.00    +0.000 C 
ENDBRANCH  19  22
ENDBRANCH  15  16
ENDBRANCH   3  15
TORSDOF 5
ENDMDL
MODEL 3
REMARK VINA RESULT:      -7.2      3.723      5.775
REMARK  Name = 
REMARK  7 active torsions:
REMARK  status: ('A' for Active; 'I' for Inactive)
REMARK    1  A    between atoms: C_1  and  C_2
REMARK    2  A    between atoms: C_2  and  C_3
REMARK    3  A    between atoms: C_6  and  C_7
REMARK    4  A    between atoms: N_9  and  C_10
REMARK    5  A    between atoms: C_10  and  C_11
REMARK    6  A    between atoms: C_14  and  C_15
REMARK    7  A    between atoms: N_18  and  C_19
REMARK                            x       y       z     vdW  Elec       q    Type
REMARK                         _______ _______ _______ _____ _____    ______ ____
ROOT
ATOM      1  C   UNL     1       4.779   4.979  16.715  0.00  0.00    +0.000 C 
ATOM      2  C   UNL     1       5.126   6.118  17.691  0.00  0.00    +0.000 C 
ATOM      3  N   UNL     1       4.120   6.280  18.778  0.00  0.00    +0.000 NA
ATOM      4  C   UNL     1       3.936   4.952  19.420  0.00  0.00    +0.000 C 
ATOM      5  C   UNL     1       3.761   3.764  18.444  0.00  0.00    +0.000 C 
ATOM      6  O   UNL     1       4.787   3.732  17.437  0.00  0.00    +0.000 OA
ENDROOT
BRANCH   1  10
ATOM      7  C   UNL     1       6.757   4.494  13.796  0.00  0.00    +0.000 A 
ATOM      8  N   UNL     1       7.634   5.268  14.450  0.00  0.00    +0.000 NA
ATOM      9  N   UNL     1       6.980   5.492  15.604  0.00  0.00    +0.000 N 
ATOM     10  C   UNL     1       5.755   4.892  15.604  0.00  0.00    +0.000 A 
ATOM     11  N   UNL     1       5.595   4.247  14.470  0.00  0.00    +0.000 NA
ATOM     12  H   UNL     1       7.408   6.053  16.333  0.00  0.00    +0.000 HD
BRANCH   7  14
ATOM     13  C   UNL     1       5.870   3.019  12.017  0.00  0.00    +0.000 C 
ATOM     14  C   UNL     1       6.962   3.998  12.414  0.00  0.00    +0.000 C 
ENDBRANCH   7  14
ENDBRANCH   1  10
BRANCH   3  15
ATOM     15  C   UNL     1       2.830   6.809  18.280  0.00  0.00    +0.000 C 
BRANCH  15  16
ATOM     16  C   UNL     1       2.055   7.612  19.279  0.00  0.00    +0.000 A 
ATOM     17  N   UNL     1       1.836   7.261  20.531  0.00  0.00    +0.000 NA
ATOM     18  N   UNL     1       1.101   8.250  21.132  0.00  0.00    +0.000 NA
ATOM     19  C   UNL     1       0.874   9.193  20.243  0.00  0.00    +0.000 A 
ATOM     20  N   UNL     1       1.464   8.833  19.058  0.00  0.00    +0.000 N 
ATOM     21  C   UNL     1       1.482   9.590  17.837  0.00  0.00    +0.000 C 
BRANCH  19  22
ATOM     22  C   UNL     1       0.084  10.463  20.539  0.00  0.00    +0.000 C 
ATOM     23  C   UNL     1      -0.035  10.909  21.983  0.00  0.00    +0.000 C 
ATOM     24  C   UNL     1       0.838  11.674  21.051  0.00  0.00    +0.000 C 
ENDBRANCH  19  22
ENDBRANCH  15  16
ENDBRANCH   3  15
TORSDOF 5
ENDMDL
MODEL 4
REMARK VINA RESULT:      -7.2      2.636      7.150
REMARK  Name = 
REMARK  7 active torsions:
REMARK  status: ('A' for Active; 'I' for Inactive)
REMARK    1  A    between atoms: C_1  and  C_2
REMARK    2  A    between atoms: C_2  and  C_3
REMARK    3  A    between atoms: C_6  and  C_7
REMARK    4  A    between atoms: N_9  and  C_10
REMARK    5  A    between atoms: C_10  and  C_11
REMARK    6  A    between atoms: C_14  and  C_15
REMARK    7  A    between atoms: N_18  and  C_19
REMARK                            x       y       z     vdW  Elec       q    Type
REMARK                         _______ _______ _______ _____ _____    ______ ____
ROOT
ATOM      1  C   UNL     1       5.153   5.412  18.744  0.00  0.00    +0.000 C 
ATOM      2  C   UNL     1       5.475   4.257  17.777  0.00  0.00    +0.000 C 
ATOM      3  N   UNL     1       6.762   4.448  17.051  0.00  0.00    +0.000 NA
ATOM      4  C   UNL     1       7.814   4.714  18.067  0.00  0.00    +0.000 C 
ATOM      5  C   UNL     1       7.438   5.748  19.155  0.00  0.00    +0.000 C 
ATOM      6  O   UNL     1       6.169   5.457  19.765  0.00  0.00    +0.000 OA
ENDROOT
BRANCH   1  10
ATOM      7  C   UNL     1       2.036   4.473  20.184  0.00  0.00    +0.000 A 
ATOM      8  N   UNL     1       1.978   5.769  20.521  0.00  0.00    +0.000 NA
ATOM      9  N   UNL     1       3.124   6.232  19.990  0.00  0.00    +0.000 N 
ATOM     10  C   UNL     1       3.833   5.232  19.392  0.00  0.00    +0.000 A 
ATOM     11  N   UNL     1       3.158   4.109  19.497  0.00  0.00    +0.000 NA
ATOM     12  H   UNL     1       3.364   7.215  20.070  0.00  0.00    +0.000 HD
BRANCH   7  14
ATOM     13  C   UNL     1       1.552   2.567  21.686  0.00  0.00    +0.000 C 
ATOM     14  C   UNL     1       1.022   3.470  20.584  0.00  0.00    +0.000 C 
ENDBRANCH   7  14
ENDBRANCH   1  10
BRANCH   3  15
ATOM     15  C   UNL     1       6.695   5.546  16.060  0.00  0.00    +0.000 C 
BRANCH  15  16
ATOM     16  C   UNL     1       6.986   5.136  14.650  0.00  0.00    +0.000 A 
ATOM     17  N   UNL     1       8.023   5.534  13.940  0.00  0.00    +0.000 NA
ATOM     18  N   UNL     1       7.953   4.940  12.706  0.00  0.00    +0.000 NA
ATOM     19  C   UNL     1       6.873   4.190  12.671  0.00  0.00    +0.000 A 
ATOM     20  N   UNL     1       6.234   4.279  13.881  0.00  0.00    +0.000 N 
ATOM     21  C   UNL     1       5.032   3.596  14.276  0.00  0.00    +0.000 C 
BRANCH  19  22
ATOM     22  C   UNL     1       6.453   3.368  11.457  0.00  0.00    +0.000 C 
ATOM     23  C   UNL     1       7.308   2.179  11.070  0.00  0.00    +0.000 C 
ATOM     24  C   UNL     1       5.971   1.949  11.683  0.00  0.00    +0.000 C 
ENDBRANCH  19  22
ENDBRANCH  15  16
ENDBRANCH   3  15
TORSDOF 5
ENDMDL
MODEL 5
REMARK VINA RESULT:      -7.1      2.606      4.768
REMARK  Name = 
REMARK  7 active torsions:
REMARK  status: ('A' for Active; 'I' for Inactive)
REMARK    1  A    between atoms: C_1  and  C_2
REMARK    2  A    between atoms: C_2  and  C_3
REMARK    3  A    between atoms: C_6  and  C_7
REMARK    4  A    between atoms: N_9  and  C_10
REMARK    5  A    between atoms: C_10  and  C_11
REMARK    6  A    between atoms: C_14  and  C_15
REMARK    7  A    between atoms: N_18  and  C_19
REMARK                            x       y       z     vdW  Elec       q    Type
REMARK                         _______ _______ _______ _____ _____    ______ ____
ROOT
ATOM      1  C   UNL     1       5.636   5.021  16.022  0.00  0.00    +0.000 C 
ATOM      2  C   UNL     1       5.742   6.498  16.445  0.00  0.00    +0.000 C 
ATOM      3  N   UNL     1       5.005   6.796  17.706  0.00  0.00    +0.000 NA
ATOM      4  C   UNL     1       5.463   5.824  18.733  0.00  0.00    +0.000 C 
ATOM      5  C   UNL     1       5.530   4.351  18.267  0.00  0.00    +0.000 C 
ATOM      6  O   UNL     1       6.254   4.203  17.034  0.00  0.00    +0.000 OA
ENDROOT
BRANCH   1  10
ATOM      7  C   UNL     1       6.901   4.050  12.839  0.00  0.00    +0.000 A 
ATOM      8  N   UNL     1       7.757   5.060  13.045  0.00  0.00    +0.000 NA
ATOM      9  N   UNL     1       7.373   5.490  14.260  0.00  0.00    +0.000 N 
ATOM     10  C   UNL     1       6.312   4.772  14.727  0.00  0.00    +0.000 A 
ATOM     11  N   UNL     1       6.000   3.849  13.845  0.00  0.00    +0.000 NA
ATOM     12  H   UNL     1       7.859   6.261  14.706  0.00  0.00    +0.000 HD
BRANCH   7  14
ATOM     13  C   UNL     1       5.619   2.361  11.564  0.00  0.00    +0.000 C 
ATOM     14  C   UNL     1       6.850   3.251  11.592  0.00  0.00    +0.000 C 
ENDBRANCH   7  14
ENDBRANCH   1  10
BRANCH   3  15
ATOM     15  C   UNL     1       3.537   6.728  17.531  0.00  0.00    +0.000 C 
BRANCH  15  16
ATOM     16  C   UNL     1       2.798   6.112  18.679  0.00  0.00    +0.000 A 
ATOM     17  N   UNL     1       2.598   6.684  19.850  0.00  0.00    +0.000 NA
ATOM     18  N   UNL     1       1.876   5.820  20.633  0.00  0.00    +0.000 NA
ATOM     19  C   UNL     1       1.646   4.728  19.936  0.00  0.00    +0.000 A 
ATOM     20  N   UNL     1       2.206   4.871  18.693  0.00  0.00    +0.000 N 
ATOM     21  C   UNL     1       2.164   3.925  17.612  0.00  0.00    +0.000 C 
BRANCH  19  22
ATOM     22  C   UNL     1       0.869   3.531  20.473  0.00  0.00    +0.000 C 
ATOM     23  C   UNL     1       1.427   2.145  20.216  0.00  0.00    +0.000 C 
ATOM     24  C   UNL     1       1.490   2.716  21.590  0.00  0.00    +0.000 C 
ENDBRANCH  19  22
ENDBRANCH  15  16
ENDBRANCH   3  15
TORSDOF 5
ENDMDL
MODEL 6
REMARK VINA RESULT:      -7.1      2.421      3.143
REMARK  Name = 
REMARK  7 active torsions:
REMARK  status: ('A' for Active; 'I' for Inactive)
REMARK    1  A    between atoms: C_1  and  C_2
REMARK    2  A    between atoms: C_2  and  C_3
REMARK    3  A    between atoms: C_6  and  C_7
REMARK    4  A    between atoms: N_9  and  C_10
REMARK    5  A    between atoms: C_10  and  C_11
REMARK    6  A    between atoms: C_14  and  C_15
REMARK    7  A    between atoms: N_18  and  C_19
REMARK                            x       y       z     vdW  Elec       q    Type
REMARK                         _______ _______ _______ _____ _____    ______ ____
ROOT
ATOM      1  C   UNL     1       5.761   5.829  17.365  0.00  0.00    +0.000 C 
ATOM      2  C   UNL     1       5.111   5.179  18.600  0.00  0.00    +0.000 C 
ATOM      3  N   UNL     1       3.988   4.263  18.252  0.00  0.00    +0.000 NA
ATOM      4  C   UNL     1       4.494   3.298  17.241  0.00  0.00    +0.000 C 
ATOM      5  C   UNL     1       5.305   3.920  16.080  0.00  0.00    +0.000 C 
ATOM      6  O   UNL     1       6.346   4.794  16.550  0.00  0.00    +0.000 OA
ENDROOT
BRANCH   1  10
ATOM      7  C   UNL     1       8.062   8.478  17.963  0.00  0.00    +0.000 A 
ATOM      8  N   UNL     1       8.611   7.601  18.815  0.00  0.00    +0.000 NA
ATOM      9  N   UNL     1       7.814   6.531  18.644  0.00  0.00    +0.000 N 
ATOM     10  C   UNL     1       6.821   6.792  17.746  0.00  0.00    +0.000 A 
ATOM     11  N   UNL     1       6.963   8.019  17.296  0.00  0.00    +0.000 NA
ATOM     12  H   UNL     1       7.990   5.675  19.159  0.00  0.00    +0.000 HD
BRANCH   7  14
ATOM     13  C   UNL     1       9.320  10.333  19.014  0.00  0.00    +0.000 C 
ATOM     14  C   UNL     1       8.532   9.874  17.798  0.00  0.00    +0.000 C 
ENDBRANCH   7  14
ENDBRANCH   1  10
BRANCH   3  15
ATOM     15  C   UNL     1       2.803   4.989  17.743  0.00  0.00    +0.000 C 
BRANCH  15  16
ATOM     16  C   UNL     1       2.467   6.242  18.491  0.00  0.00    +0.000 A 
ATOM     17  N   UNL     1       2.524   7.463  17.995  0.00  0.00    +0.000 NA
ATOM     18  N   UNL     1       2.135   8.342  18.972  0.00  0.00    +0.000 NA
ATOM     19  C   UNL     1       1.848   7.653  20.056  0.00  0.00    +0.000 A 
ATOM     20  N   UNL     1       2.039   6.320  19.795  0.00  0.00    +0.000 N 
ATOM     21  C   UNL     1       1.814   5.223  20.695  0.00  0.00    +0.000 C 
BRANCH  19  22
ATOM     22  C   UNL     1       1.377   8.286  21.360  0.00  0.00    +0.000 C 
ATOM     23  C   UNL     1       0.818   9.694  21.309  0.00  0.00    +0.000 C 
ATOM     24  C   UNL     1      -0.106   8.548  21.535  0.00  0.00    +0.000 C 
ENDBRANCH  19  22
ENDBRANCH  15  16
ENDBRANCH   3  15
TORSDOF 5
ENDMDL
MODEL 7
REMARK VINA RESULT:      -7.0      3.877      5.938
REMARK  Name = 
REMARK  7 active torsions:
REMARK  status: ('A' for Active; 'I' for Inactive)
REMARK    1  A    between atoms: C_1  and  C_2
REMARK    2  A    between atoms: C_2  and  C_3
REMARK    3  A    between atoms: C_6  and  C_7
REMARK    4  A    between atoms: N_9  and  C_10
REMARK    5  A    between atoms: C_10  and  C_11
REMARK    6  A    between atoms: C_14  and  C_15
REMARK    7  A    between atoms: N_18  and  C_19
REMARK                            x       y       z     vdW  Elec       q    Type
REMARK                         _______ _______ _______ _____ _____    ______ ____
ROOT
ATOM      1  C   UNL     1       4.649   4.908  16.962  0.00  0.00    +0.000 C 
ATOM      2  C   UNL     1       4.850   6.204  17.770  0.00  0.00    +0.000 C 
ATOM      3  N   UNL     1       3.864   6.358  18.877  0.00  0.00    +0.000 NA
ATOM      4  C   UNL     1       3.903   5.113  19.687  0.00  0.00    +0.000 C 
ATOM      5  C   UNL     1       3.880   3.795  18.878  0.00  0.00    +0.000 C 
ATOM      6  O   UNL     1       4.868   3.781  17.833  0.00  0.00    +0.000 OA
ENDROOT
BRANCH   1  10
ATOM      7  C   UNL     1       6.561   4.383  14.005  0.00  0.00    +0.000 A 
ATOM      8  N   UNL     1       7.403   5.250  14.583  0.00  0.00    +0.000 NA
ATOM      9  N   UNL     1       6.773   5.498  15.744  0.00  0.00    +0.000 N 
ATOM     10  C   UNL     1       5.592   4.821  15.823  0.00  0.00    +0.000 A 
ATOM     11  N   UNL     1       5.440   4.101  14.733  0.00  0.00    +0.000 NA
ATOM     12  H   UNL     1       7.186   6.128  16.425  0.00  0.00    +0.000 HD
BRANCH   7  14
ATOM     13  C   UNL     1       7.438   4.825  11.734  0.00  0.00    +0.000 C 
ATOM     14  C   UNL     1       6.754   3.822  12.647  0.00  0.00    +0.000 C 
ENDBRANCH   7  14
ENDBRANCH   1  10
BRANCH   3  15
ATOM     15  C   UNL     1       2.495   6.623  18.381  0.00  0.00    +0.000 C 
BRANCH  15  16
ATOM     16  C   UNL     1       2.058   8.052  18.483  0.00  0.00    +0.000 A 
ATOM     17  N   UNL     1       2.095   8.931  17.501  0.00  0.00    +0.000 NA
ATOM     18  N   UNL     1       1.606  10.122  17.971  0.00  0.00    +0.000 NA
ATOM     19  C   UNL     1       1.278   9.963  19.236  0.00  0.00    +0.000 A 
ATOM     20  N   UNL     1       1.543   8.667  19.600  0.00  0.00    +0.000 N 
ATOM     21  C   UNL     1       1.306   8.065  20.883  0.00  0.00    +0.000 C 
BRANCH  19  22
ATOM     22  C   UNL     1       0.696  11.072  20.105  0.00  0.00    +0.000 C 
ATOM     23  C   UNL     1      -0.065  12.189  19.421  0.00  0.00    +0.000 C 
ATOM     24  C   UNL     1      -0.812  11.177  20.219  0.00  0.00    +0.000 C 
ENDBRANCH  19  22
ENDBRANCH  15  16
ENDBRANCH   3  15
TORSDOF 5
ENDMDL
MODEL 8
REMARK VINA RESULT:      -7.0      2.233      4.851
REMARK  Name = 
REMARK  7 active torsions:
REMARK  status: ('A' for Active; 'I' for Inactive)
REMARK    1  A    between atoms: C_1  and  C_2
REMARK    2  A    between atoms: C_2  and  C_3
REMARK    3  A    between atoms: C_6  and  C_7
REMARK    4  A    between atoms: N_9  and  C_10
REMARK    5  A    between atoms: C_10  and  C_11
REMARK    6  A    between atoms: C_14  and  C_15
REMARK    7  A    between atoms: N_18  and  C_19
REMARK                            x       y       z     vdW  Elec       q    Type
REMARK                         _______ _______ _______ _____ _____    ______ ____
ROOT
ATOM      1  C   UNL     1       6.698   5.391  15.804  0.00  0.00    +0.000 C 
ATOM      2  C   UNL     1       5.317   5.977  16.154  0.00  0.00    +0.000 C 
ATOM      3  N   UNL     1       5.247   6.513  17.542  0.00  0.00    +0.000 NA
ATOM      4  C   UNL     1       6.380   7.459  17.715  0.00  0.00    +0.000 C 
ATOM      5  C   UNL     1       7.750   6.951  17.204  0.00  0.00    +0.000 C 
ATOM      6  O   UNL     1       7.676   6.447  15.860  0.00  0.00    +0.000 OA
ENDROOT
BRANCH   1  10
ATOM      7  C   UNL     1       6.341   3.665  12.711  0.00  0.00    +0.000 A 
ATOM      8  N   UNL     1       7.308   4.501  12.311  0.00  0.00    +0.000 NA
ATOM      9  N   UNL     1       7.540   5.198  13.438  0.00  0.00    +0.000 N 
ATOM     10  C   UNL     1       6.713   4.797  14.447  0.00  0.00    +0.000 A 
ATOM     11  N   UNL     1       5.950   3.820  14.010  0.00  0.00    +0.000 NA
ATOM     12  H   UNL     1       8.253   5.920  13.456  0.00  0.00    +0.000 HD
BRANCH   7  14
ATOM     13  C   UNL     1       4.300   3.204  11.390  0.00  0.00    +0.000 C 
ATOM     14  C   UNL     1       5.666   2.694  11.818  0.00  0.00    +0.000 C 
ENDBRANCH   7  14
ENDBRANCH   1  10
BRANCH   3  15
ATOM     15  C   UNL     1       5.292   5.443  18.564  0.00  0.00    +0.000 C 
BRANCH  15  16
ATOM     16  C   UNL     1       3.956   5.045  19.113  0.00  0.00    +0.000 A 
ATOM     17  N   UNL     1       2.900   5.831  19.191  0.00  0.00    +0.000 NA
ATOM     18  N   UNL     1       1.868   5.112  19.736  0.00  0.00    +0.000 NA
ATOM     19  C   UNL     1       2.302   3.896  19.990  0.00  0.00    +0.000 A 
ATOM     20  N   UNL     1       3.616   3.808  19.607  0.00  0.00    +0.000 N 
ATOM     21  C   UNL     1       4.462   2.649  19.684  0.00  0.00    +0.000 C 
BRANCH  19  22
ATOM     22  C   UNL     1       1.438   2.801  20.605  0.00  0.00    +0.000 C 
ATOM     23  C   UNL     1       2.095   1.826  21.561  0.00  0.00    +0.000 C 
ATOM     24  C   UNL     1       1.162   2.857  22.094  0.00  0.00    +0.000 C 
ENDBRANCH  19  22
ENDBRANCH  15  16
ENDBRANCH   3  15
TORSDOF 5
ENDMDL
MODEL 9
REMARK VINA RESULT:      -7.0      1.882      2.691
REMARK  Name = 
REMARK  7 active torsions:
REMARK  status: ('A' for Active; 'I' for Inactive)
REMARK    1  A    between atoms: C_1  and  C_2
REMARK    2  A    between atoms: C_2  and  C_3
REMARK    3  A    between atoms: C_6  and  C_7
REMARK    4  A    between atoms: N_9  and  C_10
REMARK    5  A    between atoms: C_10  and  C_11
REMARK    6  A    between atoms: C_14  and  C_15
REMARK    7  A    between atoms: N_18  and  C_19
REMARK                            x       y       z     vdW  Elec       q    Type
REMARK                         _______ _______ _______ _____ _____    ______ ____
ROOT
ATOM      1  C   UNL     1       7.463   7.956  18.149  0.00  0.00    +0.000 C 
ATOM      2  C   UNL     1       8.174   6.662  18.587  0.00  0.00    +0.000 C 
ATOM      3  N   UNL     1       7.301   5.457  18.490  0.00  0.00    +0.000 NA
ATOM      4  C   UNL     1       6.742   5.420  17.113  0.00  0.00    +0.000 C 
ATOM      5  C   UNL     1       6.180   6.763  16.589  0.00  0.00    +0.000 C 
ATOM      6  O   UNL     1       7.113   7.844  16.756  0.00  0.00    +0.000 OA
ENDROOT
BRANCH   1  10
ATOM      7  C   UNL     1       9.314  10.996  18.150  0.00  0.00    +0.000 A 
ATOM      8  N   UNL     1       9.817  10.508  19.292  0.00  0.00    +0.000 NA
ATOM      9  N   UNL     1       9.188   9.322  19.374  0.00  0.00    +0.000 N 
ATOM     10  C   UNL     1       8.328   9.145  18.330  0.00  0.00    +0.000 A 
ATOM     11  N   UNL     1       8.397  10.191  17.537  0.00  0.00    +0.000 NA
ATOM     12  H   UNL     1       9.377   8.695  20.149  0.00  0.00    +0.000 HD
BRANCH   7  14
ATOM     13  C   UNL     1      11.141  12.562  17.570  0.00  0.00    +0.000 C 
ATOM     14  C   UNL     1       9.639  12.338  17.611  0.00  0.00    +0.000 C 
ENDBRANCH   7  14
ENDBRANCH   1  10
BRANCH   3  15
ATOM     15  C   UNL     1       6.219   5.461  19.500  0.00  0.00    +0.000 C 
BRANCH  15  16
ATOM     16  C   UNL     1       5.098   4.507  19.220  0.00  0.00    +0.000 A 
ATOM     17  N   UNL     1       5.203   3.193  19.206  0.00  0.00    +0.000 NA
ATOM     18  N   UNL     1       3.969   2.666  18.924  0.00  0.00    +0.000 NA
ATOM     19  C   UNL     1       3.124   3.661  18.763  0.00  0.00    +0.000 A 
ATOM     20  N   UNL     1       3.794   4.844  18.946  0.00  0.00    +0.000 N 
ATOM     21  C   UNL     1       3.240   6.169  18.888  0.00  0.00    +0.000 C 
BRANCH  19  22
ATOM     22  C   UNL     1       1.647   3.472  18.435  0.00  0.00    +0.000 C 
ATOM     23  C   UNL     1       0.998   2.152  18.800  0.00  0.00    +0.000 C 
ATOM     24  C   UNL     1       0.664   3.373  19.584  0.00  0.00    +0.000 C 
ENDBRANCH  19  22
ENDBRANCH  15  16
ENDBRANCH   3  15
TORSDOF 5
ENDMDL
