MODEL 1
REMARK VINA RESULT:      -7.3      0.000      0.000
REMARK  Name = 
REMARK  13 active torsions:
REMARK  status: ('A' for Active; 'I' for Inactive)
REMARK    1  A    between atoms: C_1  and  C_2
REMARK    2  A    between atoms: C_2  and  C_3
REMARK    3  A    between atoms: C_2  and  O_14
REMARK    4  A    between atoms: C_3  and  N_4
REMARK    5  A    between atoms: O_14  and  C_15
REMARK    6  A    between atoms: C_15  and  P_16
REMARK    7  A    between atoms: P_16  and  O_18
REMARK    8  A    between atoms: P_16  and  N_19
REMARK    9  A    between atoms: N_19  and  C_20
REMARK   10  A    between atoms: C_20  and  C_21
REMARK   11  A    between atoms: C_20  and  C_28
REMARK   12  A    between atoms: C_21  and  C_22
REMARK   13  A    between atoms: C_28  and  O_30
REMARK                            x       y       z     vdW  Elec       q    Type
REMARK                         _______ _______ _______ _____ _____    ______ ____
ROOT
ATOM      1  P   UNL     1       1.200   8.648  20.984  0.00  0.00    +0.000 P 
ATOM      2  O   UNL     1       1.389   8.537  19.472  0.00  0.00    +0.000 OA
ENDROOT
BRANCH   1   3
ATOM      3  O   UNL     1      -0.337   8.330  21.453  0.00  0.00    +0.000 OA
ATOM      4  H   UNL     1      -0.397   7.702  22.203  0.00  0.00    +0.000 HD
ENDBRANCH   1   3
BRANCH   1   5
ATOM      5  N   UNL     1       0.820  10.386  20.943  0.00  0.00    +0.000 NA
ATOM      6  H   UNL     1       1.746  10.819  20.913  0.00  0.00    +0.000 HD
BRANCH   5   7
ATOM      7  C   UNL     1       0.151  10.851  19.648  0.00  0.00    +0.000 C 
BRANCH   7   8
ATOM      8  C   UNL     1       0.851  12.121  19.131  0.00  0.00    +0.000 C 
ATOM      9  O   UNL     1       0.645  13.249  19.552  0.00  0.00    +0.000 OA
BRANCH   8  10
ATOM     10  O   UNL     1       1.692  11.855  18.108  0.00  0.00    +0.000 OA
ATOM     11  H   UNL     1       2.276  11.119  18.398  0.00  0.00    +0.000 HD
ENDBRANCH   8  10
ENDBRANCH   7   8
BRANCH   7  12
ATOM     12  C   UNL     1      -1.387  11.053  19.617  0.00  0.00    +0.000 C 
BRANCH  12  13
ATOM     13  C   UNL     1      -2.150  10.867  18.328  0.00  0.00    +0.000 A 
ATOM     14  C   UNL     1      -3.322  11.618  18.139  0.00  0.00    +0.000 A 
ATOM     15  C   UNL     1      -4.096  11.455  16.991  0.00  0.00    +0.000 A 
ATOM     16  C   UNL     1      -3.695  10.557  16.008  0.00  0.00    +0.000 A 
ATOM     17  C   UNL     1      -2.499   9.859  16.152  0.00  0.00    +0.000 A 
ATOM     18  C   UNL     1      -1.723  10.027  17.297  0.00  0.00    +0.000 A 
ENDBRANCH  12  13
ENDBRANCH   7  12
ENDBRANCH   5   7
ENDBRANCH   1   5
BRANCH   1  19
ATOM     19  C   UNL     1       1.591   6.860  21.025  0.00  0.00    +0.000 C 
BRANCH  19  20
ATOM     20  O   UNL     1       2.217   6.425  19.805  0.00  0.00    +0.000 OA
BRANCH  20  22
ATOM     21  C   UNL     1       0.933   4.484  20.574  0.00  0.00    +0.000 C 
ATOM     22  C   UNL     1       1.981   5.008  19.585  0.00  0.00    +0.000 C 
BRANCH  22  23
ATOM     23  C   UNL     1       3.292   4.233  19.780  0.00  0.00    +0.000 C 
BRANCH  23  24
ATOM     24  N   UNL     1       4.148   4.310  18.614  0.00  0.00    +0.000 N 
ATOM     25  C   UNL     1       3.793   3.952  17.341  0.00  0.00    +0.000 A 
ATOM     26  N   UNL     1       4.795   4.073  16.500  0.00  0.00    +0.000 NA
ATOM     27  C   UNL     1       5.839   4.558  17.263  0.00  0.00    +0.000 A 
ATOM     28  C   UNL     1       7.167   4.893  16.951  0.00  0.00    +0.000 A 
ATOM     29  N   UNL     1       7.708   4.723  15.684  0.00  0.00    +0.000 N 
ATOM     30  N   UNL     1       7.950   5.409  17.927  0.00  0.00    +0.000 NA
ATOM     31  C   UNL     1       7.427   5.542  19.166  0.00  0.00    +0.000 A 
ATOM     32  N   UNL     1       6.187   5.217  19.593  0.00  0.00    +0.000 NA
ATOM     33  C   UNL     1       5.446   4.736  18.581  0.00  0.00    +0.000 A 
ATOM     34  H   UNL     1       7.005   4.657  14.955  0.00  0.00    +0.000 HD
ATOM     35  H   UNL     1       8.504   5.324  15.523  0.00  0.00    +0.000 HD
ENDBRANCH  23  24
ENDBRANCH  22  23
ENDBRANCH  20  22
ENDBRANCH  19  20
ENDBRANCH   1  19
TORSDOF 12
ENDMDL
MODEL 2
REMARK VINA RESULT:      -7.2      3.423      8.966
REMARK  Name = 
REMARK  13 active torsions:
REMARK  status: ('A' for Active; 'I' for Inactive)
REMARK    1  A    between atoms: C_1  and  C_2
REMARK    2  A    between atoms: C_2  and  C_3
REMARK    3  A    between atoms: C_2  and  O_14
REMARK    4  A    between atoms: C_3  and  N_4
REMARK    5  A    between atoms: O_14  and  C_15
REMARK    6  A    between atoms: C_15  and  P_16
REMARK    7  A    between atoms: P_16  and  O_18
REMARK    8  A    between atoms: P_16  and  N_19
REMARK    9  A    between atoms: N_19  and  C_20
REMARK   10  A    between atoms: C_20  and  C_21
REMARK   11  A    between atoms: C_20  and  C_28
REMARK   12  A    between atoms: C_21  and  C_22
REMARK   13  A    between atoms: C_28  and  O_30
REMARK                            x       y       z     vdW  Elec       q    Type
REMARK                         _______ _______ _______ _____ _____    ______ ____
ROOT
ATOM      1  P   UNL     1       4.242   4.432  18.625  0.00  0.00    +0.000 P 
ATOM      2  O   UNL     1       4.160   3.752  19.991  0.00  0.00    +0.000 OA
ENDROOT
BRANCH   1   3
ATOM      3  O   UNL     1       3.517   3.560  17.443  0.00  0.00    +0.000 OA
ATOM      4  H   UNL     1       2.590   3.828  17.269  0.00  0.00    +0.000 HD
ENDBRANCH   1   3
BRANCH   1   5
ATOM      5  N   UNL     1       5.804   3.692  18.202  0.00  0.00    +0.000 NA
ATOM      6  H   UNL     1       5.528   2.894  17.626  0.00  0.00    +0.000 HD
BRANCH   5   7
ATOM      7  C   UNL     1       6.668   4.542  17.268  0.00  0.00    +0.000 C 
BRANCH   7   8
ATOM      8  C   UNL     1       7.478   5.557  18.094  0.00  0.00    +0.000 C 
ATOM      9  O   UNL     1       7.799   5.405  19.263  0.00  0.00    +0.000 OA
BRANCH   8  10
ATOM     10  O   UNL     1       7.755   6.677  17.391  0.00  0.00    +0.000 OA
ATOM     11  H   UNL     1       7.088   7.352  17.649  0.00  0.00    +0.000 HD
ENDBRANCH   8  10
ENDBRANCH   7   8
BRANCH   7  12
ATOM     12  C   UNL     1       6.006   5.259  16.063  0.00  0.00    +0.000 C 
BRANCH  12  13
ATOM     13  C   UNL     1       6.357   4.854  14.653  0.00  0.00    +0.000 A 
ATOM     14  C   UNL     1       5.506   3.953  13.991  0.00  0.00    +0.000 A 
ATOM     15  C   UNL     1       5.804   3.504  12.705  0.00  0.00    +0.000 A 
ATOM     16  C   UNL     1       6.943   3.969  12.056  0.00  0.00    +0.000 A 
ATOM     17  C   UNL     1       7.755   4.916  12.674  0.00  0.00    +0.000 A 
ATOM     18  C   UNL     1       7.454   5.368  13.957  0.00  0.00    +0.000 A 
ENDBRANCH  12  13
ENDBRANCH   7  12
ENDBRANCH   5   7
ENDBRANCH   1   5
BRANCH   1  19
ATOM     19  C   UNL     1       2.635   5.193  19.061  0.00  0.00    +0.000 C 
BRANCH  19  20
ATOM     20  O   UNL     1       2.055   5.888  17.942  0.00  0.00    +0.000 OA
BRANCH  20  22
ATOM     21  C   UNL     1       3.571   7.774  17.553  0.00  0.00    +0.000 C 
ATOM     22  C   UNL     1       2.210   7.325  18.096  0.00  0.00    +0.000 C 
BRANCH  22  23
ATOM     23  C   UNL     1       2.112   7.695  19.583  0.00  0.00    +0.000 C 
BRANCH  23  24
ATOM     24  N   UNL     1       1.308   8.881  19.796  0.00  0.00    +0.000 N 
ATOM     25  C   UNL     1       0.911   9.758  18.824  0.00  0.00    +0.000 A 
ATOM     26  N   UNL     1       0.242  10.773  19.322  0.00  0.00    +0.000 NA
ATOM     27  C   UNL     1       0.184  10.524  20.679  0.00  0.00    +0.000 A 
ATOM     28  C   UNL     1      -0.388  11.231  21.750  0.00  0.00    +0.000 A 
ATOM     29  N   UNL     1      -1.018  12.458  21.591  0.00  0.00    +0.000 N 
ATOM     30  N   UNL     1      -0.327  10.689  22.988  0.00  0.00    +0.000 NA
ATOM     31  C   UNL     1       0.316   9.510  23.142  0.00  0.00    +0.000 A 
ATOM     32  N   UNL     1       0.938   8.764  22.201  0.00  0.00    +0.000 NA
ATOM     33  C   UNL     1       0.823   9.334  20.991  0.00  0.00    +0.000 A 
ATOM     34  H   UNL     1      -1.314  12.634  20.636  0.00  0.00    +0.000 HD
ATOM     35  H   UNL     1      -1.674  12.652  22.334  0.00  0.00    +0.000 HD
ENDBRANCH  23  24
ENDBRANCH  22  23
ENDBRANCH  20  22
ENDBRANCH  19  20
ENDBRANCH   1  19
TORSDOF 12
ENDMDL
MODEL 3
REMARK VINA RESULT:      -7.1      3.732      8.554
REMARK  Name = 
REMARK  13 active torsions:
REMARK  status: ('A' for Active; 'I' for Inactive)
REMARK    1  A    between atoms: C_1  and  C_2
REMARK    2  A    between atoms: C_2  and  C_3
REMARK    3  A    between atoms: C_2  and  O_14
REMARK    4  A    between atoms: C_3  and  N_4
REMARK    5  A    between atoms: O_14  and  C_15
REMARK    6  A    between atoms: C_15  and  P_16
REMARK    7  A    between atoms: P_16  and  O_18
REMARK    8  A    between atoms: P_16  and  N_19
REMARK    9  A    between atoms: N_19  and  C_20
REMARK   10  A    between atoms: C_20  and  C_21
REMARK   11  A    between atoms: C_20  and  C_28
REMARK   12  A    between atoms: C_21  and  C_22
REMARK   13  A    between atoms: C_28  and  O_30
REMARK                            x       y       z     vdW  Elec       q    Type
REMARK                         _______ _______ _______ _____ _____    ______ ____
ROOT
ATOM      1  P   UNL     1       5.626   4.677  18.879  0.00  0.00    +0.000 P 
ATOM      2  O   UNL     1       6.547   5.231  19.964  0.00  0.00    +0.000 OA
ENDROOT
BRANCH   1   3
ATOM      3  O   UNL     1       5.238   3.105  19.122  0.00  0.00    +0.000 OA
ATOM      4  H   UNL     1       5.051   2.613  18.295  0.00  0.00    +0.000 HD
ENDBRANCH   1   3
BRANCH   1   5
ATOM      5  N   UNL     1       6.961   4.175  17.814  0.00  0.00    +0.000 NA
ATOM      6  H   UNL     1       6.793   3.174  17.697  0.00  0.00    +0.000 HD
BRANCH   5   7
ATOM      7  C   UNL     1       6.874   4.735  16.392  0.00  0.00    +0.000 C 
BRANCH   7   8
ATOM      8  C   UNL     1       6.868   6.273  16.442  0.00  0.00    +0.000 C 
ATOM      9  O   UNL     1       7.804   6.961  16.819  0.00  0.00    +0.000 OA
BRANCH   8  10
ATOM     10  O   UNL     1       5.676   6.788  16.066  0.00  0.00    +0.000 OA
ATOM     11  H   UNL     1       4.980   6.275  16.534  0.00  0.00    +0.000 HD
ENDBRANCH   8  10
ENDBRANCH   7   8
BRANCH   7  12
ATOM     12  C   UNL     1       5.748   4.238  15.448  0.00  0.00    +0.000 C 
BRANCH  12  13
ATOM     13  C   UNL     1       6.023   4.043  13.977  0.00  0.00    +0.000 A 
ATOM     14  C   UNL     1       5.023   3.447  13.190  0.00  0.00    +0.000 A 
ATOM     15  C   UNL     1       5.236   3.197  11.836  0.00  0.00    +0.000 A 
ATOM     16  C   UNL     1       6.443   3.560  11.247  0.00  0.00    +0.000 A 
ATOM     17  C   UNL     1       7.414   4.214  12.000  0.00  0.00    +0.000 A 
ATOM     18  C   UNL     1       7.197   4.469  13.352  0.00  0.00    +0.000 A 
ENDBRANCH  12  13
ENDBRANCH   7  12
ENDBRANCH   5   7
ENDBRANCH   1   5
BRANCH   1  19
ATOM     19  C   UNL     1       4.253   5.194  19.974  0.00  0.00    +0.000 C 
BRANCH  19  20
ATOM     20  O   UNL     1       3.017   4.546  19.619  0.00  0.00    +0.000 OA
BRANCH  20  22
ATOM     21  C   UNL     1       1.561   4.837  17.670  0.00  0.00    +0.000 C 
ATOM     22  C   UNL     1       2.127   5.475  18.944  0.00  0.00    +0.000 C 
BRANCH  22  23
ATOM     23  C   UNL     1       2.900   6.748  18.572  0.00  0.00    +0.000 C 
BRANCH  23  24
ATOM     24  N   UNL     1       2.082   7.937  18.694  0.00  0.00    +0.000 N 
ATOM     25  C   UNL     1       1.689   8.743  17.661  0.00  0.00    +0.000 A 
ATOM     26  N   UNL     1       1.003   9.781  18.081  0.00  0.00    +0.000 NA
ATOM     27  C   UNL     1       0.928   9.622  19.451  0.00  0.00    +0.000 A 
ATOM     28  C   UNL     1       0.333  10.392  20.464  0.00  0.00    +0.000 A 
ATOM     29  N   UNL     1      -0.307  11.598  20.215  0.00  0.00    +0.000 N 
ATOM     30  N   UNL     1       0.382   9.934  21.736  0.00  0.00    +0.000 NA
ATOM     31  C   UNL     1       1.035   8.775  21.977  0.00  0.00    +0.000 A 
ATOM     32  N   UNL     1       1.678   7.976  21.097  0.00  0.00    +0.000 NA
ATOM     33  C   UNL     1       1.574   8.463  19.850  0.00  0.00    +0.000 A 
ATOM     34  H   UNL     1      -0.592  11.707  19.248  0.00  0.00    +0.000 HD
ATOM     35  H   UNL     1      -0.976  11.833  20.936  0.00  0.00    +0.000 HD
ENDBRANCH  23  24
ENDBRANCH  22  23
ENDBRANCH  20  22
ENDBRANCH  19  20
ENDBRANCH   1  19
TORSDOF 12
ENDMDL
MODEL 4
REMARK VINA RESULT:      -7.1      2.252      3.404
REMARK  Name = 
REMARK  13 active torsions:
REMARK  status: ('A' for Active; 'I' for Inactive)
REMARK    1  A    between atoms: C_1  and  C_2
REMARK    2  A    between atoms: C_2  and  C_3
REMARK    3  A    between atoms: C_2  and  O_14
REMARK    4  A    between atoms: C_3  and  N_4
REMARK    5  A    between atoms: O_14  and  C_15
REMARK    6  A    between atoms: C_15  and  P_16
REMARK    7  A    between atoms: P_16  and  O_18
REMARK    8  A    between atoms: P_16  and  N_19
REMARK    9  A    between atoms: N_19  and  C_20
REMARK   10  A    between atoms: C_20  and  C_21
REMARK   11  A    between atoms: C_20  and  C_28
REMARK   12  A    between atoms: C_21  and  C_22
REMARK   13  A    between atoms: C_28  and  O_30
REMARK                            x       y       z     vdW  Elec       q    Type
REMARK                         _______ _______ _______ _____ _____    ______ ____
ROOT
ATOM      1  P   UNL     1       1.988   6.021  19.833  0.00  0.00    +0.000 P 
ATOM      2  O   UNL     1       1.058   5.108  20.630  0.00  0.00    +0.000 OA
ENDROOT
BRANCH   1   3
ATOM      3  O   UNL     1       3.567   5.626  20.014  0.00  0.00    +0.000 OA
ATOM      4  H   UNL     1       3.975   5.998  20.825  0.00  0.00    +0.000 HD
ENDBRANCH   1   3
BRANCH   1   5
ATOM      5  N   UNL     1       2.147   7.221  21.138  0.00  0.00    +0.000 NA
ATOM      6  H   UNL     1       3.151   7.411  21.150  0.00  0.00    +0.000 HD
BRANCH   5   7
ATOM      7  C   UNL     1       1.516   8.579  20.821  0.00  0.00    +0.000 C 
BRANCH   7   8
ATOM      8  C   UNL     1       0.329   8.831  21.768  0.00  0.00    +0.000 C 
ATOM      9  O   UNL     1      -0.708   8.187  21.771  0.00  0.00    +0.000 OA
BRANCH   8  10
ATOM     10  O   UNL     1       0.541   9.896  22.573  0.00  0.00    +0.000 OA
ATOM     11  H   UNL     1       0.809  10.645  21.996  0.00  0.00    +0.000 HD
ENDBRANCH   8  10
ENDBRANCH   7   8
BRANCH   7  12
ATOM     12  C   UNL     1       1.098   8.901  19.362  0.00  0.00    +0.000 C 
BRANCH  12  13
ATOM     13  C   UNL     1       0.516  10.250  19.020  0.00  0.00    +0.000 A 
ATOM     14  C   UNL     1      -0.806  10.299  18.547  0.00  0.00    +0.000 A 
ATOM     15  C   UNL     1      -1.384  11.511  18.170  0.00  0.00    +0.000 A 
ATOM     16  C   UNL     1      -0.655  12.690  18.283  0.00  0.00    +0.000 A 
ATOM     17  C   UNL     1       0.631  12.662  18.816  0.00  0.00    +0.000 A 
ATOM     18  C   UNL     1       1.205  11.451  19.199  0.00  0.00    +0.000 A 
ENDBRANCH  12  13
ENDBRANCH   7  12
ENDBRANCH   5   7
ENDBRANCH   1   5
BRANCH   1  19
ATOM     19  C   UNL     1       1.825   4.786  18.491  0.00  0.00    +0.000 C 
BRANCH  19  20
ATOM     20  O   UNL     1       2.909   4.878  17.549  0.00  0.00    +0.000 OA
BRANCH  20  22
ATOM     21  C   UNL     1       2.823   2.473  18.010  0.00  0.00    +0.000 C 
ATOM     22  C   UNL     1       3.240   3.567  17.019  0.00  0.00    +0.000 C 
BRANCH  22  23
ATOM     23  C   UNL     1       4.754   3.478  16.777  0.00  0.00    +0.000 C 
BRANCH  23  24
ATOM     24  N   UNL     1       5.371   4.787  16.716  0.00  0.00    +0.000 N 
ATOM     25  C   UNL     1       5.154   5.725  15.744  0.00  0.00    +0.000 A 
ATOM     26  N   UNL     1       5.898   6.794  15.917  0.00  0.00    +0.000 NA
ATOM     27  C   UNL     1       6.612   6.541  17.073  0.00  0.00    +0.000 A 
ATOM     28  C   UNL     1       7.570   7.288  17.778  0.00  0.00    +0.000 A 
ATOM     29  N   UNL     1       8.032   8.522  17.343  0.00  0.00    +0.000 N 
ATOM     30  N   UNL     1       8.058   6.784  18.935  0.00  0.00    +0.000 NA
ATOM     31  C   UNL     1       7.628   5.567  19.338  0.00  0.00    +0.000 A 
ATOM     32  N   UNL     1       6.749   4.743  18.725  0.00  0.00    +0.000 NA
ATOM     33  C   UNL     1       6.278   5.303  17.599  0.00  0.00    +0.000 A 
ATOM     34  H   UNL     1       7.406   8.973  16.683  0.00  0.00    +0.000 HD
ATOM     35  H   UNL     1       8.408   9.079  18.097  0.00  0.00    +0.000 HD
ENDBRANCH  23  24
ENDBRANCH  22  23
ENDBRANCH  20  22
ENDBRANCH  19  20
ENDBRANCH   1  19
TORSDOF 12
ENDMDL
MODEL 5
REMARK VINA RESULT:      -7.0      5.681      9.056
REMARK  Name = 
REMARK  13 active torsions:
REMARK  status: ('A' for Active; 'I' for Inactive)
REMARK    1  A    between atoms: C_1  and  C_2
REMARK    2  A    between atoms: C_2  and  C_3
REMARK    3  A    between atoms: C_2  and  O_14
REMARK    4  A    between atoms: C_3  and  N_4
REMARK    5  A    between atoms: O_14  and  C_15
REMARK    6  A    between atoms: C_15  and  P_16
REMARK    7  A    between atoms: P_16  and  O_18
REMARK    8  A    between atoms: P_16  and  N_19
REMARK    9  A    between atoms: N_19  and  C_20
REMARK   10  A    between atoms: C_20  and  C_21
REMARK   11  A    between atoms: C_20  and  C_28
REMARK   12  A    between atoms: C_21  and  C_22
REMARK   13  A    between atoms: C_28  and  O_30
REMARK                            x       y       z     vdW  Elec       q    Type
REMARK                         _______ _______ _______ _____ _____    ______ ____
ROOT
ATOM      1  P   UNL     1       7.352   7.174  17.898  0.00  0.00    +0.000 P 
ATOM      2  O   UNL     1       7.919   7.021  16.487  0.00  0.00    +0.000 OA
ENDROOT
BRANCH   1   3
ATOM      3  O   UNL     1       8.445   6.806  19.060  0.00  0.00    +0.000 OA
ATOM      4  H   UNL     1       8.040   6.463  19.885  0.00  0.00    +0.000 HD
ENDBRANCH   1   3
BRANCH   1   5
ATOM      5  N   UNL     1       6.725   5.510  17.971  0.00  0.00    +0.000 NA
ATOM      6  H   UNL     1       6.970   5.217  18.919  0.00  0.00    +0.000 HD
BRANCH   5   7
ATOM      7  C   UNL     1       5.198   5.414  17.936  0.00  0.00    +0.000 C 
BRANCH   7   8
ATOM      8  C   UNL     1       4.629   6.533  17.046  0.00  0.00    +0.000 C 
ATOM      9  O   UNL     1       3.859   7.402  17.426  0.00  0.00    +0.000 OA
BRANCH   8  10
ATOM     10  O   UNL     1       5.038   6.417  15.763  0.00  0.00    +0.000 OA
ATOM     11  H   UNL     1       5.995   6.195  15.784  0.00  0.00    +0.000 HD
ENDBRANCH   8  10
ENDBRANCH   7   8
BRANCH   7  12
ATOM     12  C   UNL     1       4.410   5.356  19.271  0.00  0.00    +0.000 C 
BRANCH  12  13
ATOM     13  C   UNL     1       3.148   4.534  19.372  0.00  0.00    +0.000 A 
ATOM     14  C   UNL     1       2.241   4.838  20.401  0.00  0.00    +0.000 A 
ATOM     15  C   UNL     1       1.082   4.084  20.575  0.00  0.00    +0.000 A 
ATOM     16  C   UNL     1       0.804   3.031  19.709  0.00  0.00    +0.000 A 
ATOM     17  C   UNL     1       1.660   2.766  18.644  0.00  0.00    +0.000 A 
ATOM     18  C   UNL     1       2.815   3.524  18.467  0.00  0.00    +0.000 A 
ENDBRANCH  12  13
ENDBRANCH   7  12
ENDBRANCH   5   7
ENDBRANCH   1   5
BRANCH   1  19
ATOM     19  C   UNL     1       7.996   8.886  17.821  0.00  0.00    +0.000 C 
BRANCH  19  20
ATOM     20  O   UNL     1       8.816   9.196  18.963  0.00  0.00    +0.000 OA
BRANCH  20  22
ATOM     21  C   UNL     1      10.085  11.048  17.981  0.00  0.00    +0.000 C 
ATOM     22  C   UNL     1       9.064  10.626  19.043  0.00  0.00    +0.000 C 
BRANCH  22  23
ATOM     23  C   UNL     1       9.609  10.975  20.435  0.00  0.00    +0.000 C 
BRANCH  23  24
ATOM     24  N   UNL     1       8.943  12.127  21.006  0.00  0.00    +0.000 N 
ATOM     25  C   UNL     1       8.822  13.353  20.410  0.00  0.00    +0.000 A 
ATOM     26  N   UNL     1       8.221  14.222  21.190  0.00  0.00    +0.000 NA
ATOM     27  C   UNL     1       7.916  13.513  22.336  0.00  0.00    +0.000 A 
ATOM     28  C   UNL     1       7.278  13.875  23.534  0.00  0.00    +0.000 A 
ATOM     29  N   UNL     1       6.846  15.168  23.796  0.00  0.00    +0.000 N 
ATOM     30  N   UNL     1       7.071  12.921  24.470  0.00  0.00    +0.000 NA
ATOM     31  C   UNL     1       7.522  11.670  24.223  0.00  0.00    +0.000 A 
ATOM     32  N   UNL     1       8.183  11.217  23.135  0.00  0.00    +0.000 NA
ATOM     33  C   UNL     1       8.337  12.197  22.230  0.00  0.00    +0.000 A 
ATOM     34  H   UNL     1       6.730  15.729  22.957  0.00  0.00    +0.000 HD
ATOM     35  H   UNL     1       6.111  15.195  24.488  0.00  0.00    +0.000 HD
ENDBRANCH  23  24
ENDBRANCH  22  23
ENDBRANCH  20  22
ENDBRANCH  19  20
ENDBRANCH   1  19
TORSDOF 12
ENDMDL
MODEL 6
REMARK VINA RESULT:      -7.0      2.132      3.321
REMARK  Name = 
REMARK  13 active torsions:
REMARK  status: ('A' for Active; 'I' for Inactive)
REMARK    1  A    between atoms: C_1  and  C_2
REMARK    2  A    between atoms: C_2  and  C_3
REMARK    3  A    between atoms: C_2  and  O_14
REMARK    4  A    between atoms: C_3  and  N_4
REMARK    5  A    between atoms: O_14  and  C_15
REMARK    6  A    between atoms: C_15  and  P_16
REMARK    7  A    between atoms: P_16  and  O_18
REMARK    8  A    between atoms: P_16  and  N_19
REMARK    9  A    between atoms: N_19  and  C_20
REMARK   10  A    between atoms: C_20  and  C_21
REMARK   11  A    between atoms: C_20  and  C_28
REMARK   12  A    between atoms: C_21  and  C_22
REMARK   13  A    between atoms: C_28  and  O_30
REMARK                            x       y       z     vdW  Elec       q    Type
REMARK                         _______ _______ _______ _____ _____    ______ ____
ROOT
ATOM      1  P   UNL     1       1.762   6.197  20.002  0.00  0.00    +0.000 P 
ATOM      2  O   UNL     1       2.035   5.095  21.024  0.00  0.00    +0.000 OA
ENDROOT
BRANCH   1   3
ATOM      3  O   UNL     1       3.091   6.594  19.132  0.00  0.00    +0.000 OA
ATOM      4  H   UNL     1       3.008   7.446  18.654  0.00  0.00    +0.000 HD
ENDBRANCH   1   3
BRANCH   1   5
ATOM      5  N   UNL     1       2.118   7.522  21.137  0.00  0.00    +0.000 NA
ATOM      6  H   UNL     1       3.106   7.714  20.957  0.00  0.00    +0.000 HD
BRANCH   5   7
ATOM      7  C   UNL     1       1.417   8.840  20.801  0.00  0.00    +0.000 C 
BRANCH   7   8
ATOM      8  C   UNL     1       0.332   9.131  21.854  0.00  0.00    +0.000 C 
ATOM      9  O   UNL     1       0.397  10.014  22.694  0.00  0.00    +0.000 OA
BRANCH   8  10
ATOM     10  O   UNL     1      -0.693   8.254  21.780  0.00  0.00    +0.000 OA
ATOM     11  H   UNL     1      -1.475   8.751  21.452  0.00  0.00    +0.000 HD
ENDBRANCH   8  10
ENDBRANCH   7   8
BRANCH   7  12
ATOM     12  C   UNL     1       0.835   9.051  19.379  0.00  0.00    +0.000 C 
BRANCH  12  13
ATOM     13  C   UNL     1       0.264  10.391  18.985  0.00  0.00    +0.000 A 
ATOM     14  C   UNL     1       1.104  11.515  19.053  0.00  0.00    +0.000 A 
ATOM     15  C   UNL     1       0.621  12.786  18.748  0.00  0.00    +0.000 A 
ATOM     16  C   UNL     1      -0.701  12.946  18.349  0.00  0.00    +0.000 A 
ATOM     17  C   UNL     1      -1.524  11.831  18.209  0.00  0.00    +0.000 A 
ATOM     18  C   UNL     1      -1.038  10.561  18.508  0.00  0.00    +0.000 A 
ENDBRANCH  12  13
ENDBRANCH   7  12
ENDBRANCH   5   7
ENDBRANCH   1   5
BRANCH   1  19
ATOM     19  C   UNL     1       1.395   4.834  18.837  0.00  0.00    +0.000 C 
BRANCH  19  20
ATOM     20  O   UNL     1       2.501   4.581  17.951  0.00  0.00    +0.000 OA
BRANCH  20  22
ATOM     21  C   UNL     1       1.557   2.367  18.411  0.00  0.00    +0.000 C 
ATOM     22  C   UNL     1       2.527   3.184  17.550  0.00  0.00    +0.000 C 
BRANCH  22  23
ATOM     23  C   UNL     1       3.948   2.628  17.723  0.00  0.00    +0.000 C 
BRANCH  23  24
ATOM     24  N   UNL     1       4.887   3.652  18.132  0.00  0.00    +0.000 N 
ATOM     25  C   UNL     1       5.093   4.075  19.416  0.00  0.00    +0.000 A 
ATOM     26  N   UNL     1       5.962   5.059  19.476  0.00  0.00    +0.000 NA
ATOM     27  C   UNL     1       6.354   5.261  18.167  0.00  0.00    +0.000 A 
ATOM     28  C   UNL     1       7.253   6.163  17.575  0.00  0.00    +0.000 A 
ATOM     29  N   UNL     1       7.931   7.134  18.298  0.00  0.00    +0.000 N 
ATOM     30  N   UNL     1       7.472   6.076  16.243  0.00  0.00    +0.000 NA
ATOM     31  C   UNL     1       6.785   5.149  15.538  0.00  0.00    +0.000 A 
ATOM     32  N   UNL     1       5.869   4.263  15.987  0.00  0.00    +0.000 NA
ATOM     33  C   UNL     1       5.712   4.375  17.316  0.00  0.00    +0.000 A 
ATOM     34  H   UNL     1       7.979   6.932  19.292  0.00  0.00    +0.000 HD
ATOM     35  H   UNL     1       8.776   7.438  17.835  0.00  0.00    +0.000 HD
ENDBRANCH  23  24
ENDBRANCH  22  23
ENDBRANCH  20  22
ENDBRANCH  19  20
ENDBRANCH   1  19
TORSDOF 12
ENDMDL
MODEL 7
REMARK VINA RESULT:      -6.9      6.389      9.388
REMARK  Name = 
REMARK  13 active torsions:
REMARK  status: ('A' for Active; 'I' for Inactive)
REMARK    1  A    between atoms: C_1  and  C_2
REMARK    2  A    between atoms: C_2  and  C_3
REMARK    3  A    between atoms: C_2  and  O_14
REMARK    4  A    between atoms: C_3  and  N_4
REMARK    5  A    between atoms: O_14  and  C_15
REMARK    6  A    between atoms: C_15  and  P_16
REMARK    7  A    between atoms: P_16  and  O_18
REMARK    8  A    between atoms: P_16  and  N_19
REMARK    9  A    between atoms: N_19  and  C_20
REMARK   10  A    between atoms: C_20  and  C_21
REMARK   11  A    between atoms: C_20  and  C_28
REMARK   12  A    between atoms: C_21  and  C_22
REMARK   13  A    between atoms: C_28  and  O_30
REMARK                            x       y       z     vdW  Elec       q    Type
REMARK                         _______ _______ _______ _____ _____    ______ ____
ROOT
ATOM      1  P   UNL     1       7.203   6.515  17.942  0.00  0.00    +0.000 P 
ATOM      2  O   UNL     1       7.816   6.259  16.566  0.00  0.00    +0.000 OA
ENDROOT
BRANCH   1   3
ATOM      3  O   UNL     1       8.281   6.317  19.159  0.00  0.00    +0.000 OA
ATOM      4  H   UNL     1       9.210   6.248  18.854  0.00  0.00    +0.000 HD
ENDBRANCH   1   3
BRANCH   1   5
ATOM      5  N   UNL     1       6.659   4.835  18.160  0.00  0.00    +0.000 NA
ATOM      6  H   UNL     1       6.399   4.808  19.148  0.00  0.00    +0.000 HD
BRANCH   5   7
ATOM      7  C   UNL     1       5.360   4.496  17.425  0.00  0.00    +0.000 C 
BRANCH   7   8
ATOM      8  C   UNL     1       5.639   4.365  15.917  0.00  0.00    +0.000 C 
ATOM      9  O   UNL     1       5.142   5.071  15.053  0.00  0.00    +0.000 OA
BRANCH   8  10
ATOM     10  O   UNL     1       6.465   3.332  15.642  0.00  0.00    +0.000 OA
ATOM     11  H   UNL     1       7.365   3.593  15.942  0.00  0.00    +0.000 HD
ENDBRANCH   8  10
ENDBRANCH   7   8
BRANCH   7  12
ATOM     12  C   UNL     1       4.106   5.381  17.650  0.00  0.00    +0.000 C 
BRANCH  12  13
ATOM     13  C   UNL     1       2.991   4.902  18.547  0.00  0.00    +0.000 A 
ATOM     14  C   UNL     1       2.792   5.567  19.768  0.00  0.00    +0.000 A 
ATOM     15  C   UNL     1       1.810   5.141  20.661  0.00  0.00    +0.000 A 
ATOM     16  C   UNL     1       1.000   4.059  20.333  0.00  0.00    +0.000 A 
ATOM     17  C   UNL     1       1.141   3.437  19.095  0.00  0.00    +0.000 A 
ATOM     18  C   UNL     1       2.119   3.868  18.202  0.00  0.00    +0.000 A 
ENDBRANCH  12  13
ENDBRANCH   7  12
ENDBRANCH   5   7
ENDBRANCH   1   5
BRANCH   1  19
ATOM     19  C   UNL     1       7.763   8.243  17.716  0.00  0.00    +0.000 C 
BRANCH  19  20
ATOM     20  O   UNL     1       8.702   8.635  18.734  0.00  0.00    +0.000 OA
BRANCH  20  22
ATOM     21  C   UNL     1       8.184  10.739  17.589  0.00  0.00    +0.000 C 
ATOM     22  C   UNL     1       8.758  10.082  18.850  0.00  0.00    +0.000 C 
BRANCH  22  23
ATOM     23  C   UNL     1      10.216  10.526  19.033  0.00  0.00    +0.000 C 
BRANCH  23  24
ATOM     24  N   UNL     1      10.323  11.949  19.285  0.00  0.00    +0.000 N 
ATOM     25  C   UNL     1       9.721  12.622  20.313  0.00  0.00    +0.000 A 
ATOM     26  N   UNL     1       9.950  13.915  20.253  0.00  0.00    +0.000 NA
ATOM     27  C   UNL     1      10.760  14.078  19.147  0.00  0.00    +0.000 A 
ATOM     28  C   UNL     1      11.342  15.212  18.556  0.00  0.00    +0.000 A 
ATOM     29  N   UNL     1      11.126  16.500  19.026  0.00  0.00    +0.000 N 
ATOM     30  N   UNL     1      12.152  15.039  17.486  0.00  0.00    +0.000 NA
ATOM     31  C   UNL     1      12.333  13.785  17.014  0.00  0.00    +0.000 A 
ATOM     32  N   UNL     1      11.797  12.632  17.468  0.00  0.00    +0.000 NA
ATOM     33  C   UNL     1      11.025  12.858  18.544  0.00  0.00    +0.000 A 
ATOM     34  H   UNL     1      10.801  16.526  19.987  0.00  0.00    +0.000 HD
ATOM     35  H   UNL     1      11.864  17.135  18.757  0.00  0.00    +0.000 HD
ENDBRANCH  23  24
ENDBRANCH  22  23
ENDBRANCH  20  22
ENDBRANCH  19  20
ENDBRANCH   1  19
TORSDOF 12
ENDMDL
MODEL 8
REMARK VINA RESULT:      -6.9      2.895      9.653
REMARK  Name = 
REMARK  13 active torsions:
REMARK  status: ('A' for Active; 'I' for Inactive)
REMARK    1  A    between atoms: C_1  and  C_2
REMARK    2  A    between atoms: C_2  and  C_3
REMARK    3  A    between atoms: C_2  and  O_14
REMARK    4  A    between atoms: C_3  and  N_4
REMARK    5  A    between atoms: O_14  and  C_15
REMARK    6  A    between atoms: C_15  and  P_16
REMARK    7  A    between atoms: P_16  and  O_18
REMARK    8  A    between atoms: P_16  and  N_19
REMARK    9  A    between atoms: N_19  and  C_20
REMARK   10  A    between atoms: C_20  and  C_21
REMARK   11  A    between atoms: C_20  and  C_28
REMARK   12  A    between atoms: C_21  and  C_22
REMARK   13  A    between atoms: C_28  and  O_30
REMARK                            x       y       z     vdW  Elec       q    Type
REMARK                         _______ _______ _______ _____ _____    ______ ____
ROOT
ATOM      1  P   UNL     1       2.498   6.752  19.745  0.00  0.00    +0.000 P 
ATOM      2  O   UNL     1       1.442   7.351  20.672  0.00  0.00    +0.000 OA
ENDROOT
BRANCH   1   3
ATOM      3  O   UNL     1       1.854   5.763  18.610  0.00  0.00    +0.000 OA
ATOM      4  H   UNL     1       2.399   5.687  17.799  0.00  0.00    +0.000 HD
ENDBRANCH   1   3
BRANCH   1   5
ATOM      5  N   UNL     1       2.806   5.343  20.787  0.00  0.00    +0.000 NA
ATOM      6  H   UNL     1       2.039   5.388  21.461  0.00  0.00    +0.000 HD
BRANCH   5   7
ATOM      7  C   UNL     1       2.609   3.994  20.092  0.00  0.00    +0.000 C 
BRANCH   7   8
ATOM      8  C   UNL     1       1.739   3.080  20.973  0.00  0.00    +0.000 C 
ATOM      9  O   UNL     1       2.131   2.495  21.970  0.00  0.00    +0.000 OA
BRANCH   8  10
ATOM     10  O   UNL     1       0.485   2.950  20.485  0.00  0.00    +0.000 OA
ATOM     11  H   UNL     1       0.423   3.526  19.691  0.00  0.00    +0.000 HD
ENDBRANCH   8  10
ENDBRANCH   7   8
BRANCH   7  12
ATOM     12  C   UNL     1       3.850   3.209  19.591  0.00  0.00    +0.000 C 
BRANCH  12  13
ATOM     13  C   UNL     1       4.679   3.748  18.451  0.00  0.00    +0.000 A 
ATOM     14  C   UNL     1       5.838   4.478  18.764  0.00  0.00    +0.000 A 
ATOM     15  C   UNL     1       6.618   5.043  17.756  0.00  0.00    +0.000 A 
ATOM     16  C   UNL     1       6.263   4.864  16.423  0.00  0.00    +0.000 A 
ATOM     17  C   UNL     1       5.156   4.083  16.099  0.00  0.00    +0.000 A 
ATOM     18  C   UNL     1       4.381   3.515  17.107  0.00  0.00    +0.000 A 
ENDBRANCH  12  13
ENDBRANCH   7  12
ENDBRANCH   5   7
ENDBRANCH   1   5
BRANCH   1  19
ATOM     19  C   UNL     1       2.181   8.202  18.674  0.00  0.00    +0.000 C 
BRANCH  19  20
ATOM     20  O   UNL     1       1.208   9.090  19.255  0.00  0.00    +0.000 OA
BRANCH  20  22
ATOM     21  C   UNL     1       2.174  10.969  18.013  0.00  0.00    +0.000 C 
ATOM     22  C   UNL     1       0.901  10.180  18.345  0.00  0.00    +0.000 C 
BRANCH  22  23
ATOM     23  C   UNL     1      -0.120  11.122  18.999  0.00  0.00    +0.000 C 
BRANCH  23  24
ATOM     24  N   UNL     1      -1.443  10.969  18.429  0.00  0.00    +0.000 N 
ATOM     25  C   UNL     1      -1.756  10.203  17.339  0.00  0.00    +0.000 A 
ATOM     26  N   UNL     1      -3.025  10.305  17.014  0.00  0.00    +0.000 NA
ATOM     27  C   UNL     1      -3.561  11.159  17.959  0.00  0.00    +0.000 A 
ATOM     28  C   UNL     1      -4.857  11.662  18.155  0.00  0.00    +0.000 A 
ATOM     29  N   UNL     1      -5.913  11.377  17.300  0.00  0.00    +0.000 N 
ATOM     30  N   UNL     1      -5.088  12.453  19.228  0.00  0.00    +0.000 NA
ATOM     31  C   UNL     1      -4.050  12.753  20.040  0.00  0.00    +0.000 A 
ATOM     32  N   UNL     1      -2.759  12.367  19.928  0.00  0.00    +0.000 NA
ATOM     33  C   UNL     1      -2.594  11.564  18.865  0.00  0.00    +0.000 A 
ATOM     34  H   UNL     1      -5.759  10.546  16.738  0.00  0.00    +0.000 HD
ATOM     35  H   UNL     1      -6.812  11.487  17.748  0.00  0.00    +0.000 HD
ENDBRANCH  23  24
ENDBRANCH  22  23
ENDBRANCH  20  22
ENDBRANCH  19  20
ENDBRANCH   1  19
TORSDOF 12
ENDMDL
MODEL 9
REMARK VINA RESULT:      -6.9      1.887      3.091
REMARK  Name = 
REMARK  13 active torsions:
REMARK  status: ('A' for Active; 'I' for Inactive)
REMARK    1  A    between atoms: C_1  and  C_2
REMARK    2  A    between atoms: C_2  and  C_3
REMARK    3  A    between atoms: C_2  and  O_14
REMARK    4  A    between atoms: C_3  and  N_4
REMARK    5  A    between atoms: O_14  and  C_15
REMARK    6  A    between atoms: C_15  and  P_16
REMARK    7  A    between atoms: P_16  and  O_18
REMARK    8  A    between atoms: P_16  and  N_19
REMARK    9  A    between atoms: N_19  and  C_20
REMARK   10  A    between atoms: C_20  and  C_21
REMARK   11  A    between atoms: C_20  and  C_28
REMARK   12  A    between atoms: C_21  and  C_22
REMARK   13  A    between atoms: C_28  and  O_30
REMARK                            x       y       z     vdW  Elec       q    Type
REMARK                         _______ _______ _______ _____ _____    ______ ____
ROOT
ATOM      1  P   UNL     1       0.456   9.296  21.146  0.00  0.00    +0.000 P 
ATOM      2  O   UNL     1      -0.491   8.232  21.698  0.00  0.00    +0.000 OA
ENDROOT
BRANCH   1   3
ATOM      3  O   UNL     1       1.471   9.890  22.286  0.00  0.00    +0.000 OA
ATOM      4  H   UNL     1       2.035  10.625  21.966  0.00  0.00    +0.000 HD
ENDBRANCH   1   3
BRANCH   1   5
ATOM      5  N   UNL     1      -0.665  10.644  21.454  0.00  0.00    +0.000 NA
ATOM      6  H   UNL     1      -0.169  11.195  22.158  0.00  0.00    +0.000 HD
BRANCH   5   7
ATOM      7  C   UNL     1      -0.827  11.607  20.276  0.00  0.00    +0.000 C 
BRANCH   7   8
ATOM      8  C   UNL     1       0.073  12.838  20.488  0.00  0.00    +0.000 C 
ATOM      9  O   UNL     1       0.249  13.722  19.664  0.00  0.00    +0.000 OA
BRANCH   8  10
ATOM     10  O   UNL     1       0.700  12.808  21.684  0.00  0.00    +0.000 OA
ATOM     11  H   UNL     1       0.182  12.208  22.267  0.00  0.00    +0.000 HD
ENDBRANCH   8  10
ENDBRANCH   7   8
BRANCH   7  12
ATOM     12  C   UNL     1      -2.249  12.065  19.857  0.00  0.00    +0.000 C 
BRANCH  12  13
ATOM     13  C   UNL     1      -2.805  11.674  18.510  0.00  0.00    +0.000 A 
ATOM     14  C   UNL     1      -4.200  11.673  18.345  0.00  0.00    +0.000 A 
ATOM     15  C   UNL     1      -4.776  11.275  17.139  0.00  0.00    +0.000 A 
ATOM     16  C   UNL     1      -3.963  10.895  16.077  0.00  0.00    +0.000 A 
ATOM     17  C   UNL     1      -2.578  10.960  16.206  0.00  0.00    +0.000 A 
ATOM     18  C   UNL     1      -2.004  11.363  17.409  0.00  0.00    +0.000 A 
ENDBRANCH  12  13
ENDBRANCH   7  12
ENDBRANCH   5   7
ENDBRANCH   1   5
BRANCH   1  19
ATOM     19  C   UNL     1       1.608   7.910  20.829  0.00  0.00    +0.000 C 
BRANCH  19  20
ATOM     20  O   UNL     1       1.456   7.386  19.497  0.00  0.00    +0.000 OA
BRANCH  20  22
ATOM     21  C   UNL     1       2.002   9.106  17.839  0.00  0.00    +0.000 C 
ATOM     22  C   UNL     1       2.504   7.889  18.626  0.00  0.00    +0.000 C 
BRANCH  22  23
ATOM     23  C   UNL     1       2.924   6.789  17.641  0.00  0.00    +0.000 C 
BRANCH  23  24
ATOM     24  N   UNL     1       3.619   5.704  18.303  0.00  0.00    +0.000 N 
ATOM     25  C   UNL     1       4.849   5.791  18.897  0.00  0.00    +0.000 A 
ATOM     26  N   UNL     1       5.253   4.631  19.362  0.00  0.00    +0.000 NA
ATOM     27  C   UNL     1       4.221   3.759  19.077  0.00  0.00    +0.000 A 
ATOM     28  C   UNL     1       4.046   2.386  19.315  0.00  0.00    +0.000 A 
ATOM     29  N   UNL     1       5.022   1.594  19.905  0.00  0.00    +0.000 N 
ATOM     30  N   UNL     1       2.873   1.812  18.960  0.00  0.00    +0.000 NA
ATOM     31  C   UNL     1       1.939   2.582  18.358  0.00  0.00    +0.000 A 
ATOM     32  N   UNL     1       2.010   3.893  18.039  0.00  0.00    +0.000 NA
ATOM     33  C   UNL     1       3.181   4.416  18.438  0.00  0.00    +0.000 A 
ATOM     34  H   UNL     1       5.706   2.128  20.431  0.00  0.00    +0.000 HD
ATOM     35  H   UNL     1       4.636   0.765  20.334  0.00  0.00    +0.000 HD
ENDBRANCH  23  24
ENDBRANCH  22  23
ENDBRANCH  20  22
ENDBRANCH  19  20
ENDBRANCH   1  19
TORSDOF 12
ENDMDL
