MODEL 1
REMARK VINA RESULT:      -6.2      0.000      0.000
REMARK  Name = 
REMARK  7 active torsions:
REMARK  status: ('A' for Active; 'I' for Inactive)
REMARK    1  A    between atoms: C_1  and  C_2
REMARK    2  A    between atoms: C_2  and  C_3
REMARK    3  A    between atoms: C_3  and  C_4
REMARK    4  A    between atoms: C_3  and  C_5
REMARK    5  A    between atoms: C_9  and  C_10
REMARK    6  A    between atoms: C_10  and  C_11
REMARK    7  A    between atoms: C_13  and  O_14
REMARK                            x       y       z     vdW  Elec       q    Type
REMARK                         _______ _______ _______ _____ _____    ______ ____
ROOT
ATOM      1  C   UNL     1       4.605   4.040  18.243  0.00  0.00    +0.000 C 
ATOM      2  N   UNL     1       5.422   4.245  19.411  0.00  0.00    +0.000 N 
ATOM      3  C   UNL     1       6.461   5.129  19.211  0.00  0.00    +0.000 C 
ATOM      4  O   UNL     1       7.297   5.429  20.040  0.00  0.00    +0.000 OA
ATOM      5  C   UNL     1       6.378   5.601  17.822  0.00  0.00    +0.000 C 
ATOM      6  C   UNL     1       5.324   4.958  17.288  0.00  0.00    +0.000 C 
ATOM      7  H   UNL     1       5.336   3.747  20.287  0.00  0.00    +0.000 HD
ENDROOT
BRANCH   5   8
ATOM      8  C   UNL     1       7.246   6.520  17.070  0.00  0.00    +0.000 C 
ATOM      9  C   UNL     1       7.696   7.829  17.657  0.00  0.00    +0.000 C 
ATOM     10  O   UNL     1       7.610   6.192  15.933  0.00  0.00    +0.000 OA
ENDBRANCH   5   8
BRANCH   1  11
ATOM     11  C   UNL     1       3.119   4.367  18.524  0.00  0.00    +0.000 C 
ATOM     12  C   UNL     1       2.152   3.579  17.631  0.00  0.00    +0.000 C 
BRANCH  11  14
ATOM     13  C   UNL     1       1.771   5.217  20.586  0.00  0.00    +0.000 C 
ATOM     14  C   UNL     1       2.732   4.181  20.015  0.00  0.00    +0.000 C 
ENDBRANCH  11  14
ENDBRANCH   1  11
BRANCH   6  15
ATOM     15  O   UNL     1       4.922   5.030  15.974  0.00  0.00    +0.000 OA
ATOM     16  H   UNL     1       4.190   4.378  15.849  0.00  0.00    +0.000 HD
ENDBRANCH   6  15
TORSDOF 4
ENDMDL
MODEL 2
REMARK VINA RESULT:      -6.2      1.943      2.761
REMARK  Name = 
REMARK  7 active torsions:
REMARK  status: ('A' for Active; 'I' for Inactive)
REMARK    1  A    between atoms: C_1  and  C_2
REMARK    2  A    between atoms: C_2  and  C_3
REMARK    3  A    between atoms: C_3  and  C_4
REMARK    4  A    between atoms: C_3  and  C_5
REMARK    5  A    between atoms: C_9  and  C_10
REMARK    6  A    between atoms: C_10  and  C_11
REMARK    7  A    between atoms: C_13  and  O_14
REMARK                            x       y       z     vdW  Elec       q    Type
REMARK                         _______ _______ _______ _____ _____    ______ ____
ROOT
ATOM      1  C   UNL     1       4.043   5.752  18.503  0.00  0.00    +0.000 C 
ATOM      2  N   UNL     1       4.020   6.718  17.435  0.00  0.00    +0.000 N 
ATOM      3  C   UNL     1       4.915   6.445  16.423  0.00  0.00    +0.000 C 
ATOM      4  O   UNL     1       5.096   7.137  15.440  0.00  0.00    +0.000 OA
ATOM      5  C   UNL     1       5.613   5.201  16.773  0.00  0.00    +0.000 C 
ATOM      6  C   UNL     1       5.110   4.833  17.965  0.00  0.00    +0.000 C 
ATOM      7  H   UNL     1       3.482   7.575  17.425  0.00  0.00    +0.000 HD
ENDROOT
BRANCH   5   8
ATOM      8  C   UNL     1       6.685   4.475  16.076  0.00  0.00    +0.000 C 
ATOM      9  C   UNL     1       6.467   3.878  14.712  0.00  0.00    +0.000 C 
ATOM     10  O   UNL     1       7.785   4.365  16.632  0.00  0.00    +0.000 OA
ENDBRANCH   5   8
BRANCH   1  11
ATOM     11  C   UNL     1       2.647   5.125  18.732  0.00  0.00    +0.000 C 
ATOM     12  C   UNL     1       2.327   3.996  17.744  0.00  0.00    +0.000 C 
BRANCH  11  14
ATOM     13  C   UNL     1       1.150   3.862  20.452  0.00  0.00    +0.000 C 
ATOM     14  C   UNL     1       2.441   4.627  20.187  0.00  0.00    +0.000 C 
ENDBRANCH  11  14
ENDBRANCH   1  11
BRANCH   6  15
ATOM     15  O   UNL     1       5.535   3.763  18.719  0.00  0.00    +0.000 OA
ATOM     16  H   UNL     1       6.315   3.364  18.260  0.00  0.00    +0.000 HD
ENDBRANCH   6  15
TORSDOF 4
ENDMDL
MODEL 3
REMARK VINA RESULT:      -6.2      0.790      1.505
REMARK  Name = 
REMARK  7 active torsions:
REMARK  status: ('A' for Active; 'I' for Inactive)
REMARK    1  A    between atoms: C_1  and  C_2
REMARK    2  A    between atoms: C_2  and  C_3
REMARK    3  A    between atoms: C_3  and  C_4
REMARK    4  A    between atoms: C_3  and  C_5
REMARK    5  A    between atoms: C_9  and  C_10
REMARK    6  A    between atoms: C_10  and  C_11
REMARK    7  A    between atoms: C_13  and  O_14
REMARK                            x       y       z     vdW  Elec       q    Type
REMARK                         _______ _______ _______ _____ _____    ______ ____
ROOT
ATOM      1  C   UNL     1       4.564   4.396  18.419  0.00  0.00    +0.000 C 
ATOM      2  N   UNL     1       5.474   4.486  19.532  0.00  0.00    +0.000 N 
ATOM      3  C   UNL     1       6.565   5.293  19.291  0.00  0.00    +0.000 C 
ATOM      4  O   UNL     1       7.478   5.490  20.068  0.00  0.00    +0.000 OA
ATOM      5  C   UNL     1       6.425   5.830  17.931  0.00  0.00    +0.000 C 
ATOM      6  C   UNL     1       5.288   5.296  17.451  0.00  0.00    +0.000 C 
ATOM      7  H   UNL     1       5.408   3.959  20.393  0.00  0.00    +0.000 HD
ENDROOT
BRANCH   5   8
ATOM      8  C   UNL     1       7.310   6.710  17.152  0.00  0.00    +0.000 C 
ATOM      9  C   UNL     1       7.797   8.020  17.707  0.00  0.00    +0.000 C 
ATOM     10  O   UNL     1       7.658   6.348  16.021  0.00  0.00    +0.000 OA
ENDBRANCH   5   8
BRANCH   1  11
ATOM     11  C   UNL     1       3.133   4.827  18.820  0.00  0.00    +0.000 C 
ATOM     12  C   UNL     1       2.920   6.344  18.748  0.00  0.00    +0.000 C 
BRANCH  11  14
ATOM     13  C   UNL     1       2.417   2.738  17.436  0.00  0.00    +0.000 C 
ATOM     14  C   UNL     1       2.033   4.099  18.002  0.00  0.00    +0.000 C 
ENDBRANCH  11  14
ENDBRANCH   1  11
BRANCH   6  15
ATOM     15  O   UNL     1       4.803   5.457  16.173  0.00  0.00    +0.000 OA
ATOM     16  H   UNL     1       3.842   5.678  16.243  0.00  0.00    +0.000 HD
ENDBRANCH   6  15
TORSDOF 4
ENDMDL
MODEL 4
REMARK VINA RESULT:      -6.1      2.402      4.962
REMARK  Name = 
REMARK  7 active torsions:
REMARK  status: ('A' for Active; 'I' for Inactive)
REMARK    1  A    between atoms: C_1  and  C_2
REMARK    2  A    between atoms: C_2  and  C_3
REMARK    3  A    between atoms: C_3  and  C_4
REMARK    4  A    between atoms: C_3  and  C_5
REMARK    5  A    between atoms: C_9  and  C_10
REMARK    6  A    between atoms: C_10  and  C_11
REMARK    7  A    between atoms: C_13  and  O_14
REMARK                            x       y       z     vdW  Elec       q    Type
REMARK                         _______ _______ _______ _____ _____    ______ ____
ROOT
ATOM      1  C   UNL     1       5.249   4.905  18.375  0.00  0.00    +0.000 C 
ATOM      2  N   UNL     1       5.440   3.662  19.078  0.00  0.00    +0.000 N 
ATOM      3  C   UNL     1       4.266   2.995  19.352  0.00  0.00    +0.000 C 
ATOM      4  O   UNL     1       4.179   1.948  19.963  0.00  0.00    +0.000 OA
ATOM      5  C   UNL     1       3.164   3.795  18.801  0.00  0.00    +0.000 C 
ATOM      6  C   UNL     1       3.746   4.882  18.263  0.00  0.00    +0.000 C 
ATOM      7  H   UNL     1       6.321   3.314  19.434  0.00  0.00    +0.000 HD
ENDROOT
BRANCH   5   8
ATOM      8  C   UNL     1       1.710   3.576  18.836  0.00  0.00    +0.000 C 
ATOM      9  C   UNL     1       0.970   3.437  20.137  0.00  0.00    +0.000 C 
ATOM     10  O   UNL     1       1.096   3.514  17.763  0.00  0.00    +0.000 OA
ENDBRANCH   5   8
BRANCH   1  11
ATOM     11  C   UNL     1       6.038   4.933  17.045  0.00  0.00    +0.000 C 
ATOM     12  C   UNL     1       7.522   4.584  17.220  0.00  0.00    +0.000 C 
BRANCH  11  14
ATOM     13  C   UNL     1       6.061   4.101  14.576  0.00  0.00    +0.000 C 
ATOM     14  C   UNL     1       5.409   4.031  15.951  0.00  0.00    +0.000 C 
ENDBRANCH  11  14
ENDBRANCH   1  11
BRANCH   6  15
ATOM     15  O   UNL     1       3.086   5.952  17.705  0.00  0.00    +0.000 OA
ATOM     16  H   UNL     1       2.537   5.609  16.957  0.00  0.00    +0.000 HD
ENDBRANCH   6  15
TORSDOF 4
ENDMDL
MODEL 5
REMARK VINA RESULT:      -6.1      2.747      5.126
REMARK  Name = 
REMARK  7 active torsions:
REMARK  status: ('A' for Active; 'I' for Inactive)
REMARK    1  A    between atoms: C_1  and  C_2
REMARK    2  A    between atoms: C_2  and  C_3
REMARK    3  A    between atoms: C_3  and  C_4
REMARK    4  A    between atoms: C_3  and  C_5
REMARK    5  A    between atoms: C_9  and  C_10
REMARK    6  A    between atoms: C_10  and  C_11
REMARK    7  A    between atoms: C_13  and  O_14
REMARK                            x       y       z     vdW  Elec       q    Type
REMARK                         _______ _______ _______ _____ _____    ______ ____
ROOT
ATOM      1  C   UNL     1       4.620   4.849  18.249  0.00  0.00    +0.000 C 
ATOM      2  N   UNL     1       5.307   3.719  18.820  0.00  0.00    +0.000 N 
ATOM      3  C   UNL     1       4.491   2.890  19.559  0.00  0.00    +0.000 C 
ATOM      4  O   UNL     1       4.856   1.898  20.159  0.00  0.00    +0.000 OA
ATOM      5  C   UNL     1       3.132   3.446  19.505  0.00  0.00    +0.000 C 
ATOM      6  C   UNL     1       3.233   4.565  18.767  0.00  0.00    +0.000 C 
ATOM      7  H   UNL     1       6.305   3.554  18.783  0.00  0.00    +0.000 HD
ENDROOT
BRANCH   5   8
ATOM      8  C   UNL     1       1.885   2.990  20.138  0.00  0.00    +0.000 C 
ATOM      9  C   UNL     1       1.792   2.782  21.624  0.00  0.00    +0.000 C 
ATOM     10  O   UNL     1       0.898   2.784  19.419  0.00  0.00    +0.000 OA
ENDBRANCH   5   8
BRANCH   1  11
ATOM     11  C   UNL     1       4.785   4.897  16.712  0.00  0.00    +0.000 C 
ATOM     12  C   UNL     1       5.058   6.311  16.182  0.00  0.00    +0.000 C 
BRANCH  11  14
ATOM     13  C   UNL     1       6.663   4.390  14.978  0.00  0.00    +0.000 C 
ATOM     14  C   UNL     1       5.869   3.918  16.190  0.00  0.00    +0.000 C 
ENDBRANCH  11  14
ENDBRANCH   1  11
BRANCH   6  15
ATOM     15  O   UNL     1       2.216   5.460  18.523  0.00  0.00    +0.000 OA
ATOM     16  H   UNL     1       2.627   6.301  18.206  0.00  0.00    +0.000 HD
ENDBRANCH   6  15
TORSDOF 4
ENDMDL
MODEL 6
REMARK VINA RESULT:      -6.1      1.967      2.716
REMARK  Name = 
REMARK  7 active torsions:
REMARK  status: ('A' for Active; 'I' for Inactive)
REMARK    1  A    between atoms: C_1  and  C_2
REMARK    2  A    between atoms: C_2  and  C_3
REMARK    3  A    between atoms: C_3  and  C_4
REMARK    4  A    between atoms: C_3  and  C_5
REMARK    5  A    between atoms: C_9  and  C_10
REMARK    6  A    between atoms: C_10  and  C_11
REMARK    7  A    between atoms: C_13  and  O_14
REMARK                            x       y       z     vdW  Elec       q    Type
REMARK                         _______ _______ _______ _____ _____    ______ ____
ROOT
ATOM      1  C   UNL     1       3.147   4.405  19.225  0.00  0.00    +0.000 C 
ATOM      2  N   UNL     1       3.068   5.593  18.414  0.00  0.00    +0.000 N 
ATOM      3  C   UNL     1       4.221   5.860  17.709  0.00  0.00    +0.000 C 
ATOM      4  O   UNL     1       4.397   6.823  16.989  0.00  0.00    +0.000 OA
ATOM      5  C   UNL     1       5.183   4.793  18.015  0.00  0.00    +0.000 C 
ATOM      6  C   UNL     1       4.555   3.986  18.889  0.00  0.00    +0.000 C 
ATOM      7  H   UNL     1       2.296   6.248  18.399  0.00  0.00    +0.000 HD
ENDROOT
BRANCH   5   8
ATOM      8  C   UNL     1       6.571   4.597  17.569  0.00  0.00    +0.000 C 
ATOM      9  C   UNL     1       6.926   4.558  16.108  0.00  0.00    +0.000 C 
ATOM     10  O   UNL     1       7.455   4.470  18.426  0.00  0.00    +0.000 OA
ENDBRANCH   5   8
BRANCH   1  11
ATOM     11  C   UNL     1       2.027   3.399  18.870  0.00  0.00    +0.000 C 
ATOM     12  C   UNL     1       2.480   2.322  17.877  0.00  0.00    +0.000 C 
BRANCH  11  14
ATOM     13  C   UNL     1       2.098   3.007  21.445  0.00  0.00    +0.000 C 
ATOM     14  C   UNL     1       1.396   2.733  20.121  0.00  0.00    +0.000 C 
ENDBRANCH  11  14
ENDBRANCH   1  11
BRANCH   6  15
ATOM     15  O   UNL     1       5.112   2.895  19.515  0.00  0.00    +0.000 OA
ATOM     16  H   UNL     1       5.865   2.580  18.957  0.00  0.00    +0.000 HD
ENDBRANCH   6  15
TORSDOF 4
ENDMDL
MODEL 7
REMARK VINA RESULT:      -6.1      1.893      3.031
REMARK  Name = 
REMARK  7 active torsions:
REMARK  status: ('A' for Active; 'I' for Inactive)
REMARK    1  A    between atoms: C_1  and  C_2
REMARK    2  A    between atoms: C_2  and  C_3
REMARK    3  A    between atoms: C_3  and  C_4
REMARK    4  A    between atoms: C_3  and  C_5
REMARK    5  A    between atoms: C_9  and  C_10
REMARK    6  A    between atoms: C_10  and  C_11
REMARK    7  A    between atoms: C_13  and  O_14
REMARK                            x       y       z     vdW  Elec       q    Type
REMARK                         _______ _______ _______ _____ _____    ______ ____
ROOT
ATOM      1  C   UNL     1       4.674   5.777  18.659  0.00  0.00    +0.000 C 
ATOM      2  N   UNL     1       4.342   6.682  17.589  0.00  0.00    +0.000 N 
ATOM      3  C   UNL     1       4.994   6.404  16.407  0.00  0.00    +0.000 C 
ATOM      4  O   UNL     1       4.896   7.050  15.383  0.00  0.00    +0.000 OA
ATOM      5  C   UNL     1       5.833   5.219  16.632  0.00  0.00    +0.000 C 
ATOM      6  C   UNL     1       5.645   4.889  17.923  0.00  0.00    +0.000 C 
ATOM      7  H   UNL     1       3.762   7.507  17.672  0.00  0.00    +0.000 HD
ENDROOT
BRANCH   5   8
ATOM      8  C   UNL     1       6.758   4.515  15.732  0.00  0.00    +0.000 C 
ATOM      9  C   UNL     1       6.298   3.967  14.409  0.00  0.00    +0.000 C 
ATOM     10  O   UNL     1       7.938   4.382  16.082  0.00  0.00    +0.000 OA
ENDBRANCH   5   8
BRANCH   1  11
ATOM     11  C   UNL     1       3.414   5.089  19.234  0.00  0.00    +0.000 C 
ATOM     12  C   UNL     1       2.318   6.085  19.635  0.00  0.00    +0.000 C 
BRANCH  11  14
ATOM     13  C   UNL     1       1.482   4.346  17.650  0.00  0.00    +0.000 C 
ATOM     14  C   UNL     1       2.827   4.012  18.284  0.00  0.00    +0.000 C 
ENDBRANCH  11  14
ENDBRANCH   1  11
BRANCH   6  15
ATOM     15  O   UNL     1       6.301   3.885  18.597  0.00  0.00    +0.000 OA
ATOM     16  H   UNL     1       6.149   3.043  18.102  0.00  0.00    +0.000 HD
ENDBRANCH   6  15
TORSDOF 4
ENDMDL
MODEL 8
REMARK VINA RESULT:      -6.0      2.147      4.798
REMARK  Name = 
REMARK  7 active torsions:
REMARK  status: ('A' for Active; 'I' for Inactive)
REMARK    1  A    between atoms: C_1  and  C_2
REMARK    2  A    between atoms: C_2  and  C_3
REMARK    3  A    between atoms: C_3  and  C_4
REMARK    4  A    between atoms: C_3  and  C_5
REMARK    5  A    between atoms: C_9  and  C_10
REMARK    6  A    between atoms: C_10  and  C_11
REMARK    7  A    between atoms: C_13  and  O_14
REMARK                            x       y       z     vdW  Elec       q    Type
REMARK                         _______ _______ _______ _____ _____    ______ ____
ROOT
ATOM      1  C   UNL     1       5.398   4.847  18.491  0.00  0.00    +0.000 C 
ATOM      2  N   UNL     1       5.461   3.520  19.049  0.00  0.00    +0.000 N 
ATOM      3  C   UNL     1       4.235   2.898  19.136  0.00  0.00    +0.000 C 
ATOM      4  O   UNL     1       4.039   1.793  19.603  0.00  0.00    +0.000 OA
ATOM      5  C   UNL     1       3.230   3.823  18.594  0.00  0.00    +0.000 C 
ATOM      6  C   UNL     1       3.913   4.928  18.247  0.00  0.00    +0.000 C 
ATOM      7  H   UNL     1       6.287   3.080  19.435  0.00  0.00    +0.000 HD
ENDROOT
BRANCH   5   8
ATOM      8  C   UNL     1       1.770   3.690  18.476  0.00  0.00    +0.000 C 
ATOM      9  C   UNL     1       0.925   3.268  19.646  0.00  0.00    +0.000 C 
ATOM     10  O   UNL     1       1.240   3.939  17.386  0.00  0.00    +0.000 OA
ENDBRANCH   5   8
BRANCH   1  11
ATOM     11  C   UNL     1       6.309   4.984  17.248  0.00  0.00    +0.000 C 
ATOM     12  C   UNL     1       5.735   4.292  16.005  0.00  0.00    +0.000 C 
BRANCH  11  14
ATOM     13  C   UNL     1       7.691   7.116  17.826  0.00  0.00    +0.000 C 
ATOM     14  C   UNL     1       6.660   6.459  16.917  0.00  0.00    +0.000 C 
ENDBRANCH  11  14
ENDBRANCH   1  11
BRANCH   6  15
ATOM     15  O   UNL     1       3.361   6.095  17.770  0.00  0.00    +0.000 OA
ATOM     16  H   UNL     1       3.931   6.843  18.077  0.00  0.00    +0.000 HD
ENDBRANCH   6  15
TORSDOF 4
ENDMDL
MODEL 9
REMARK VINA RESULT:      -6.0      1.698      2.650
REMARK  Name = 
REMARK  7 active torsions:
REMARK  status: ('A' for Active; 'I' for Inactive)
REMARK    1  A    between atoms: C_1  and  C_2
REMARK    2  A    between atoms: C_2  and  C_3
REMARK    3  A    between atoms: C_3  and  C_4
REMARK    4  A    between atoms: C_3  and  C_5
REMARK    5  A    between atoms: C_9  and  C_10
REMARK    6  A    between atoms: C_10  and  C_11
REMARK    7  A    between atoms: C_13  and  O_14
REMARK                            x       y       z     vdW  Elec       q    Type
REMARK                         _______ _______ _______ _____ _____    ______ ____
ROOT
ATOM      1  C   UNL     1       3.149   4.335  17.944  0.00  0.00    +0.000 C 
ATOM      2  N   UNL     1       3.945   3.876  16.835  0.00  0.00    +0.000 N 
ATOM      3  C   UNL     1       5.277   4.218  16.931  0.00  0.00    +0.000 C 
ATOM      4  O   UNL     1       6.127   3.970  16.100  0.00  0.00    +0.000 OA
ATOM      5  C   UNL     1       5.455   4.952  18.192  0.00  0.00    +0.000 C 
ATOM      6  C   UNL     1       4.229   5.017  18.743  0.00  0.00    +0.000 C 
ATOM      7  H   UNL     1       3.593   3.423  16.002  0.00  0.00    +0.000 HD
ENDROOT
BRANCH   5   8
ATOM      8  C   UNL     1       6.651   5.574  18.777  0.00  0.00    +0.000 C 
ATOM      9  C   UNL     1       7.477   6.565  18.004  0.00  0.00    +0.000 C 
ATOM     10  O   UNL     1       6.970   5.271  19.934  0.00  0.00    +0.000 OA
ENDBRANCH   5   8
BRANCH   1  11
ATOM     11  C   UNL     1       2.415   3.163  18.639  0.00  0.00    +0.000 C 
ATOM     12  C   UNL     1       3.361   2.243  19.421  0.00  0.00    +0.000 C 
BRANCH  11  14
ATOM     13  C   UNL     1       1.302   3.132  20.995  0.00  0.00    +0.000 C 
ATOM     14  C   UNL     1       1.258   3.636  19.558  0.00  0.00    +0.000 C 
ENDBRANCH  11  14
ENDBRANCH   1  11
BRANCH   6  15
ATOM     15  O   UNL     1       3.904   5.691  19.898  0.00  0.00    +0.000 OA
ATOM     16  H   UNL     1       3.655   6.614  19.645  0.00  0.00    +0.000 HD
ENDBRANCH   6  15
TORSDOF 4
ENDMDL
