MODEL 1
REMARK VINA RESULT:      -7.0      0.000      0.000
REMARK  Name = 
REMARK  3 active torsions:
REMARK  status: ('A' for Active; 'I' for Inactive)
REMARK    1  A    between atoms: C_2  and  C_3
REMARK    2  A    between atoms: C_6  and  C_7
REMARK    3  A    between atoms: C_10  and  C_11
REMARK                            x       y       z     vdW  Elec       q    Type
REMARK                         _______ _______ _______ _____ _____    ______ ____
ROOT
ATOM      1  C   UNL     1       3.416   6.675  17.823  0.00  0.00    +0.000 A 
ATOM      2  C   UNL     1       4.431   7.247  17.034  0.00  0.00    +0.000 A 
ATOM      3  C   UNL     1       5.245   6.465  16.205  0.00  0.00    +0.000 A 
ATOM      4  C   UNL     1       5.086   5.077  16.153  0.00  0.00    +0.000 A 
ATOM      5  C   UNL     1       4.092   4.490  16.945  0.00  0.00    +0.000 A 
ATOM      6  C   UNL     1       3.270   5.278  17.759  0.00  0.00    +0.000 A 
ENDROOT
BRANCH   1  10
ATOM      7  C   UNL     1       0.878   9.155  20.292  0.00  0.00    +0.000 A 
ATOM      8  C   UNL     1       1.388   7.954  20.788  0.00  0.00    +0.000 A 
ATOM      9  C   UNL     1       2.199   7.150  19.979  0.00  0.00    +0.000 A 
ATOM     10  C   UNL     1       2.516   7.511  18.656  0.00  0.00    +0.000 A 
ATOM     11  C   UNL     1       1.964   8.713  18.173  0.00  0.00    +0.000 A 
ATOM     12  C   UNL     1       1.164   9.532  18.981  0.00  0.00    +0.000 A 
BRANCH   7  14
ATOM     13  N   UNL     1      -0.572  10.674  21.812  0.00  0.00    +0.000 NA
ATOM     14  C   UNL     1       0.079   9.998  21.131  0.00  0.00    +0.000 C 
ENDBRANCH   7  14
ENDBRANCH   1  10
BRANCH   4  15
ATOM     15  C   UNL     1       5.959   4.220  15.273  0.00  0.00    +0.000 C 
ATOM     16  F   UNL     1       5.604   4.248  13.957  0.00  0.00    +0.000 F 
ATOM     17  F   UNL     1       7.268   4.596  15.314  0.00  0.00    +0.000 F 
ATOM     18  F   UNL     1       5.937   2.907  15.636  0.00  0.00    +0.000 F 
ENDBRANCH   4  15
TORSDOF 3
ENDMDL
MODEL 2
REMARK VINA RESULT:      -6.9      0.132      1.430
REMARK  Name = 
REMARK  3 active torsions:
REMARK  status: ('A' for Active; 'I' for Inactive)
REMARK    1  A    between atoms: C_2  and  C_3
REMARK    2  A    between atoms: C_6  and  C_7
REMARK    3  A    between atoms: C_10  and  C_11
REMARK                            x       y       z     vdW  Elec       q    Type
REMARK                         _______ _______ _______ _____ _____    ______ ____
ROOT
ATOM      1  C   UNL     1       3.346   6.699  17.806  0.00  0.00    +0.000 A 
ATOM      2  C   UNL     1       3.214   5.298  17.786  0.00  0.00    +0.000 A 
ATOM      3  C   UNL     1       4.079   4.489  17.039  0.00  0.00    +0.000 A 
ATOM      4  C   UNL     1       5.097   5.057  16.266  0.00  0.00    +0.000 A 
ATOM      5  C   UNL     1       5.231   6.451  16.260  0.00  0.00    +0.000 A 
ATOM      6  C   UNL     1       4.373   7.253  17.021  0.00  0.00    +0.000 A 
ENDROOT
BRANCH   1  10
ATOM      7  C   UNL     1       0.863   9.227  20.282  0.00  0.00    +0.000 A 
ATOM      8  C   UNL     1       1.410   8.052  20.799  0.00  0.00    +0.000 A 
ATOM      9  C   UNL     1       2.203   7.231  19.988  0.00  0.00    +0.000 A 
ATOM     10  C   UNL     1       2.465   7.550  18.642  0.00  0.00    +0.000 A 
ATOM     11  C   UNL     1       1.875   8.726  18.139  0.00  0.00    +0.000 A 
ATOM     12  C   UNL     1       1.093   9.561  18.948  0.00  0.00    +0.000 A 
BRANCH   7  14
ATOM     13  N   UNL     1      -0.556  10.778  21.798  0.00  0.00    +0.000 NA
ATOM     14  C   UNL     1       0.082  10.086  21.121  0.00  0.00    +0.000 C 
ENDBRANCH   7  14
ENDBRANCH   1  10
BRANCH   4  15
ATOM     15  C   UNL     1       6.032   4.202  15.450  0.00  0.00    +0.000 C 
ATOM     16  F   UNL     1       5.958   2.874  15.748  0.00  0.00    +0.000 F 
ATOM     17  F   UNL     1       5.792   4.298  14.113  0.00  0.00    +0.000 F 
ATOM     18  F   UNL     1       7.339   4.549  15.620  0.00  0.00    +0.000 F 
ENDBRANCH   4  15
TORSDOF 3
ENDMDL
MODEL 3
REMARK VINA RESULT:      -6.9      5.389      7.486
REMARK  Name = 
REMARK  3 active torsions:
REMARK  status: ('A' for Active; 'I' for Inactive)
REMARK    1  A    between atoms: C_2  and  C_3
REMARK    2  A    between atoms: C_6  and  C_7
REMARK    3  A    between atoms: C_10  and  C_11
REMARK                            x       y       z     vdW  Elec       q    Type
REMARK                         _______ _______ _______ _____ _____    ______ ____
ROOT
ATOM      1  C   UNL     1       2.723   6.910  18.704  0.00  0.00    +0.000 A 
ATOM      2  C   UNL     1       2.263   8.225  18.505  0.00  0.00    +0.000 A 
ATOM      3  C   UNL     1       1.488   8.885  19.466  0.00  0.00    +0.000 A 
ATOM      4  C   UNL     1       1.128   8.244  20.656  0.00  0.00    +0.000 A 
ATOM      5  C   UNL     1       1.564   6.929  20.862  0.00  0.00    +0.000 A 
ATOM      6  C   UNL     1       2.351   6.280  19.904  0.00  0.00    +0.000 A 
ENDROOT
BRANCH   1  10
ATOM      7  C   UNL     1       5.174   4.938  15.739  0.00  0.00    +0.000 A 
ATOM      8  C   UNL     1       4.343   4.192  16.576  0.00  0.00    +0.000 A 
ATOM      9  C   UNL     1       3.561   4.836  17.542  0.00  0.00    +0.000 A 
ATOM     10  C   UNL     1       3.592   6.233  17.709  0.00  0.00    +0.000 A 
ATOM     11  C   UNL     1       4.462   6.957  16.872  0.00  0.00    +0.000 A 
ATOM     12  C   UNL     1       5.236   6.322  15.892  0.00  0.00    +0.000 A 
BRANCH   7  14
ATOM     13  N   UNL     1       6.576   3.751  13.910  0.00  0.00    +0.000 NA
ATOM     14  C   UNL     1       5.947   4.284  14.726  0.00  0.00    +0.000 C 
ENDBRANCH   7  14
ENDBRANCH   1  10
BRANCH   4  15
ATOM     15  C   UNL     1       0.289   8.937  21.698  0.00  0.00    +0.000 C 
ATOM     16  F   UNL     1       0.941   9.143  22.877  0.00  0.00    +0.000 F 
ATOM     17  F   UNL     1      -0.138  10.164  21.290  0.00  0.00    +0.000 F 
ATOM     18  F   UNL     1      -0.836   8.236  22.013  0.00  0.00    +0.000 F 
ENDBRANCH   4  15
TORSDOF 3
ENDMDL
MODEL 4
REMARK VINA RESULT:      -6.9      5.355      7.527
REMARK  Name = 
REMARK  3 active torsions:
REMARK  status: ('A' for Active; 'I' for Inactive)
REMARK    1  A    between atoms: C_2  and  C_3
REMARK    2  A    between atoms: C_6  and  C_7
REMARK    3  A    between atoms: C_10  and  C_11
REMARK                            x       y       z     vdW  Elec       q    Type
REMARK                         _______ _______ _______ _____ _____    ______ ____
ROOT
ATOM      1  C   UNL     1       2.909   6.861  18.569  0.00  0.00    +0.000 A 
ATOM      2  C   UNL     1       2.576   6.227  19.781  0.00  0.00    +0.000 A 
ATOM      3  C   UNL     1       1.741   6.838  20.724  0.00  0.00    +0.000 A 
ATOM      4  C   UNL     1       1.225   8.118  20.498  0.00  0.00    +0.000 A 
ATOM      5  C   UNL     1       1.560   8.770  19.305  0.00  0.00    +0.000 A 
ATOM      6  C   UNL     1       2.382   8.148  18.358  0.00  0.00    +0.000 A 
ENDROOT
BRANCH   1  10
ATOM      7  C   UNL     1       5.266   4.897  15.525  0.00  0.00    +0.000 A 
ATOM      8  C   UNL     1       4.520   4.145  16.433  0.00  0.00    +0.000 A 
ATOM      9  C   UNL     1       3.768   4.786  17.424  0.00  0.00    +0.000 A 
ATOM     10  C   UNL     1       3.746   6.189  17.546  0.00  0.00    +0.000 A 
ATOM     11  C   UNL     1       4.532   6.920  16.635  0.00  0.00    +0.000 A 
ATOM     12  C   UNL     1       5.275   6.287  15.630  0.00  0.00    +0.000 A 
BRANCH   7  14
ATOM     13  N   UNL     1       6.598   3.711  13.643  0.00  0.00    +0.000 NA
ATOM     14  C   UNL     1       6.006   4.243  14.487  0.00  0.00    +0.000 C 
ENDBRANCH   7  14
ENDBRANCH   1  10
BRANCH   4  15
ATOM     15  C   UNL     1       0.331   8.793  21.506  0.00  0.00    +0.000 C 
ATOM     16  F   UNL     1       0.919   8.974  22.723  0.00  0.00    +0.000 F 
ATOM     17  F   UNL     1      -0.071  10.029  21.100  0.00  0.00    +0.000 F 
ATOM     18  F   UNL     1      -0.810   8.089  21.745  0.00  0.00    +0.000 F 
ENDBRANCH   4  15
TORSDOF 3
ENDMDL
MODEL 5
REMARK VINA RESULT:      -6.9      0.133      1.827
REMARK  Name = 
REMARK  3 active torsions:
REMARK  status: ('A' for Active; 'I' for Inactive)
REMARK    1  A    between atoms: C_2  and  C_3
REMARK    2  A    between atoms: C_6  and  C_7
REMARK    3  A    between atoms: C_10  and  C_11
REMARK                            x       y       z     vdW  Elec       q    Type
REMARK                         _______ _______ _______ _____ _____    ______ ____
ROOT
ATOM      1  C   UNL     1       3.391   6.701  17.779  0.00  0.00    +0.000 A 
ATOM      2  C   UNL     1       3.237   5.302  17.793  0.00  0.00    +0.000 A 
ATOM      3  C   UNL     1       4.063   4.464  17.035  0.00  0.00    +0.000 A 
ATOM      4  C   UNL     1       5.063   5.000  16.217  0.00  0.00    +0.000 A 
ATOM      5  C   UNL     1       5.219   6.390  16.178  0.00  0.00    +0.000 A 
ATOM      6  C   UNL     1       4.400   7.222  16.950  0.00  0.00    +0.000 A 
ENDROOT
BRANCH   1  10
ATOM      7  C   UNL     1       0.862   9.227  20.210  0.00  0.00    +0.000 A 
ATOM      8  C   UNL     1       1.179   9.597  18.902  0.00  0.00    +0.000 A 
ATOM      9  C   UNL     1       2.009   8.780  18.124  0.00  0.00    +0.000 A 
ATOM     10  C   UNL     1       2.552   7.583  18.627  0.00  0.00    +0.000 A 
ATOM     11  C   UNL     1       2.239   7.251  19.960  0.00  0.00    +0.000 A 
ATOM     12  C   UNL     1       1.397   8.054  20.739  0.00  0.00    +0.000 A 
BRANCH   7  14
ATOM     13  N   UNL     1      -0.724  10.701  21.635  0.00  0.00    +0.000 NA
ATOM     14  C   UNL     1      -0.017  10.042  20.994  0.00  0.00    +0.000 C 
ENDBRANCH   7  14
ENDBRANCH   1  10
BRANCH   4  15
ATOM     15  C   UNL     1       5.957   4.113  15.388  0.00  0.00    +0.000 C 
ATOM     16  F   UNL     1       5.871   2.792  15.714  0.00  0.00    +0.000 F 
ATOM     17  F   UNL     1       5.675   4.187  14.058  0.00  0.00    +0.000 F 
ATOM     18  F   UNL     1       7.274   4.440  15.509  0.00  0.00    +0.000 F 
ENDBRANCH   4  15
TORSDOF 3
ENDMDL
MODEL 6
REMARK VINA RESULT:      -6.9      0.159      1.144
REMARK  Name = 
REMARK  3 active torsions:
REMARK  status: ('A' for Active; 'I' for Inactive)
REMARK    1  A    between atoms: C_2  and  C_3
REMARK    2  A    between atoms: C_6  and  C_7
REMARK    3  A    between atoms: C_10  and  C_11
REMARK                            x       y       z     vdW  Elec       q    Type
REMARK                         _______ _______ _______ _____ _____    ______ ____
ROOT
ATOM      1  C   UNL     1       3.433   6.705  17.776  0.00  0.00    +0.000 A 
ATOM      2  C   UNL     1       4.403   7.235  16.905  0.00  0.00    +0.000 A 
ATOM      3  C   UNL     1       5.173   6.412  16.074  0.00  0.00    +0.000 A 
ATOM      4  C   UNL     1       5.015   5.023  16.102  0.00  0.00    +0.000 A 
ATOM      5  C   UNL     1       4.067   4.477  16.975  0.00  0.00    +0.000 A 
ATOM      6  C   UNL     1       3.288   5.306  17.791  0.00  0.00    +0.000 A 
ENDROOT
BRANCH   1  10
ATOM      7  C   UNL     1       0.857   9.216  20.173  0.00  0.00    +0.000 A 
ATOM      8  C   UNL     1       1.187   9.585  18.868  0.00  0.00    +0.000 A 
ATOM      9  C   UNL     1       2.032   8.774  18.101  0.00  0.00    +0.000 A 
ATOM     10  C   UNL     1       2.578   7.582  18.612  0.00  0.00    +0.000 A 
ATOM     11  C   UNL     1       2.252   7.249  19.941  0.00  0.00    +0.000 A 
ATOM     12  C   UNL     1       1.395   8.047  20.710  0.00  0.00    +0.000 A 
BRANCH   7  14
ATOM     13  N   UNL     1      -0.755  10.687  21.572  0.00  0.00    +0.000 NA
ATOM     14  C   UNL     1      -0.037  10.026  20.945  0.00  0.00    +0.000 C 
ENDBRANCH   7  14
ENDBRANCH   1  10
BRANCH   4  15
ATOM     15  C   UNL     1       5.841   4.122  15.220  0.00  0.00    +0.000 C 
ATOM     16  F   UNL     1       5.400   4.063  13.932  0.00  0.00    +0.000 F 
ATOM     17  F   UNL     1       7.143   4.515  15.149  0.00  0.00    +0.000 F 
ATOM     18  F   UNL     1       5.864   2.834  15.665  0.00  0.00    +0.000 F 
ENDBRANCH   4  15
TORSDOF 3
ENDMDL
MODEL 7
REMARK VINA RESULT:      -6.7      5.406      7.567
REMARK  Name = 
REMARK  3 active torsions:
REMARK  status: ('A' for Active; 'I' for Inactive)
REMARK    1  A    between atoms: C_2  and  C_3
REMARK    2  A    between atoms: C_6  and  C_7
REMARK    3  A    between atoms: C_10  and  C_11
REMARK                            x       y       z     vdW  Elec       q    Type
REMARK                         _______ _______ _______ _____ _____    ______ ____
ROOT
ATOM      1  C   UNL     1       2.618   7.001  18.730  0.00  0.00    +0.000 A 
ATOM      2  C   UNL     1       2.138   8.307  18.521  0.00  0.00    +0.000 A 
ATOM      3  C   UNL     1       1.388   8.978  19.494  0.00  0.00    +0.000 A 
ATOM      4  C   UNL     1       1.072   8.356  20.707  0.00  0.00    +0.000 A 
ATOM      5  C   UNL     1       1.527   7.050  20.924  0.00  0.00    +0.000 A 
ATOM      6  C   UNL     1       2.290   6.390  19.954  0.00  0.00    +0.000 A 
ENDROOT
BRANCH   1  10
ATOM      7  C   UNL     1       5.155   5.000  15.859  0.00  0.00    +0.000 A 
ATOM      8  C   UNL     1       5.141   6.393  15.937  0.00  0.00    +0.000 A 
ATOM      9  C   UNL     1       4.308   7.036  16.860  0.00  0.00    +0.000 A 
ATOM     10  C   UNL     1       3.461   6.313  17.722  0.00  0.00    +0.000 A 
ATOM     11  C   UNL     1       3.474   4.910  17.600  0.00  0.00    +0.000 A 
ATOM     12  C   UNL     1       4.317   4.259  16.690  0.00  0.00    +0.000 A 
BRANCH   7  14
ATOM     13  N   UNL     1       6.741   3.801  14.195  0.00  0.00    +0.000 NA
ATOM     14  C   UNL     1       6.034   4.341  14.940  0.00  0.00    +0.000 C 
ENDBRANCH   7  14
ENDBRANCH   1  10
BRANCH   4  15
ATOM     15  C   UNL     1       0.259   9.061  21.762  0.00  0.00    +0.000 C 
ATOM     16  F   UNL     1      -0.207  10.281  21.368  0.00  0.00    +0.000 F 
ATOM     17  F   UNL     1      -0.839   8.347  22.137  0.00  0.00    +0.000 F 
ATOM     18  F   UNL     1       0.967   9.285  22.904  0.00  0.00    +0.000 F 
ENDBRANCH   4  15
TORSDOF 3
ENDMDL
MODEL 8
REMARK VINA RESULT:      -6.7      5.391      7.622
REMARK  Name = 
REMARK  3 active torsions:
REMARK  status: ('A' for Active; 'I' for Inactive)
REMARK    1  A    between atoms: C_2  and  C_3
REMARK    2  A    between atoms: C_6  and  C_7
REMARK    3  A    between atoms: C_10  and  C_11
REMARK                            x       y       z     vdW  Elec       q    Type
REMARK                         _______ _______ _______ _____ _____    ______ ____
ROOT
ATOM      1  C   UNL     1       2.741   6.984  18.707  0.00  0.00    +0.000 A 
ATOM      2  C   UNL     1       2.415   6.351  19.920  0.00  0.00    +0.000 A 
ATOM      3  C   UNL     1       1.603   6.971  20.878  0.00  0.00    +0.000 A 
ATOM      4  C   UNL     1       1.106   8.261  20.664  0.00  0.00    +0.000 A 
ATOM      5  C   UNL     1       1.434   8.913  19.470  0.00  0.00    +0.000 A 
ATOM      6  C   UNL     1       2.233   8.281  18.509  0.00  0.00    +0.000 A 
ENDROOT
BRANCH   1  10
ATOM      7  C   UNL     1       5.188   5.002  15.746  0.00  0.00    +0.000 A 
ATOM      8  C   UNL     1       5.180   6.394  15.836  0.00  0.00    +0.000 A 
ATOM      9  C   UNL     1       4.376   7.031  16.789  0.00  0.00    +0.000 A 
ATOM     10  C   UNL     1       3.552   6.303  17.669  0.00  0.00    +0.000 A 
ATOM     11  C   UNL     1       3.558   4.901  17.535  0.00  0.00    +0.000 A 
ATOM     12  C   UNL     1       4.371   4.256  16.595  0.00  0.00    +0.000 A 
BRANCH   7  14
ATOM     13  N   UNL     1       6.730   3.815  14.034  0.00  0.00    +0.000 NA
ATOM     14  C   UNL     1       6.038   4.348  14.797  0.00  0.00    +0.000 C 
ENDBRANCH   7  14
ENDBRANCH   1  10
BRANCH   4  15
ATOM     15  C   UNL     1       0.237   8.946  21.688  0.00  0.00    +0.000 C 
ATOM     16  F   UNL     1      -0.203  10.176  21.296  0.00  0.00    +0.000 F 
ATOM     17  F   UNL     1      -0.881   8.228  21.987  0.00  0.00    +0.000 F 
ATOM     18  F   UNL     1       0.882   9.142  22.872  0.00  0.00    +0.000 F 
ENDBRANCH   4  15
TORSDOF 3
ENDMDL
MODEL 9
REMARK VINA RESULT:      -6.5      5.477      7.584
REMARK  Name = 
REMARK  3 active torsions:
REMARK  status: ('A' for Active; 'I' for Inactive)
REMARK    1  A    between atoms: C_2  and  C_3
REMARK    2  A    between atoms: C_6  and  C_7
REMARK    3  A    between atoms: C_10  and  C_11
REMARK                            x       y       z     vdW  Elec       q    Type
REMARK                         _______ _______ _______ _____ _____    ______ ____
ROOT
ATOM      1  C   UNL     1       2.399   7.625  18.692  0.00  0.00    +0.000 A 
ATOM      2  C   UNL     1       1.837   8.800  18.158  0.00  0.00    +0.000 A 
ATOM      3  C   UNL     1       1.035   9.648  18.932  0.00  0.00    +0.000 A 
ATOM      4  C   UNL     1       0.750   9.338  20.266  0.00  0.00    +0.000 A 
ATOM      5  C   UNL     1       1.287   8.165  20.808  0.00  0.00    +0.000 A 
ATOM      6  C   UNL     1       2.100   7.329  20.034  0.00  0.00    +0.000 A 
ENDROOT
BRANCH   1  10
ATOM      7  C   UNL     1       4.938   5.098  16.272  0.00  0.00    +0.000 A 
ATOM      8  C   UNL     1       3.948   4.537  17.080  0.00  0.00    +0.000 A 
ATOM      9  C   UNL     1       3.138   5.360  17.871  0.00  0.00    +0.000 A 
ATOM     10  C   UNL     1       3.295   6.758  17.887  0.00  0.00    +0.000 A 
ATOM     11  C   UNL     1       4.320   7.295  17.085  0.00  0.00    +0.000 A 
ATOM     12  C   UNL     1       5.125   6.480  16.279  0.00  0.00    +0.000 A 
BRANCH   7  14
ATOM     13  N   UNL     1       6.390   3.583  14.750  0.00  0.00    +0.000 NA
ATOM     14  C   UNL     1       5.743   4.261  15.434  0.00  0.00    +0.000 C 
ENDBRANCH   7  14
ENDBRANCH   1  10
BRANCH   4  15
ATOM     15  C   UNL     1      -0.118  10.236  21.111  0.00  0.00    +0.000 C 
ATOM     16  F   UNL     1      -1.164  10.783  20.430  0.00  0.00    +0.000 F 
ATOM     17  F   UNL     1      -0.665   9.582  22.173  0.00  0.00    +0.000 F 
ATOM     18  F   UNL     1       0.574  11.286  21.636  0.00  0.00    +0.000 F 
ENDBRANCH   4  15
TORSDOF 3
ENDMDL
