MODEL 1
REMARK VINA RESULT:      -8.1      0.000      0.000
REMARK  Name = 
REMARK  11 active torsions:
REMARK  status: ('A' for Active; 'I' for Inactive)
REMARK    1  A    between atoms: C_2  and  C_3
REMARK    2  A    between atoms: C_3  and  C_4
REMARK    3  A    between atoms: C_6  and  C_7
REMARK    4  A    between atoms: N_15  and  N_16
REMARK    5  A    between atoms: N_16  and  C_17
REMARK    6  A    between atoms: C_17  and  N_19
REMARK    7  A    between atoms: N_19  and  C_20
REMARK    8  A    between atoms: C_20  and  C_21
REMARK    9  A    between atoms: C_21  and  C_22
REMARK   10  A    between atoms: C_22  and  C_23
REMARK   11  A    between atoms: C_23  and  C_24
REMARK                            x       y       z     vdW  Elec       q    Type
REMARK                         _______ _______ _______ _____ _____    ______ ____
ROOT
ATOM      1  O   UNL     1       3.249   2.276  17.672  0.00  0.00    +0.000 OA
ATOM      2  C   UNL     1       4.221   2.982  17.951  0.00  0.00    +0.000 C 
ATOM      3  N   UNL     1       5.059   3.385  16.944  0.00  0.00    +0.000 N 
ATOM      4  H   UNL     1       4.792   3.142  15.992  0.00  0.00    +0.000 HD
ENDROOT
BRANCH   3   5
ATOM      5  N   UNL     1       6.174   4.205  17.093  0.00  0.00    +0.000 N 
ATOM      6  H   UNL     1       6.865   3.953  17.802  0.00  0.00    +0.000 HD
BRANCH   5   7
ATOM      7  C   UNL     1       6.490   5.150  16.130  0.00  0.00    +0.000 C 
ATOM      8  S   UNL     1       6.578   4.813  14.494  0.00  0.00    +0.000 S 
BRANCH   7   9
ATOM      9  N   UNL     1       6.698   6.391  16.699  0.00  0.00    +0.000 N 
ATOM     10  H   UNL     1       6.486   7.197  16.124  0.00  0.00    +0.000 HD
BRANCH   9  11
ATOM     11  C   UNL     1       7.004   6.626  18.101  0.00  0.00    +0.000 C 
BRANCH  11  12
ATOM     12  C   UNL     1       8.247   7.484  18.307  0.00  0.00    +0.000 C 
BRANCH  12  13
ATOM     13  C   UNL     1       8.039   8.934  17.856  0.00  0.00    +0.000 C 
BRANCH  13  14
ATOM     14  C   UNL     1       8.842   9.874  18.753  0.00  0.00    +0.000 C 
BRANCH  14  15
ATOM     15  C   UNL     1       9.627  10.973  18.008  0.00  0.00    +0.000 C 
ATOM     16  C   UNL     1       8.910  12.331  17.943  0.00  0.00    +0.000 C 
ATOM     17  C   UNL     1       8.745  12.966  19.323  0.00  0.00    +0.000 C 
ATOM     18  C   UNL     1      10.079  13.085  20.060  0.00  0.00    +0.000 C 
ATOM     19  C   UNL     1      10.879  11.785  20.073  0.00  0.00    +0.000 C 
ATOM     20  C   UNL     1      11.000  11.171  18.678  0.00  0.00    +0.000 C 
ENDBRANCH  14  15
ENDBRANCH  13  14
ENDBRANCH  12  13
ENDBRANCH  11  12
ENDBRANCH   9  11
ENDBRANCH   7   9
ENDBRANCH   5   7
ENDBRANCH   3   5
BRANCH   2  21
ATOM     21  C   UNL     1       4.448   3.453  19.366  0.00  0.00    +0.000 C 
BRANCH  21  22
ATOM     22  C   UNL     1       3.576   4.597  19.681  0.00  0.00    +0.000 A 
ATOM     23  N   UNL     1       3.493   5.765  19.082  0.00  0.00    +0.000 NA
ATOM     24  C   UNL     1       2.469   6.383  19.772  0.00  0.00    +0.000 A 
ATOM     25  N   UNL     1       1.973   5.645  20.778  0.00  0.00    +0.000 NA
ATOM     26  O   UNL     1       2.701   4.459  20.717  0.00  0.00    +0.000 OA
BRANCH  24  27
ATOM     27  C   UNL     1       2.008   7.724  19.429  0.00  0.00    +0.000 A 
ATOM     28  C   UNL     1       1.345   8.514  20.382  0.00  0.00    +0.000 A 
ATOM     29  C   UNL     1       0.891   9.795  20.050  0.00  0.00    +0.000 A 
ATOM     30  C   UNL     1       1.102  10.295  18.767  0.00  0.00    +0.000 A 
ATOM     31  C   UNL     1       1.761   9.527  17.813  0.00  0.00    +0.000 A 
ATOM     32  C   UNL     1       2.218   8.241  18.144  0.00  0.00    +0.000 A 
ENDBRANCH  24  27
ENDBRANCH  21  22
ENDBRANCH   2  21
TORSDOF 11
ENDMDL
MODEL 2
REMARK VINA RESULT:      -7.8      0.893      1.630
REMARK  Name = 
REMARK  11 active torsions:
REMARK  status: ('A' for Active; 'I' for Inactive)
REMARK    1  A    between atoms: C_2  and  C_3
REMARK    2  A    between atoms: C_3  and  C_4
REMARK    3  A    between atoms: C_6  and  C_7
REMARK    4  A    between atoms: N_15  and  N_16
REMARK    5  A    between atoms: N_16  and  C_17
REMARK    6  A    between atoms: C_17  and  N_19
REMARK    7  A    between atoms: N_19  and  C_20
REMARK    8  A    between atoms: C_20  and  C_21
REMARK    9  A    between atoms: C_21  and  C_22
REMARK   10  A    between atoms: C_22  and  C_23
REMARK   11  A    between atoms: C_23  and  C_24
REMARK                            x       y       z     vdW  Elec       q    Type
REMARK                         _______ _______ _______ _____ _____    ______ ____
ROOT
ATOM      1  O   UNL     1       2.624   3.482  17.062  0.00  0.00    +0.000 OA
ATOM      2  C   UNL     1       3.721   3.845  17.495  0.00  0.00    +0.000 C 
ATOM      3  N   UNL     1       4.725   4.125  16.605  0.00  0.00    +0.000 N 
ATOM      4  H   UNL     1       4.491   4.095  15.615  0.00  0.00    +0.000 HD
ENDROOT
BRANCH   3   5
ATOM      5  N   UNL     1       6.001   4.573  16.935  0.00  0.00    +0.000 N 
ATOM      6  H   UNL     1       6.381   4.314  17.846  0.00  0.00    +0.000 HD
BRANCH   5   7
ATOM      7  C   UNL     1       6.842   5.092  15.962  0.00  0.00    +0.000 C 
ATOM      8  S   UNL     1       6.908   4.518  14.392  0.00  0.00    +0.000 S 
BRANCH   7   9
ATOM      9  N   UNL     1       7.587   6.144  16.457  0.00  0.00    +0.000 N 
ATOM     10  H   UNL     1       8.534   6.235  16.108  0.00  0.00    +0.000 HD
BRANCH   9  11
ATOM     11  C   UNL     1       7.064   7.225  17.276  0.00  0.00    +0.000 C 
BRANCH  11  12
ATOM     12  C   UNL     1       8.097   7.801  18.239  0.00  0.00    +0.000 C 
BRANCH  12  13
ATOM     13  C   UNL     1       8.258   9.317  18.085  0.00  0.00    +0.000 C 
BRANCH  13  14
ATOM     14  C   UNL     1       9.394   9.809  18.979  0.00  0.00    +0.000 C 
BRANCH  14  15
ATOM     15  C   UNL     1       9.292  11.286  19.411  0.00  0.00    +0.000 C 
ATOM     16  C   UNL     1      10.424  11.754  20.339  0.00  0.00    +0.000 C 
ATOM     17  C   UNL     1      11.786  11.740  19.647  0.00  0.00    +0.000 C 
ATOM     18  C   UNL     1      11.774  12.546  18.348  0.00  0.00    +0.000 C 
ATOM     19  C   UNL     1      10.611  12.187  17.426  0.00  0.00    +0.000 C 
ATOM     20  C   UNL     1       9.271  12.189  18.163  0.00  0.00    +0.000 C 
ENDBRANCH  14  15
ENDBRANCH  13  14
ENDBRANCH  12  13
ENDBRANCH  11  12
ENDBRANCH   9  11
ENDBRANCH   7   9
ENDBRANCH   5   7
ENDBRANCH   3   5
BRANCH   2  21
ATOM     21  C   UNL     1       3.936   4.043  18.975  0.00  0.00    +0.000 C 
BRANCH  21  22
ATOM     22  C   UNL     1       3.129   5.169  19.473  0.00  0.00    +0.000 A 
ATOM     23  N   UNL     1       2.985   6.374  18.967  0.00  0.00    +0.000 NA
ATOM     24  C   UNL     1       2.068   6.951  19.822  0.00  0.00    +0.000 A 
ATOM     25  N   UNL     1       1.695   6.152  20.834  0.00  0.00    +0.000 NA
ATOM     26  O   UNL     1       2.392   4.968  20.602  0.00  0.00    +0.000 OA
BRANCH  24  27
ATOM     27  C   UNL     1       1.586   8.314  19.629  0.00  0.00    +0.000 A 
ATOM     28  C   UNL     1       1.781   8.973  18.405  0.00  0.00    +0.000 A 
ATOM     29  C   UNL     1       1.331  10.285  18.225  0.00  0.00    +0.000 A 
ATOM     30  C   UNL     1       0.678  10.944  19.264  0.00  0.00    +0.000 A 
ATOM     31  C   UNL     1       0.471  10.304  20.481  0.00  0.00    +0.000 A 
ATOM     32  C   UNL     1       0.922   8.987  20.665  0.00  0.00    +0.000 A 
ENDBRANCH  24  27
ENDBRANCH  21  22
ENDBRANCH   2  21
TORSDOF 11
ENDMDL
MODEL 3
REMARK VINA RESULT:      -7.5      4.540      8.029
REMARK  Name = 
REMARK  11 active torsions:
REMARK  status: ('A' for Active; 'I' for Inactive)
REMARK    1  A    between atoms: C_2  and  C_3
REMARK    2  A    between atoms: C_3  and  C_4
REMARK    3  A    between atoms: C_6  and  C_7
REMARK    4  A    between atoms: N_15  and  N_16
REMARK    5  A    between atoms: N_16  and  C_17
REMARK    6  A    between atoms: C_17  and  N_19
REMARK    7  A    between atoms: N_19  and  C_20
REMARK    8  A    between atoms: C_20  and  C_21
REMARK    9  A    between atoms: C_21  and  C_22
REMARK   10  A    between atoms: C_22  and  C_23
REMARK   11  A    between atoms: C_23  and  C_24
REMARK                            x       y       z     vdW  Elec       q    Type
REMARK                         _______ _______ _______ _____ _____    ______ ____
ROOT
ATOM      1  O   UNL     1       2.575   2.566  22.253  0.00  0.00    +0.000 OA
ATOM      2  C   UNL     1       2.117   3.128  21.254  0.00  0.00    +0.000 C 
ATOM      3  N   UNL     1       2.049   4.496  21.237  0.00  0.00    +0.000 N 
ATOM      4  H   UNL     1       2.456   4.993  22.028  0.00  0.00    +0.000 HD
ENDROOT
BRANCH   3   5
ATOM      5  N   UNL     1       1.588   5.274  20.178  0.00  0.00    +0.000 N 
ATOM      6  H   UNL     1       0.691   5.029  19.756  0.00  0.00    +0.000 HD
BRANCH   5   7
ATOM      7  C   UNL     1       2.167   6.502  19.898  0.00  0.00    +0.000 C 
ATOM      8  S   UNL     1       3.244   6.755  18.644  0.00  0.00    +0.000 S 
BRANCH   7   9
ATOM      9  N   UNL     1       1.720   7.473  20.772  0.00  0.00    +0.000 N 
ATOM     10  H   UNL     1       1.723   7.237  21.757  0.00  0.00    +0.000 HD
BRANCH   9  11
ATOM     11  C   UNL     1       1.436   8.853  20.412  0.00  0.00    +0.000 C 
BRANCH  11  12
ATOM     12  C   UNL     1       0.690   9.615  21.501  0.00  0.00    +0.000 C 
BRANCH  12  13
ATOM     13  C   UNL     1      -0.407  10.523  20.934  0.00  0.00    +0.000 C 
BRANCH  13  14
ATOM     14  C   UNL     1      -1.041   9.863  19.711  0.00  0.00    +0.000 C 
BRANCH  14  15
ATOM     15  C   UNL     1      -1.035  10.723  18.430  0.00  0.00    +0.000 C 
ATOM     16  C   UNL     1      -1.695  10.052  17.214  0.00  0.00    +0.000 C 
ATOM     17  C   UNL     1      -3.193   9.829  17.417  0.00  0.00    +0.000 C 
ATOM     18  C   UNL     1      -3.918  11.123  17.790  0.00  0.00    +0.000 C 
ATOM     19  C   UNL     1      -3.248  11.881  18.934  0.00  0.00    +0.000 C 
ATOM     20  C   UNL     1      -1.747  12.061  18.703  0.00  0.00    +0.000 C 
ENDBRANCH  14  15
ENDBRANCH  13  14
ENDBRANCH  12  13
ENDBRANCH  11  12
ENDBRANCH   9  11
ENDBRANCH   7   9
ENDBRANCH   5   7
ENDBRANCH   3   5
BRANCH   2  21
ATOM     21  C   UNL     1       1.701   2.328  20.046  0.00  0.00    +0.000 C 
BRANCH  21  22
ATOM     22  C   UNL     1       2.358   2.839  18.831  0.00  0.00    +0.000 A 
ATOM     23  N   UNL     1       3.613   3.188  18.652  0.00  0.00    +0.000 NA
ATOM     24  C   UNL     1       3.645   3.514  17.311  0.00  0.00    +0.000 A 
ATOM     25  N   UNL     1       2.453   3.411  16.701  0.00  0.00    +0.000 NA
ATOM     26  O   UNL     1       1.599   2.959  17.705  0.00  0.00    +0.000 OA
BRANCH  24  27
ATOM     27  C   UNL     1       4.872   3.949  16.652  0.00  0.00    +0.000 A 
ATOM     28  C   UNL     1       4.928   4.060  15.254  0.00  0.00    +0.000 A 
ATOM     29  C   UNL     1       6.109   4.465  14.621  0.00  0.00    +0.000 A 
ATOM     30  C   UNL     1       7.236   4.767  15.382  0.00  0.00    +0.000 A 
ATOM     31  C   UNL     1       7.195   4.667  16.769  0.00  0.00    +0.000 A 
ATOM     32  C   UNL     1       6.011   4.261  17.406  0.00  0.00    +0.000 A 
ENDBRANCH  24  27
ENDBRANCH  21  22
ENDBRANCH   2  21
TORSDOF 11
ENDMDL
MODEL 4
REMARK VINA RESULT:      -7.5      3.052      4.195
REMARK  Name = 
REMARK  11 active torsions:
REMARK  status: ('A' for Active; 'I' for Inactive)
REMARK    1  A    between atoms: C_2  and  C_3
REMARK    2  A    between atoms: C_3  and  C_4
REMARK    3  A    between atoms: C_6  and  C_7
REMARK    4  A    between atoms: N_15  and  N_16
REMARK    5  A    between atoms: N_16  and  C_17
REMARK    6  A    between atoms: C_17  and  N_19
REMARK    7  A    between atoms: N_19  and  C_20
REMARK    8  A    between atoms: C_20  and  C_21
REMARK    9  A    between atoms: C_21  and  C_22
REMARK   10  A    between atoms: C_22  and  C_23
REMARK   11  A    between atoms: C_23  and  C_24
REMARK                            x       y       z     vdW  Elec       q    Type
REMARK                         _______ _______ _______ _____ _____    ______ ____
ROOT
ATOM      1  O   UNL     1       7.461   4.734  13.891  0.00  0.00    +0.000 OA
ATOM      2  C   UNL     1       6.770   5.193  14.805  0.00  0.00    +0.000 C 
ATOM      3  N   UNL     1       7.322   6.116  15.654  0.00  0.00    +0.000 N 
ATOM      4  H   UNL     1       8.263   6.441  15.440  0.00  0.00    +0.000 HD
ENDROOT
BRANCH   3   5
ATOM      5  N   UNL     1       6.665   6.745  16.708  0.00  0.00    +0.000 N 
ATOM      6  H   UNL     1       5.648   6.659  16.761  0.00  0.00    +0.000 HD
BRANCH   5   7
ATOM      7  C   UNL     1       7.373   7.215  17.803  0.00  0.00    +0.000 C 
ATOM      8  S   UNL     1       8.003   6.224  18.994  0.00  0.00    +0.000 S 
BRANCH   7   9
ATOM      9  N   UNL     1       7.501   8.589  17.761  0.00  0.00    +0.000 N 
ATOM     10  H   UNL     1       6.643   9.125  17.712  0.00  0.00    +0.000 HD
BRANCH   9  11
ATOM     11  C   UNL     1       8.739   9.319  17.977  0.00  0.00    +0.000 C 
BRANCH  11  12
ATOM     12  C   UNL     1       8.906   9.804  19.413  0.00  0.00    +0.000 C 
BRANCH  12  13
ATOM     13  C   UNL     1       9.737  11.089  19.504  0.00  0.00    +0.000 C 
BRANCH  13  14
ATOM     14  C   UNL     1       9.772  11.777  18.141  0.00  0.00    +0.000 C 
BRANCH  14  15
ATOM     15  C   UNL     1      11.185  12.098  17.609  0.00  0.00    +0.000 C 
ATOM     16  C   UNL     1      11.270  13.387  16.776  0.00  0.00    +0.000 C 
ATOM     17  C   UNL     1      10.973  14.635  17.606  0.00  0.00    +0.000 C 
ATOM     18  C   UNL     1      11.866  14.723  18.844  0.00  0.00    +0.000 C 
ATOM     19  C   UNL     1      11.892  13.433  19.661  0.00  0.00    +0.000 C 
ATOM     20  C   UNL     1      12.168  12.207  18.789  0.00  0.00    +0.000 C 
ENDBRANCH  14  15
ENDBRANCH  13  14
ENDBRANCH  12  13
ENDBRANCH  11  12
ENDBRANCH   9  11
ENDBRANCH   7   9
ENDBRANCH   5   7
ENDBRANCH   3   5
BRANCH   2  21
ATOM     21  C   UNL     1       5.322   4.795  14.946  0.00  0.00    +0.000 C 
BRANCH  21  22
ATOM     22  C   UNL     1       5.023   4.397  16.332  0.00  0.00    +0.000 A 
ATOM     23  N   UNL     1       3.867   4.382  16.958  0.00  0.00    +0.000 NA
ATOM     24  C   UNL     1       4.200   3.857  18.190  0.00  0.00    +0.000 A 
ATOM     25  N   UNL     1       5.511   3.601  18.332  0.00  0.00    +0.000 NA
ATOM     26  O   UNL     1       6.057   3.952  17.099  0.00  0.00    +0.000 OA
BRANCH  24  27
ATOM     27  C   UNL     1       3.201   3.637  19.231  0.00  0.00    +0.000 A 
ATOM     28  C   UNL     1       3.508   2.862  20.360  0.00  0.00    +0.000 A 
ATOM     29  C   UNL     1       2.547   2.639  21.352  0.00  0.00    +0.000 A 
ATOM     30  C   UNL     1       1.276   3.195  21.222  0.00  0.00    +0.000 A 
ATOM     31  C   UNL     1       0.957   3.969  20.112  0.00  0.00    +0.000 A 
ATOM     32  C   UNL     1       1.920   4.194  19.115  0.00  0.00    +0.000 A 
ENDBRANCH  24  27
ENDBRANCH  21  22
ENDBRANCH   2  21
TORSDOF 11
ENDMDL
MODEL 5
REMARK VINA RESULT:      -7.4      2.542      7.688
REMARK  Name = 
REMARK  11 active torsions:
REMARK  status: ('A' for Active; 'I' for Inactive)
REMARK    1  A    between atoms: C_2  and  C_3
REMARK    2  A    between atoms: C_3  and  C_4
REMARK    3  A    between atoms: C_6  and  C_7
REMARK    4  A    between atoms: N_15  and  N_16
REMARK    5  A    between atoms: N_16  and  C_17
REMARK    6  A    between atoms: C_17  and  N_19
REMARK    7  A    between atoms: N_19  and  C_20
REMARK    8  A    between atoms: C_20  and  C_21
REMARK    9  A    between atoms: C_21  and  C_22
REMARK   10  A    between atoms: C_22  and  C_23
REMARK   11  A    between atoms: C_23  and  C_24
REMARK                            x       y       z     vdW  Elec       q    Type
REMARK                         _______ _______ _______ _____ _____    ______ ____
ROOT
ATOM      1  O   UNL     1       9.036   3.920  17.978  0.00  0.00    +0.000 OA
ATOM      2  C   UNL     1       7.956   4.513  18.044  0.00  0.00    +0.000 C 
ATOM      3  N   UNL     1       6.954   4.164  17.177  0.00  0.00    +0.000 N 
ATOM      4  H   UNL     1       7.126   3.370  16.562  0.00  0.00    +0.000 HD
ENDROOT
BRANCH   3   5
ATOM      5  N   UNL     1       5.676   4.715  17.148  0.00  0.00    +0.000 N 
ATOM      6  H   UNL     1       5.186   4.842  18.035  0.00  0.00    +0.000 HD
BRANCH   5   7
ATOM      7  C   UNL     1       5.202   5.342  16.006  0.00  0.00    +0.000 C 
ATOM      8  S   UNL     1       5.559   4.834  14.453  0.00  0.00    +0.000 S 
BRANCH   7   9
ATOM      9  N   UNL     1       4.390   6.412  16.326  0.00  0.00    +0.000 N 
ATOM     10  H   UNL     1       3.674   6.658  15.653  0.00  0.00    +0.000 HD
BRANCH   9  11
ATOM     11  C   UNL     1       4.356   7.077  17.619  0.00  0.00    +0.000 C 
BRANCH  11  12
ATOM     12  C   UNL     1       2.946   7.226  18.179  0.00  0.00    +0.000 C 
BRANCH  12  13
ATOM     13  C   UNL     1       2.183   5.897  18.203  0.00  0.00    +0.000 C 
BRANCH  13  14
ATOM     14  C   UNL     1       2.593   5.089  19.433  0.00  0.00    +0.000 C 
BRANCH  14  15
ATOM     15  C   UNL     1       1.793   3.789  19.654  0.00  0.00    +0.000 C 
ATOM     16  C   UNL     1       1.365   3.080  18.360  0.00  0.00    +0.000 C 
ATOM     17  C   UNL     1       2.560   2.562  17.560  0.00  0.00    +0.000 C 
ATOM     18  C   UNL     1       3.466   1.664  18.404  0.00  0.00    +0.000 C 
ATOM     19  C   UNL     1       3.846   2.283  19.747  0.00  0.00    +0.000 C 
ATOM     20  C   UNL     1       2.624   2.809  20.503  0.00  0.00    +0.000 C 
ENDBRANCH  14  15
ENDBRANCH  13  14
ENDBRANCH  12  13
ENDBRANCH  11  12
ENDBRANCH   9  11
ENDBRANCH   7   9
ENDBRANCH   5   7
ENDBRANCH   3   5
BRANCH   2  21
ATOM     21  C   UNL     1       7.716   5.557  19.106  0.00  0.00    +0.000 C 
BRANCH  21  22
ATOM     22  C   UNL     1       7.915   6.910  18.561  0.00  0.00    +0.000 A 
ATOM     23  N   UNL     1       8.447   7.965  19.138  0.00  0.00    +0.000 NA
ATOM     24  C   UNL     1       8.423   8.904  18.126  0.00  0.00    +0.000 A 
ATOM     25  N   UNL     1       7.861   8.460  16.990  0.00  0.00    +0.000 NA
ATOM     26  O   UNL     1       7.529   7.137  17.274  0.00  0.00    +0.000 OA
BRANCH  24  27
ATOM     27  C   UNL     1       8.945  10.254  18.314  0.00  0.00    +0.000 A 
ATOM     28  C   UNL     1       9.958  10.501  19.252  0.00  0.00    +0.000 A 
ATOM     29  C   UNL     1      10.450  11.798  19.441  0.00  0.00    +0.000 A 
ATOM     30  C   UNL     1       9.935  12.851  18.690  0.00  0.00    +0.000 A 
ATOM     31  C   UNL     1       8.933  12.622  17.752  0.00  0.00    +0.000 A 
ATOM     32  C   UNL     1       8.438  11.322  17.560  0.00  0.00    +0.000 A 
ENDBRANCH  24  27
ENDBRANCH  21  22
ENDBRANCH   2  21
TORSDOF 11
ENDMDL
MODEL 6
REMARK VINA RESULT:      -7.2      1.297      1.971
REMARK  Name = 
REMARK  11 active torsions:
REMARK  status: ('A' for Active; 'I' for Inactive)
REMARK    1  A    between atoms: C_2  and  C_3
REMARK    2  A    between atoms: C_3  and  C_4
REMARK    3  A    between atoms: C_6  and  C_7
REMARK    4  A    between atoms: N_15  and  N_16
REMARK    5  A    between atoms: N_16  and  C_17
REMARK    6  A    between atoms: C_17  and  N_19
REMARK    7  A    between atoms: N_19  and  C_20
REMARK    8  A    between atoms: C_20  and  C_21
REMARK    9  A    between atoms: C_21  and  C_22
REMARK   10  A    between atoms: C_22  and  C_23
REMARK   11  A    between atoms: C_23  and  C_24
REMARK                            x       y       z     vdW  Elec       q    Type
REMARK                         _______ _______ _______ _____ _____    ______ ____
ROOT
ATOM      1  O   UNL     1       2.010   3.214  17.552  0.00  0.00    +0.000 OA
ATOM      2  C   UNL     1       3.055   3.635  18.055  0.00  0.00    +0.000 C 
ATOM      3  N   UNL     1       4.198   3.645  17.299  0.00  0.00    +0.000 N 
ATOM      4  H   UNL     1       4.112   3.374  16.321  0.00  0.00    +0.000 HD
ENDROOT
BRANCH   3   5
ATOM      5  N   UNL     1       5.442   4.116  17.713  0.00  0.00    +0.000 N 
ATOM      6  H   UNL     1       5.938   3.592  18.435  0.00  0.00    +0.000 HD
BRANCH   5   7
ATOM      7  C   UNL     1       6.116   5.075  16.974  0.00  0.00    +0.000 C 
ATOM      8  S   UNL     1       7.139   4.715  15.701  0.00  0.00    +0.000 S 
BRANCH   7   9
ATOM      9  N   UNL     1       5.812   6.348  17.415  0.00  0.00    +0.000 N 
ATOM     10  H   UNL     1       5.050   6.430  18.077  0.00  0.00    +0.000 HD
BRANCH   9  11
ATOM     11  C   UNL     1       6.614   7.534  17.160  0.00  0.00    +0.000 C 
BRANCH  11  12
ATOM     12  C   UNL     1       7.772   7.695  18.137  0.00  0.00    +0.000 C 
BRANCH  12  13
ATOM     13  C   UNL     1       8.624   8.932  17.835  0.00  0.00    +0.000 C 
BRANCH  13  14
ATOM     14  C   UNL     1       8.910   9.691  19.129  0.00  0.00    +0.000 C 
BRANCH  14  15
ATOM     15  C   UNL     1      10.078  10.696  19.052  0.00  0.00    +0.000 C 
ATOM     16  C   UNL     1       9.957  11.722  17.913  0.00  0.00    +0.000 C 
ATOM     17  C   UNL     1       8.767  12.662  18.103  0.00  0.00    +0.000 C 
ATOM     18  C   UNL     1       8.800  13.356  19.466  0.00  0.00    +0.000 C 
ATOM     19  C   UNL     1       9.014  12.390  20.629  0.00  0.00    +0.000 C 
ATOM     20  C   UNL     1      10.198  11.453  20.388  0.00  0.00    +0.000 C 
ENDBRANCH  14  15
ENDBRANCH  13  14
ENDBRANCH  12  13
ENDBRANCH  11  12
ENDBRANCH   9  11
ENDBRANCH   7   9
ENDBRANCH   5   7
ENDBRANCH   3   5
BRANCH   2  21
ATOM     21  C   UNL     1       3.063   4.192  19.457  0.00  0.00    +0.000 C 
BRANCH  21  22
ATOM     22  C   UNL     1       2.660   5.608  19.458  0.00  0.00    +0.000 A 
ATOM     23  N   UNL     1       1.907   6.254  20.321  0.00  0.00    +0.000 NA
ATOM     24  C   UNL     1       1.943   7.547  19.840  0.00  0.00    +0.000 A 
ATOM     25  N   UNL     1       2.651   7.684  18.707  0.00  0.00    +0.000 NA
ATOM     26  O   UNL     1       3.133   6.401  18.455  0.00  0.00    +0.000 OA
BRANCH  24  27
ATOM     27  C   UNL     1       1.244   8.639  20.510  0.00  0.00    +0.000 A 
ATOM     28  C   UNL     1       0.866   9.787  19.796  0.00  0.00    +0.000 A 
ATOM     29  C   UNL     1       0.208  10.840  20.441  0.00  0.00    +0.000 A 
ATOM     30  C   UNL     1      -0.080  10.749  21.801  0.00  0.00    +0.000 A 
ATOM     31  C   UNL     1       0.284   9.616  22.522  0.00  0.00    +0.000 A 
ATOM     32  C   UNL     1       0.944   8.558  21.877  0.00  0.00    +0.000 A 
ENDBRANCH  24  27
ENDBRANCH  21  22
ENDBRANCH   2  21
TORSDOF 11
ENDMDL
MODEL 7
REMARK VINA RESULT:      -7.2      1.649      2.478
REMARK  Name = 
REMARK  11 active torsions:
REMARK  status: ('A' for Active; 'I' for Inactive)
REMARK    1  A    between atoms: C_2  and  C_3
REMARK    2  A    between atoms: C_3  and  C_4
REMARK    3  A    between atoms: C_6  and  C_7
REMARK    4  A    between atoms: N_15  and  N_16
REMARK    5  A    between atoms: N_16  and  C_17
REMARK    6  A    between atoms: C_17  and  N_19
REMARK    7  A    between atoms: N_19  and  C_20
REMARK    8  A    between atoms: C_20  and  C_21
REMARK    9  A    between atoms: C_21  and  C_22
REMARK   10  A    between atoms: C_22  and  C_23
REMARK   11  A    between atoms: C_23  and  C_24
REMARK                            x       y       z     vdW  Elec       q    Type
REMARK                         _______ _______ _______ _____ _____    ______ ____
ROOT
ATOM      1  O   UNL     1       2.265   3.696  18.692  0.00  0.00    +0.000 OA
ATOM      2  C   UNL     1       3.214   4.479  18.795  0.00  0.00    +0.000 C 
ATOM      3  N   UNL     1       4.226   4.419  17.873  0.00  0.00    +0.000 N 
ATOM      4  H   UNL     1       4.107   3.775  17.093  0.00  0.00    +0.000 HD
ENDROOT
BRANCH   3   5
ATOM      5  N   UNL     1       5.342   5.250  17.837  0.00  0.00    +0.000 N 
ATOM      6  H   UNL     1       5.776   5.511  18.724  0.00  0.00    +0.000 HD
BRANCH   5   7
ATOM      7  C   UNL     1       6.019   5.473  16.648  0.00  0.00    +0.000 C 
ATOM      8  S   UNL     1       6.155   4.334  15.431  0.00  0.00    +0.000 S 
BRANCH   7   9
ATOM      9  N   UNL     1       6.538   6.752  16.603  0.00  0.00    +0.000 N 
ATOM     10  H   UNL     1       6.015   7.437  16.070  0.00  0.00    +0.000 HD
BRANCH   9  11
ATOM     11  C   UNL     1       7.650   7.232  17.408  0.00  0.00    +0.000 C 
BRANCH  11  12
ATOM     12  C   UNL     1       7.545   8.713  17.751  0.00  0.00    +0.000 C 
BRANCH  12  13
ATOM     13  C   UNL     1       8.685   9.184  18.660  0.00  0.00    +0.000 C 
BRANCH  13  14
ATOM     14  C   UNL     1       9.183  10.552  18.197  0.00  0.00    +0.000 C 
BRANCH  14  15
ATOM     15  C   UNL     1      10.036  11.319  19.228  0.00  0.00    +0.000 C 
ATOM     16  C   UNL     1      11.510  11.493  18.827  0.00  0.00    +0.000 C 
ATOM     17  C   UNL     1      11.675  12.374  17.589  0.00  0.00    +0.000 C 
ATOM     18  C   UNL     1      10.990  13.730  17.759  0.00  0.00    +0.000 C 
ATOM     19  C   UNL     1       9.548  13.620  18.248  0.00  0.00    +0.000 C 
ATOM     20  C   UNL     1       9.424  12.711  19.472  0.00  0.00    +0.000 C 
ENDBRANCH  14  15
ENDBRANCH  13  14
ENDBRANCH  12  13
ENDBRANCH  11  12
ENDBRANCH   9  11
ENDBRANCH   7   9
ENDBRANCH   5   7
ENDBRANCH   3   5
BRANCH   2  21
ATOM     21  C   UNL     1       3.229   5.529  19.877  0.00  0.00    +0.000 C 
BRANCH  21  22
ATOM     22  C   UNL     1       2.607   6.776  19.403  0.00  0.00    +0.000 A 
ATOM     23  N   UNL     1       1.792   7.590  20.038  0.00  0.00    +0.000 NA
ATOM     24  C   UNL     1       1.605   8.604  19.121  0.00  0.00    +0.000 A 
ATOM     25  N   UNL     1       2.241   8.403  17.955  0.00  0.00    +0.000 NA
ATOM     26  O   UNL     1       2.911   7.195  18.142  0.00  0.00    +0.000 OA
BRANCH  24  27
ATOM     27  C   UNL     1       0.767   9.762  19.412  0.00  0.00    +0.000 A 
ATOM     28  C   UNL     1      -0.060  10.310  18.419  0.00  0.00    +0.000 A 
ATOM     29  C   UNL     1      -0.854  11.429  18.693  0.00  0.00    +0.000 A 
ATOM     30  C   UNL     1      -0.830  12.002  19.962  0.00  0.00    +0.000 A 
ATOM     31  C   UNL     1      -0.021  11.468  20.959  0.00  0.00    +0.000 A 
ATOM     32  C   UNL     1       0.777  10.345  20.686  0.00  0.00    +0.000 A 
ENDBRANCH  24  27
ENDBRANCH  21  22
ENDBRANCH   2  21
TORSDOF 11
ENDMDL
MODEL 8
REMARK VINA RESULT:      -7.1      2.543      7.464
REMARK  Name = 
REMARK  11 active torsions:
REMARK  status: ('A' for Active; 'I' for Inactive)
REMARK    1  A    between atoms: C_2  and  C_3
REMARK    2  A    between atoms: C_3  and  C_4
REMARK    3  A    between atoms: C_6  and  C_7
REMARK    4  A    between atoms: N_15  and  N_16
REMARK    5  A    between atoms: N_16  and  C_17
REMARK    6  A    between atoms: C_17  and  N_19
REMARK    7  A    between atoms: N_19  and  C_20
REMARK    8  A    between atoms: C_20  and  C_21
REMARK    9  A    between atoms: C_21  and  C_22
REMARK   10  A    between atoms: C_22  and  C_23
REMARK   11  A    between atoms: C_23  and  C_24
REMARK                            x       y       z     vdW  Elec       q    Type
REMARK                         _______ _______ _______ _____ _____    ______ ____
ROOT
ATOM      1  O   UNL     1       7.833   4.299  16.568  0.00  0.00    +0.000 OA
ATOM      2  C   UNL     1       7.119   4.981  17.308  0.00  0.00    +0.000 C 
ATOM      3  N   UNL     1       5.787   5.106  17.013  0.00  0.00    +0.000 N 
ATOM      4  H   UNL     1       5.430   4.560  16.231  0.00  0.00    +0.000 HD
ENDROOT
BRANCH   3   5
ATOM      5  N   UNL     1       4.851   5.812  17.765  0.00  0.00    +0.000 N 
ATOM      6  H   UNL     1       5.092   6.757  18.068  0.00  0.00    +0.000 HD
BRANCH   5   7
ATOM      7  C   UNL     1       3.537   5.378  17.847  0.00  0.00    +0.000 C 
ATOM      8  S   UNL     1       3.091   3.766  17.829  0.00  0.00    +0.000 S 
BRANCH   7   9
ATOM      9  N   UNL     1       2.667   6.444  17.964  0.00  0.00    +0.000 N 
ATOM     10  H   UNL     1       1.753   6.245  18.352  0.00  0.00    +0.000 HD
BRANCH   9  11
ATOM     11  C   UNL     1       3.024   7.839  17.763  0.00  0.00    +0.000 C 
BRANCH  11  12
ATOM     12  C   UNL     1       1.857   8.794  17.991  0.00  0.00    +0.000 C 
BRANCH  12  13
ATOM     13  C   UNL     1       1.453   8.882  19.466  0.00  0.00    +0.000 C 
BRANCH  13  14
ATOM     14  C   UNL     1       0.338   9.912  19.635  0.00  0.00    +0.000 C 
BRANCH  14  15
ATOM     15  C   UNL     1       0.808  11.317  20.066  0.00  0.00    +0.000 C 
ATOM     16  C   UNL     1       0.711  12.383  18.963  0.00  0.00    +0.000 C 
ATOM     17  C   UNL     1      -0.734  12.665  18.554  0.00  0.00    +0.000 C 
ATOM     18  C   UNL     1      -1.605  13.037  19.754  0.00  0.00    +0.000 C 
ATOM     19  C   UNL     1      -1.476  12.059  20.919  0.00  0.00    +0.000 C 
ATOM     20  C   UNL     1      -0.014  11.786  21.281  0.00  0.00    +0.000 C 
ENDBRANCH  14  15
ENDBRANCH  13  14
ENDBRANCH  12  13
ENDBRANCH  11  12
ENDBRANCH   9  11
ENDBRANCH   7   9
ENDBRANCH   5   7
ENDBRANCH   3   5
BRANCH   2  21
ATOM     21  C   UNL     1       7.688   5.613  18.554  0.00  0.00    +0.000 C 
BRANCH  21  22
ATOM     22  C   UNL     1       7.909   7.054  18.354  0.00  0.00    +0.000 A 
ATOM     23  N   UNL     1       8.659   7.882  19.049  0.00  0.00    +0.000 NA
ATOM     24  C   UNL     1       8.522   9.066  18.353  0.00  0.00    +0.000 A 
ATOM     25  N   UNL     1       7.692   8.983  17.302  0.00  0.00    +0.000 NA
ATOM     26  O   UNL     1       7.288   7.649  17.296  0.00  0.00    +0.000 OA
BRANCH  24  27
ATOM     27  C   UNL     1       9.212  10.285  18.763  0.00  0.00    +0.000 A 
ATOM     28  C   UNL     1       9.400  10.574  20.124  0.00  0.00    +0.000 A 
ATOM     29  C   UNL     1      10.049  11.749  20.518  0.00  0.00    +0.000 A 
ATOM     30  C   UNL     1      10.518  12.639  19.554  0.00  0.00    +0.000 A 
ATOM     31  C   UNL     1      10.344  12.365  18.201  0.00  0.00    +0.000 A 
ATOM     32  C   UNL     1       9.693  11.186  17.803  0.00  0.00    +0.000 A 
ENDBRANCH  24  27
ENDBRANCH  21  22
ENDBRANCH   2  21
TORSDOF 11
ENDMDL
MODEL 9
REMARK VINA RESULT:      -7.1      2.231      7.197
REMARK  Name = 
REMARK  11 active torsions:
REMARK  status: ('A' for Active; 'I' for Inactive)
REMARK    1  A    between atoms: C_2  and  C_3
REMARK    2  A    between atoms: C_3  and  C_4
REMARK    3  A    between atoms: C_6  and  C_7
REMARK    4  A    between atoms: N_15  and  N_16
REMARK    5  A    between atoms: N_16  and  C_17
REMARK    6  A    between atoms: C_17  and  N_19
REMARK    7  A    between atoms: N_19  and  C_20
REMARK    8  A    between atoms: C_20  and  C_21
REMARK    9  A    between atoms: C_21  and  C_22
REMARK   10  A    between atoms: C_22  and  C_23
REMARK   11  A    between atoms: C_23  and  C_24
REMARK                            x       y       z     vdW  Elec       q    Type
REMARK                         _______ _______ _______ _____ _____    ______ ____
ROOT
ATOM      1  O   UNL     1       7.323   5.473  20.330  0.00  0.00    +0.000 OA
ATOM      2  C   UNL     1       6.983   5.111  19.200  0.00  0.00    +0.000 C 
ATOM      3  N   UNL     1       5.878   4.311  19.065  0.00  0.00    +0.000 N 
ATOM      4  H   UNL     1       5.340   4.115  19.906  0.00  0.00    +0.000 HD
ENDROOT
BRANCH   3   5
ATOM      5  N   UNL     1       5.353   3.849  17.861  0.00  0.00    +0.000 N 
ATOM      6  H   UNL     1       5.265   2.840  17.731  0.00  0.00    +0.000 HD
BRANCH   5   7
ATOM      7  C   UNL     1       4.700   4.713  16.996  0.00  0.00    +0.000 C 
ATOM      8  S   UNL     1       5.230   5.049  15.446  0.00  0.00    +0.000 S 
BRANCH   7   9
ATOM      9  N   UNL     1       3.558   5.230  17.577  0.00  0.00    +0.000 N 
ATOM     10  H   UNL     1       2.777   4.595  17.690  0.00  0.00    +0.000 HD
BRANCH   9  11
ATOM     11  C   UNL     1       3.461   6.536  18.207  0.00  0.00    +0.000 C 
BRANCH  11  12
ATOM     12  C   UNL     1       2.229   7.321  17.770  0.00  0.00    +0.000 C 
BRANCH  12  13
ATOM     13  C   UNL     1       2.361   8.821  18.054  0.00  0.00    +0.000 C 
BRANCH  13  14
ATOM     14  C   UNL     1       0.998   9.496  17.907  0.00  0.00    +0.000 C 
BRANCH  14  15
ATOM     15  C   UNL     1       0.403  10.055  19.216  0.00  0.00    +0.000 C 
ATOM     16  C   UNL     1       1.067  11.349  19.712  0.00  0.00    +0.000 C 
ATOM     17  C   UNL     1       0.840  12.521  18.757  0.00  0.00    +0.000 C 
ATOM     18  C   UNL     1      -0.645  12.742  18.468  0.00  0.00    +0.000 C 
ATOM     19  C   UNL     1      -1.377  11.466  18.061  0.00  0.00    +0.000 C 
ATOM     20  C   UNL     1      -1.104  10.313  19.029  0.00  0.00    +0.000 C 
ENDBRANCH  14  15
ENDBRANCH  13  14
ENDBRANCH  12  13
ENDBRANCH  11  12
ENDBRANCH   9  11
ENDBRANCH   7   9
ENDBRANCH   5   7
ENDBRANCH   3   5
BRANCH   2  21
ATOM     21  C   UNL     1       7.729   5.595  17.982  0.00  0.00    +0.000 C 
BRANCH  21  22
ATOM     22  C   UNL     1       7.836   7.064  17.985  0.00  0.00    +0.000 A 
ATOM     23  N   UNL     1       8.619   7.836  18.706  0.00  0.00    +0.000 NA
ATOM     24  C   UNL     1       8.322   9.095  18.226  0.00  0.00    +0.000 A 
ATOM     25  N   UNL     1       7.367   9.103  17.282  0.00  0.00    +0.000 NA
ATOM     26  O   UNL     1       7.047   7.757  17.116  0.00  0.00    +0.000 OA
BRANCH  24  27
ATOM     27  C   UNL     1       8.985  10.291  18.737  0.00  0.00    +0.000 A 
ATOM     28  C   UNL     1       9.354  10.379  20.088  0.00  0.00    +0.000 A 
ATOM     29  C   UNL     1       9.977  11.531  20.580  0.00  0.00    +0.000 A 
ATOM     30  C   UNL     1      10.240  12.597  19.724  0.00  0.00    +0.000 A 
ATOM     31  C   UNL     1       9.886  12.524  18.381  0.00  0.00    +0.000 A 
ATOM     32  C   UNL     1       9.260  11.370  17.884  0.00  0.00    +0.000 A 
ENDBRANCH  24  27
ENDBRANCH  21  22
ENDBRANCH   2  21
TORSDOF 11
ENDMDL
