MODEL 1
REMARK VINA RESULT:      -8.2      0.000      0.000
REMARK  Name = 
REMARK  3 active torsions:
REMARK  status: ('A' for Active; 'I' for Inactive)
REMARK    1  A    between atoms: C_2  and  O_3
REMARK    2  A    between atoms: C_2  and  C_4
REMARK    3  A    between atoms: N_12  and  C_13
REMARK                            x       y       z     vdW  Elec       q    Type
REMARK                         _______ _______ _______ _____ _____    ______ ____
ROOT
ATOM      1  C   UNL     1       4.625   5.239  16.907  0.00  0.00    +0.000 A 
ATOM      2  C   UNL     1       4.744   3.830  16.823  0.00  0.00    +0.000 A 
ATOM      3  C   UNL     1       3.937   2.961  17.594  0.00  0.00    +0.000 A 
ATOM      4  C   UNL     1       3.020   3.483  18.501  0.00  0.00    +0.000 A 
ATOM      5  C   UNL     1       2.960   4.859  18.592  0.00  0.00    +0.000 A 
ATOM      6  C   UNL     1       3.699   5.731  17.802  0.00  0.00    +0.000 A 
ATOM      7  C   UNL     1       3.254   7.090  18.174  0.00  0.00    +0.000 C 
ATOM      8  O   UNL     1       3.627   8.079  17.566  0.00  0.00    +0.000 OA
ATOM      9  N   UNL     1       2.371   6.946  19.256  0.00  0.00    +0.000 N 
ATOM     10  C   UNL     1       2.137   5.610  19.499  0.00  0.00    +0.000 C 
ATOM     11  C   UNL     1       1.276   4.977  20.298  0.00  0.00    +0.000 C 
ATOM     12  C   UNL     1       1.143   3.472  20.286  0.00  0.00    +0.000 C 
ATOM     13  C   UNL     1       2.092   2.660  19.351  0.00  0.00    +0.000 C 
ENDROOT
BRANCH   9  14
ATOM     14  C   UNL     1       1.753   8.028  19.915  0.00  0.00    +0.000 A 
ATOM     15  C   UNL     1       1.205   9.087  19.187  0.00  0.00    +0.000 A 
ATOM     16  C   UNL     1       0.475  10.080  19.845  0.00  0.00    +0.000 A 
ATOM     17  C   UNL     1       0.339  10.051  21.234  0.00  0.00    +0.000 A 
ATOM     18  C   UNL     1       0.930   9.027  21.970  0.00  0.00    +0.000 A 
ATOM     19  C   UNL     1       1.618   8.008  21.312  0.00  0.00    +0.000 A 
ENDBRANCH   9  14
BRANCH   1  21
ATOM     20  O   UNL     1       6.747   5.856  16.099  0.00  0.00    +0.000 OA
ATOM     21  C   UNL     1       5.541   6.049  16.068  0.00  0.00    +0.000 C 
BRANCH  21  22
ATOM     22  O   UNL     1       4.975   6.905  15.201  0.00  0.00    +0.000 OA
ATOM     23  H   UNL     1       4.758   7.808  15.532  0.00  0.00    +0.000 HD
ENDBRANCH  21  22
ENDBRANCH   1  21
TORSDOF 3
ENDMDL
MODEL 2
REMARK VINA RESULT:      -8.2      0.112      1.036
REMARK  Name = 
REMARK  3 active torsions:
REMARK  status: ('A' for Active; 'I' for Inactive)
REMARK    1  A    between atoms: C_2  and  O_3
REMARK    2  A    between atoms: C_2  and  C_4
REMARK    3  A    between atoms: N_12  and  C_13
REMARK                            x       y       z     vdW  Elec       q    Type
REMARK                         _______ _______ _______ _____ _____    ______ ____
ROOT
ATOM      1  C   UNL     1       4.613   5.235  16.910  0.00  0.00    +0.000 A 
ATOM      2  C   UNL     1       4.740   3.828  16.812  0.00  0.00    +0.000 A 
ATOM      3  C   UNL     1       3.935   2.946  17.570  0.00  0.00    +0.000 A 
ATOM      4  C   UNL     1       3.010   3.454  18.478  0.00  0.00    +0.000 A 
ATOM      5  C   UNL     1       2.942   4.828  18.582  0.00  0.00    +0.000 A 
ATOM      6  C   UNL     1       3.679   5.713  17.805  0.00  0.00    +0.000 A 
ATOM      7  C   UNL     1       3.225   7.066  18.187  0.00  0.00    +0.000 C 
ATOM      8  O   UNL     1       3.595   8.062  17.590  0.00  0.00    +0.000 OA
ATOM      9  N   UNL     1       2.337   6.906  19.263  0.00  0.00    +0.000 N 
ATOM     10  C   UNL     1       2.110   5.566  19.493  0.00  0.00    +0.000 C 
ATOM     11  C   UNL     1       1.249   4.920  20.281  0.00  0.00    +0.000 C 
ATOM     12  C   UNL     1       1.124   3.414  20.254  0.00  0.00    +0.000 C 
ATOM     13  C   UNL     1       2.083   2.618  19.316  0.00  0.00    +0.000 C 
ENDROOT
BRANCH   9  14
ATOM     14  C   UNL     1       1.710   7.978  19.930  0.00  0.00    +0.000 A 
ATOM     15  C   UNL     1       1.612   7.990  21.323  0.00  0.00    +0.000 A 
ATOM     16  C   UNL     1       1.114   9.120  21.977  0.00  0.00    +0.000 A 
ATOM     17  C   UNL     1       0.660  10.216  21.241  0.00  0.00    +0.000 A 
ATOM     18  C   UNL     1       0.704  10.187  19.850  0.00  0.00    +0.000 A 
ATOM     19  C   UNL     1       1.245   9.079  19.196  0.00  0.00    +0.000 A 
ENDBRANCH   9  14
BRANCH   1  21
ATOM     20  O   UNL     1       6.737   5.893  16.141  0.00  0.00    +0.000 OA
ATOM     21  C   UNL     1       5.528   6.059  16.083  0.00  0.00    +0.000 C 
BRANCH  21  22
ATOM     22  O   UNL     1       4.962   6.893  15.195  0.00  0.00    +0.000 OA
ATOM     23  H   UNL     1       3.980   6.866  15.110  0.00  0.00    +0.000 HD
ENDBRANCH  21  22
ENDBRANCH   1  21
TORSDOF 3
ENDMDL
MODEL 3
REMARK VINA RESULT:      -8.1      2.841      6.311
REMARK  Name = 
REMARK  3 active torsions:
REMARK  status: ('A' for Active; 'I' for Inactive)
REMARK    1  A    between atoms: C_2  and  O_3
REMARK    2  A    between atoms: C_2  and  C_4
REMARK    3  A    between atoms: N_12  and  C_13
REMARK                            x       y       z     vdW  Elec       q    Type
REMARK                         _______ _______ _______ _____ _____    ______ ____
ROOT
ATOM      1  C   UNL     1       2.342   4.105  20.301  0.00  0.00    +0.000 A 
ATOM      2  C   UNL     1       1.570   5.053  21.016  0.00  0.00    +0.000 A 
ATOM      3  C   UNL     1       1.465   6.402  20.603  0.00  0.00    +0.000 A 
ATOM      4  C   UNL     1       2.168   6.845  19.486  0.00  0.00    +0.000 A 
ATOM      5  C   UNL     1       2.946   5.908  18.838  0.00  0.00    +0.000 A 
ATOM      6  C   UNL     1       3.016   4.566  19.189  0.00  0.00    +0.000 A 
ATOM      7  C   UNL     1       3.886   3.926  18.180  0.00  0.00    +0.000 C 
ATOM      8  O   UNL     1       4.045   2.718  18.139  0.00  0.00    +0.000 OA
ATOM      9  N   UNL     1       4.386   4.955  17.366  0.00  0.00    +0.000 N 
ATOM     10  C   UNL     1       3.799   6.155  17.708  0.00  0.00    +0.000 C 
ATOM     11  C   UNL     1       3.825   7.363  17.143  0.00  0.00    +0.000 C 
ATOM     12  C   UNL     1       2.979   8.501  17.667  0.00  0.00    +0.000 C 
ATOM     13  C   UNL     1       2.112   8.244  18.939  0.00  0.00    +0.000 C 
ENDROOT
BRANCH   9  14
ATOM     14  C   UNL     1       5.282   4.747  16.298  0.00  0.00    +0.000 A 
ATOM     15  C   UNL     1       4.833   4.224  15.083  0.00  0.00    +0.000 A 
ATOM     16  C   UNL     1       5.702   4.154  13.991  0.00  0.00    +0.000 A 
ATOM     17  C   UNL     1       7.033   4.551  14.125  0.00  0.00    +0.000 A 
ATOM     18  C   UNL     1       7.500   5.023  15.349  0.00  0.00    +0.000 A 
ATOM     19  C   UNL     1       6.623   5.139  16.427  0.00  0.00    +0.000 A 
ENDBRANCH   9  14
BRANCH   1  21
ATOM     20  O   UNL     1       2.726   2.525  22.001  0.00  0.00    +0.000 OA
ATOM     21  C   UNL     1       2.396   2.725  20.842  0.00  0.00    +0.000 C 
BRANCH  21  22
ATOM     22  O   UNL     1       1.954   1.740  20.043  0.00  0.00    +0.000 OA
ATOM     23  H   UNL     1       1.015   1.458  20.148  0.00  0.00    +0.000 HD
ENDBRANCH  21  22
ENDBRANCH   1  21
TORSDOF 3
ENDMDL
MODEL 4
REMARK VINA RESULT:      -8.0      2.813      6.308
REMARK  Name = 
REMARK  3 active torsions:
REMARK  status: ('A' for Active; 'I' for Inactive)
REMARK    1  A    between atoms: C_2  and  O_3
REMARK    2  A    between atoms: C_2  and  C_4
REMARK    3  A    between atoms: N_12  and  C_13
REMARK                            x       y       z     vdW  Elec       q    Type
REMARK                         _______ _______ _______ _____ _____    ______ ____
ROOT
ATOM      1  C   UNL     1       2.389   4.106  20.289  0.00  0.00    +0.000 A 
ATOM      2  C   UNL     1       1.599   5.007  21.044  0.00  0.00    +0.000 A 
ATOM      3  C   UNL     1       1.447   6.364  20.677  0.00  0.00    +0.000 A 
ATOM      4  C   UNL     1       2.120   6.864  19.565  0.00  0.00    +0.000 A 
ATOM      5  C   UNL     1       2.917   5.973  18.877  0.00  0.00    +0.000 A 
ATOM      6  C   UNL     1       3.032   4.623  19.184  0.00  0.00    +0.000 A 
ATOM      7  C   UNL     1       3.907   4.043  18.143  0.00  0.00    +0.000 C 
ATOM      8  O   UNL     1       4.102   2.842  18.061  0.00  0.00    +0.000 OA
ATOM      9  N   UNL     1       4.363   5.112  17.356  0.00  0.00    +0.000 N 
ATOM     10  C   UNL     1       3.745   6.282  17.744  0.00  0.00    +0.000 C 
ATOM     11  C   UNL     1       3.726   7.507  17.219  0.00  0.00    +0.000 C 
ATOM     12  C   UNL     1       2.854   8.602  17.790  0.00  0.00    +0.000 C 
ATOM     13  C   UNL     1       2.014   8.277  19.064  0.00  0.00    +0.000 C 
ENDROOT
BRANCH   9  14
ATOM     14  C   UNL     1       5.250   4.966  16.270  0.00  0.00    +0.000 A 
ATOM     15  C   UNL     1       6.600   5.295  16.404  0.00  0.00    +0.000 A 
ATOM     16  C   UNL     1       7.493   5.015  15.366  0.00  0.00    +0.000 A 
ATOM     17  C   UNL     1       7.031   4.459  14.172  0.00  0.00    +0.000 A 
ATOM     18  C   UNL     1       5.676   4.178  14.013  0.00  0.00    +0.000 A 
ATOM     19  C   UNL     1       4.791   4.413  15.065  0.00  0.00    +0.000 A 
ENDBRANCH   9  14
BRANCH   1  21
ATOM     20  O   UNL     1       2.851   2.485  21.931  0.00  0.00    +0.000 OA
ATOM     21  C   UNL     1       2.492   2.712  20.785  0.00  0.00    +0.000 C 
BRANCH  21  22
ATOM     22  O   UNL     1       2.063   1.741  19.963  0.00  0.00    +0.000 OA
ATOM     23  H   UNL     1       2.473   1.690  19.068  0.00  0.00    +0.000 HD
ENDBRANCH  21  22
ENDBRANCH   1  21
TORSDOF 3
ENDMDL
MODEL 5
REMARK VINA RESULT:      -7.8      2.540      3.923
REMARK  Name = 
REMARK  3 active torsions:
REMARK  status: ('A' for Active; 'I' for Inactive)
REMARK    1  A    between atoms: C_2  and  O_3
REMARK    2  A    between atoms: C_2  and  C_4
REMARK    3  A    between atoms: N_12  and  C_13
REMARK                            x       y       z     vdW  Elec       q    Type
REMARK                         _______ _______ _______ _____ _____    ______ ____
ROOT
ATOM      1  C   UNL     1       2.856   3.461  19.973  0.00  0.00    +0.000 A 
ATOM      2  C   UNL     1       3.701   2.612  19.218  0.00  0.00    +0.000 A 
ATOM      3  C   UNL     1       4.475   3.090  18.135  0.00  0.00    +0.000 A 
ATOM      4  C   UNL     1       4.388   4.427  17.754  0.00  0.00    +0.000 A 
ATOM      5  C   UNL     1       3.523   5.218  18.482  0.00  0.00    +0.000 A 
ATOM      6  C   UNL     1       2.800   4.783  19.586  0.00  0.00    +0.000 A 
ATOM      7  C   UNL     1       2.088   5.972  20.098  0.00  0.00    +0.000 C 
ATOM      8  O   UNL     1       1.461   5.946  21.144  0.00  0.00    +0.000 OA
ATOM      9  N   UNL     1       2.328   7.013  19.188  0.00  0.00    +0.000 N 
ATOM     10  C   UNL     1       3.229   6.602  18.228  0.00  0.00    +0.000 C 
ATOM     11  C   UNL     1       3.878   7.255  17.263  0.00  0.00    +0.000 C 
ATOM     12  C   UNL     1       4.922   6.574  16.408  0.00  0.00    +0.000 C 
ATOM     13  C   UNL     1       5.180   5.054  16.641  0.00  0.00    +0.000 C 
ENDROOT
BRANCH   9  14
ATOM     14  C   UNL     1       1.790   8.309  19.315  0.00  0.00    +0.000 A 
ATOM     15  C   UNL     1       1.573   9.104  18.188  0.00  0.00    +0.000 A 
ATOM     16  C   UNL     1       0.912  10.329  18.315  0.00  0.00    +0.000 A 
ATOM     17  C   UNL     1       0.517  10.788  19.572  0.00  0.00    +0.000 A 
ATOM     18  C   UNL     1       0.779  10.024  20.707  0.00  0.00    +0.000 A 
ATOM     19  C   UNL     1       1.397   8.780  20.577  0.00  0.00    +0.000 A 
ENDBRANCH   9  14
BRANCH   1  21
ATOM     20  O   UNL     1       2.636   2.421  22.072  0.00  0.00    +0.000 OA
ATOM     21  C   UNL     1       2.076   2.841  21.071  0.00  0.00    +0.000 C 
BRANCH  21  22
ATOM     22  O   UNL     1       0.737   2.877  20.962  0.00  0.00    +0.000 OA
ATOM     23  H   UNL     1       0.360   3.239  20.126  0.00  0.00    +0.000 HD
ENDBRANCH  21  22
ENDBRANCH   1  21
TORSDOF 3
ENDMDL
MODEL 6
REMARK VINA RESULT:      -7.7      1.269      1.558
REMARK  Name = 
REMARK  3 active torsions:
REMARK  status: ('A' for Active; 'I' for Inactive)
REMARK    1  A    between atoms: C_2  and  O_3
REMARK    2  A    between atoms: C_2  and  C_4
REMARK    3  A    between atoms: N_12  and  C_13
REMARK                            x       y       z     vdW  Elec       q    Type
REMARK                         _______ _______ _______ _____ _____    ______ ____
ROOT
ATOM      1  C   UNL     1       5.766   4.865  16.420  0.00  0.00    +0.000 A 
ATOM      2  C   UNL     1       5.810   3.462  16.227  0.00  0.00    +0.000 A 
ATOM      3  C   UNL     1       4.749   2.615  16.623  0.00  0.00    +0.000 A 
ATOM      4  C   UNL     1       3.634   3.149  17.264  0.00  0.00    +0.000 A 
ATOM      5  C   UNL     1       3.642   4.512  17.478  0.00  0.00    +0.000 A 
ATOM      6  C   UNL     1       4.644   5.370  17.043  0.00  0.00    +0.000 A 
ATOM      7  C   UNL     1       4.199   6.731  17.406  0.00  0.00    +0.000 C 
ATOM      8  O   UNL     1       4.807   7.725  17.046  0.00  0.00    +0.000 OA
ATOM      9  N   UNL     1       3.019   6.587  18.152  0.00  0.00    +0.000 N 
ATOM     10  C   UNL     1       2.632   5.263  18.171  0.00  0.00    +0.000 C 
ATOM     11  C   UNL     1       1.527   4.654  18.604  0.00  0.00    +0.000 C 
ATOM     12  C   UNL     1       1.302   3.175  18.392  0.00  0.00    +0.000 C 
ATOM     13  C   UNL     1       2.437   2.354  17.705  0.00  0.00    +0.000 C 
ENDROOT
BRANCH   9  14
ATOM     14  C   UNL     1       2.302   7.666  18.707  0.00  0.00    +0.000 A 
ATOM     15  C   UNL     1       1.823   8.695  17.894  0.00  0.00    +0.000 A 
ATOM     16  C   UNL     1       0.997   9.684  18.435  0.00  0.00    +0.000 A 
ATOM     17  C   UNL     1       0.696   9.680  19.798  0.00  0.00    +0.000 A 
ATOM     18  C   UNL     1       1.216   8.687  20.624  0.00  0.00    +0.000 A 
ATOM     19  C   UNL     1       2.001   7.672  20.077  0.00  0.00    +0.000 A 
ENDBRANCH   9  14
BRANCH   1  21
ATOM     20  O   UNL     1       7.353   5.574  14.834  0.00  0.00    +0.000 OA
ATOM     21  C   UNL     1       6.948   5.648  15.985  0.00  0.00    +0.000 C 
BRANCH  21  22
ATOM     22  O   UNL     1       7.463   6.516  16.871  0.00  0.00    +0.000 OA
ATOM     23  H   UNL     1       7.252   7.471  16.745  0.00  0.00    +0.000 HD
ENDBRANCH  21  22
ENDBRANCH   1  21
TORSDOF 3
ENDMDL
MODEL 7
REMARK VINA RESULT:      -7.7      1.765      5.692
REMARK  Name = 
REMARK  3 active torsions:
REMARK  status: ('A' for Active; 'I' for Inactive)
REMARK    1  A    between atoms: C_2  and  O_3
REMARK    2  A    between atoms: C_2  and  C_4
REMARK    3  A    between atoms: N_12  and  C_13
REMARK                            x       y       z     vdW  Elec       q    Type
REMARK                         _______ _______ _______ _____ _____    ______ ____
ROOT
ATOM      1  C   UNL     1       2.025   6.412  19.722  0.00  0.00    +0.000 A 
ATOM      2  C   UNL     1       1.190   5.653  20.579  0.00  0.00    +0.000 A 
ATOM      3  C   UNL     1       1.210   4.239  20.589  0.00  0.00    +0.000 A 
ATOM      4  C   UNL     1       2.038   3.548  19.708  0.00  0.00    +0.000 A 
ATOM      5  C   UNL     1       2.804   4.316  18.855  0.00  0.00    +0.000 A 
ATOM      6  C   UNL     1       2.845   5.704  18.870  0.00  0.00    +0.000 A 
ATOM      7  C   UNL     1       3.855   6.091  17.863  0.00  0.00    +0.000 C 
ATOM      8  O   UNL     1       4.216   7.248  17.724  0.00  0.00    +0.000 OA
ATOM      9  N   UNL     1       4.258   4.911  17.218  0.00  0.00    +0.000 N 
ATOM     10  C   UNL     1       3.677   3.819  17.827  0.00  0.00    +0.000 C 
ATOM     11  C   UNL     1       3.862   2.505  17.686  0.00  0.00    +0.000 C 
ATOM     12  C   UNL     1       3.166   1.506  18.582  0.00  0.00    +0.000 C 
ATOM     13  C   UNL     1       2.163   2.052  19.646  0.00  0.00    +0.000 C 
ENDROOT
BRANCH   9  14
ATOM     14  C   UNL     1       5.196   4.870  16.167  0.00  0.00    +0.000 A 
ATOM     15  C   UNL     1       6.532   5.210  16.391  0.00  0.00    +0.000 A 
ATOM     16  C   UNL     1       7.476   5.032  15.377  0.00  0.00    +0.000 A 
ATOM     17  C   UNL     1       7.080   4.570  14.120  0.00  0.00    +0.000 A 
ATOM     18  C   UNL     1       5.740   4.281  13.875  0.00  0.00    +0.000 A 
ATOM     19  C   UNL     1       4.803   4.413  14.900  0.00  0.00    +0.000 A 
ENDBRANCH   9  14
BRANCH   1  21
ATOM     20  O   UNL     1       1.866   8.465  20.862  0.00  0.00    +0.000 OA
ATOM     21  C   UNL     1       1.899   7.888  19.785  0.00  0.00    +0.000 C 
BRANCH  21  22
ATOM     22  O   UNL     1       1.946   8.553  18.618  0.00  0.00    +0.000 OA
ATOM     23  H   UNL     1       1.948   8.017  17.791  0.00  0.00    +0.000 HD
ENDBRANCH  21  22
ENDBRANCH   1  21
TORSDOF 3
ENDMDL
MODEL 8
REMARK VINA RESULT:      -7.6      2.547      4.068
REMARK  Name = 
REMARK  3 active torsions:
REMARK  status: ('A' for Active; 'I' for Inactive)
REMARK    1  A    between atoms: C_2  and  O_3
REMARK    2  A    between atoms: C_2  and  C_4
REMARK    3  A    between atoms: N_12  and  C_13
REMARK                            x       y       z     vdW  Elec       q    Type
REMARK                         _______ _______ _______ _____ _____    ______ ____
ROOT
ATOM      1  C   UNL     1       2.879   3.427  20.016  0.00  0.00    +0.000 A 
ATOM      2  C   UNL     1       3.738   2.562  19.295  0.00  0.00    +0.000 A 
ATOM      3  C   UNL     1       4.523   3.015  18.210  0.00  0.00    +0.000 A 
ATOM      4  C   UNL     1       4.435   4.341  17.792  0.00  0.00    +0.000 A 
ATOM      5  C   UNL     1       3.556   5.147  18.486  0.00  0.00    +0.000 A 
ATOM      6  C   UNL     1       2.821   4.738  19.592  0.00  0.00    +0.000 A 
ATOM      7  C   UNL     1       2.096   5.936  20.063  0.00  0.00    +0.000 C 
ATOM      8  O   UNL     1       1.455   5.935  21.101  0.00  0.00    +0.000 OA
ATOM      9  N   UNL     1       2.344   6.954  19.128  0.00  0.00    +0.000 N 
ATOM     10  C   UNL     1       3.259   6.522  18.192  0.00  0.00    +0.000 C 
ATOM     11  C   UNL     1       3.917   7.152  17.218  0.00  0.00    +0.000 C 
ATOM     12  C   UNL     1       4.976   6.454  16.395  0.00  0.00    +0.000 C 
ATOM     13  C   UNL     1       5.239   4.942  16.673  0.00  0.00    +0.000 C 
ENDROOT
BRANCH   9  14
ATOM     14  C   UNL     1       1.797   8.250  19.214  0.00  0.00    +0.000 A 
ATOM     15  C   UNL     1       1.329   8.746  20.432  0.00  0.00    +0.000 A 
ATOM     16  C   UNL     1       0.919  10.078  20.531  0.00  0.00    +0.000 A 
ATOM     17  C   UNL     1       0.922  10.901  19.403  0.00  0.00    +0.000 A 
ATOM     18  C   UNL     1       1.337  10.396  18.174  0.00  0.00    +0.000 A 
ATOM     19  C   UNL     1       1.791   9.080  18.083  0.00  0.00    +0.000 A 
ENDBRANCH   9  14
BRANCH   1  21
ATOM     20  O   UNL     1       2.637   2.433  22.135  0.00  0.00    +0.000 OA
ATOM     21  C   UNL     1       2.087   2.833  21.120  0.00  0.00    +0.000 C 
BRANCH  21  22
ATOM     22  O   UNL     1       0.750   2.869  20.997  0.00  0.00    +0.000 OA
ATOM     23  H   UNL     1       0.231   3.164  21.782  0.00  0.00    +0.000 HD
ENDBRANCH  21  22
ENDBRANCH   1  21
TORSDOF 3
ENDMDL
MODEL 9
REMARK VINA RESULT:      -7.6      1.806      5.663
REMARK  Name = 
REMARK  3 active torsions:
REMARK  status: ('A' for Active; 'I' for Inactive)
REMARK    1  A    between atoms: C_2  and  O_3
REMARK    2  A    between atoms: C_2  and  C_4
REMARK    3  A    between atoms: N_12  and  C_13
REMARK                            x       y       z     vdW  Elec       q    Type
REMARK                         _______ _______ _______ _____ _____    ______ ____
ROOT
ATOM      1  C   UNL     1       2.062   6.310  19.778  0.00  0.00    +0.000 A 
ATOM      2  C   UNL     1       1.165   5.579  20.596  0.00  0.00    +0.000 A 
ATOM      3  C   UNL     1       1.112   4.166  20.577  0.00  0.00    +0.000 A 
ATOM      4  C   UNL     1       1.928   3.450  19.706  0.00  0.00    +0.000 A 
ATOM      5  C   UNL     1       2.758   4.192  18.891  0.00  0.00    +0.000 A 
ATOM      6  C   UNL     1       2.870   5.576  18.935  0.00  0.00    +0.000 A 
ATOM      7  C   UNL     1       3.928   5.929  17.966  0.00  0.00    +0.000 C 
ATOM      8  O   UNL     1       4.352   7.068  17.861  0.00  0.00    +0.000 OA
ATOM      9  N   UNL     1       4.289   4.742  17.309  0.00  0.00    +0.000 N 
ATOM     10  C   UNL     1       3.635   3.670  17.879  0.00  0.00    +0.000 C 
ATOM     11  C   UNL     1       3.756   2.352  17.716  0.00  0.00    +0.000 C 
ATOM     12  C   UNL     1       2.982   1.374  18.571  0.00  0.00    +0.000 C 
ATOM     13  C   UNL     1       1.978   1.950  19.617  0.00  0.00    +0.000 C 
ENDROOT
BRANCH   9  14
ATOM     14  C   UNL     1       5.254   4.672  16.284  0.00  0.00    +0.000 A 
ATOM     15  C   UNL     1       4.883   4.347  14.978  0.00  0.00    +0.000 A 
ATOM     16  C   UNL     1       5.825   4.418  13.948  0.00  0.00    +0.000 A 
ATOM     17  C   UNL     1       7.149   4.758  14.228  0.00  0.00    +0.000 A 
ATOM     18  C   UNL     1       7.537   5.030  15.537  0.00  0.00    +0.000 A 
ATOM     19  C   UNL     1       6.588   5.007  16.560  0.00  0.00    +0.000 A 
ENDBRANCH   9  14
BRANCH   1  21
ATOM     20  O   UNL     1       1.849   8.467  18.863  0.00  0.00    +0.000 OA
ATOM     21  C   UNL     1       2.012   7.789  19.867  0.00  0.00    +0.000 C 
BRANCH  21  22
ATOM     22  O   UNL     1       2.030   8.326  21.098  0.00  0.00    +0.000 OA
ATOM     23  H   UNL     1       2.884   8.301  21.591  0.00  0.00    +0.000 HD
ENDBRANCH  21  22
ENDBRANCH   1  21
TORSDOF 3
ENDMDL
