MODEL 1
REMARK VINA RESULT:      -7.3      0.000      0.000
REMARK  Name = 
REMARK  4 active torsions:
REMARK  status: ('A' for Active; 'I' for Inactive)
REMARK    1  A    between atoms: C_2  and  C_9
REMARK    2  A    between atoms: N_3  and  C_4
REMARK    3  A    between atoms: N_11  and  C_12
REMARK    4  A    between atoms: C_12  and  C_13
REMARK                            x       y       z     vdW  Elec       q    Type
REMARK                         _______ _______ _______ _____ _____    ______ ____
ROOT
ATOM      1  C   UNL     1       5.780   4.420  17.902  0.00  0.00    +0.000 C 
ATOM      2  C   UNL     1       5.616   5.906  18.260  0.00  0.00    +0.000 C 
ATOM      3  N   UNL     1       4.669   6.683  17.447  0.00  0.00    +0.000 NA
ATOM      4  C   UNL     1       4.951   6.519  16.013  0.00  0.00    +0.000 C 
ATOM      5  C   UNL     1       5.182   5.075  15.510  0.00  0.00    +0.000 C 
ATOM      6  O   UNL     1       5.869   5.141  14.244  0.00  0.00    +0.000 OA
ATOM      7  C   UNL     1       7.272   4.918  14.469  0.00  0.00    +0.000 C 
ATOM      8  C   UNL     1       7.472   4.741  15.963  0.00  0.00    +0.000 C 
ATOM      9  C   UNL     1       6.102   4.258  16.410  0.00  0.00    +0.000 C 
ENDROOT
BRANCH   1  11
ATOM     10  O   UNL     1       4.144   2.668  17.531  0.00  0.00    +0.000 OA
ATOM     11  C   UNL     1       4.582   3.537  18.284  0.00  0.00    +0.000 C 
ATOM     12  N   UNL     1       4.046   3.739  19.539  0.00  0.00    +0.000 N 
ATOM     13  H   UNL     1       4.220   4.627  19.997  0.00  0.00    +0.000 HD
BRANCH  12  14
ATOM     14  C   UNL     1       2.886   2.988  19.986  0.00  0.00    +0.000 C 
ATOM     15  C   UNL     1       2.730   3.007  21.503  0.00  0.00    +0.000 C 
ATOM     16  C   UNL     1       1.281   2.595  21.725  0.00  0.00    +0.000 C 
ATOM     17  C   UNL     1       0.516   3.088  20.499  0.00  0.00    +0.000 C 
ATOM     18  C   UNL     1       1.565   3.588  19.511  0.00  0.00    +0.000 C 
ENDBRANCH  12  14
ENDBRANCH   1  11
BRANCH   3  19
ATOM     19  C   UNL     1       3.244   6.464  17.767  0.00  0.00    +0.000 C 
BRANCH  19  20
ATOM     20  C   UNL     1       2.518   7.727  18.204  0.00  0.00    +0.000 A 
ATOM     21  N   UNL     1       2.350   8.804  17.452  0.00  0.00    +0.000 NA
ATOM     22  C   UNL     1       1.629   9.757  18.143  0.00  0.00    +0.000 A 
ATOM     23  C   UNL     1       1.294   9.425  19.434  0.00  0.00    +0.000 A 
ATOM     24  S   UNL     1       1.858   7.848  19.793  0.00  0.00    +0.000 S 
ENDBRANCH  19  20
ENDBRANCH   3  19
TORSDOF 4
ENDMDL
MODEL 2
REMARK VINA RESULT:      -6.8      1.826      5.052
REMARK  Name = 
REMARK  4 active torsions:
REMARK  status: ('A' for Active; 'I' for Inactive)
REMARK    1  A    between atoms: C_2  and  C_9
REMARK    2  A    between atoms: N_3  and  C_4
REMARK    3  A    between atoms: N_11  and  C_12
REMARK    4  A    between atoms: C_12  and  C_13
REMARK                            x       y       z     vdW  Elec       q    Type
REMARK                         _______ _______ _______ _____ _____    ______ ____
ROOT
ATOM      1  C   UNL     1       2.802   3.596  17.971  0.00  0.00    +0.000 C 
ATOM      2  C   UNL     1       1.678   4.633  17.813  0.00  0.00    +0.000 C 
ATOM      3  N   UNL     1       1.694   5.773  18.742  0.00  0.00    +0.000 NA
ATOM      4  C   UNL     1       1.790   5.313  20.135  0.00  0.00    +0.000 C 
ATOM      5  C   UNL     1       2.853   4.233  20.440  0.00  0.00    +0.000 C 
ATOM      6  O   UNL     1       2.508   3.598  21.689  0.00  0.00    +0.000 OA
ATOM      7  C   UNL     1       1.832   2.360  21.405  0.00  0.00    +0.000 C 
ATOM      8  C   UNL     1       1.718   2.238  19.896  0.00  0.00    +0.000 C 
ATOM      9  C   UNL     1       2.877   3.099  19.421  0.00  0.00    +0.000 C 
ENDROOT
BRANCH   1  11
ATOM     10  O   UNL     1       4.618   3.827  16.380  0.00  0.00    +0.000 OA
ATOM     11  C   UNL     1       4.183   4.078  17.504  0.00  0.00    +0.000 C 
ATOM     12  N   UNL     1       4.900   4.846  18.397  0.00  0.00    +0.000 N 
ATOM     13  H   UNL     1       4.663   4.783  19.382  0.00  0.00    +0.000 HD
BRANCH  12  14
ATOM     14  C   UNL     1       6.235   5.318  18.075  0.00  0.00    +0.000 C 
ATOM     15  C   UNL     1       6.220   6.674  17.376  0.00  0.00    +0.000 C 
ATOM     16  C   UNL     1       7.645   7.184  17.543  0.00  0.00    +0.000 C 
ATOM     17  C   UNL     1       8.150   6.589  18.856  0.00  0.00    +0.000 C 
ATOM     18  C   UNL     1       7.088   5.593  19.311  0.00  0.00    +0.000 C 
ENDBRANCH  12  14
ENDBRANCH   1  11
BRANCH   3  19
ATOM     19  C   UNL     1       2.686   6.821  18.428  0.00  0.00    +0.000 C 
BRANCH  19  20
ATOM     20  C   UNL     1       2.128   8.233  18.518  0.00  0.00    +0.000 A 
ATOM     21  N   UNL     1       2.160   9.125  17.540  0.00  0.00    +0.000 NA
ATOM     22  C   UNL     1       1.548  10.294  17.945  0.00  0.00    +0.000 A 
ATOM     23  C   UNL     1       1.098  10.309  19.243  0.00  0.00    +0.000 A 
ATOM     24  S   UNL     1       1.406   8.793  19.981  0.00  0.00    +0.000 S 
ENDBRANCH  19  20
ENDBRANCH   3  19
TORSDOF 4
ENDMDL
MODEL 3
REMARK VINA RESULT:      -6.7      0.936      1.048
REMARK  Name = 
REMARK  4 active torsions:
REMARK  status: ('A' for Active; 'I' for Inactive)
REMARK    1  A    between atoms: C_2  and  C_9
REMARK    2  A    between atoms: N_3  and  C_4
REMARK    3  A    between atoms: N_11  and  C_12
REMARK    4  A    between atoms: C_12  and  C_13
REMARK                            x       y       z     vdW  Elec       q    Type
REMARK                         _______ _______ _______ _____ _____    ______ ____
ROOT
ATOM      1  C   UNL     1       6.149   4.848  18.062  0.00  0.00    +0.000 C 
ATOM      2  C   UNL     1       5.869   6.358  18.137  0.00  0.00    +0.000 C 
ATOM      3  N   UNL     1       4.698   6.852  17.399  0.00  0.00    +0.000 NA
ATOM      4  C   UNL     1       4.727   6.395  16.002  0.00  0.00    +0.000 C 
ATOM      5  C   UNL     1       5.040   4.900  15.765  0.00  0.00    +0.000 C 
ATOM      6  O   UNL     1       5.467   4.737  14.397  0.00  0.00    +0.000 OA
ATOM      7  C   UNL     1       6.904   4.688  14.366  0.00  0.00    +0.000 C 
ATOM      8  C   UNL     1       7.398   4.867  15.789  0.00  0.00    +0.000 C 
ATOM      9  C   UNL     1       6.207   4.383  16.600  0.00  0.00    +0.000 C 
ENDROOT
BRANCH   1  11
ATOM     10  O   UNL     1       5.487   3.410  19.899  0.00  0.00    +0.000 OA
ATOM     11  C   UNL     1       5.165   3.977  18.856  0.00  0.00    +0.000 C 
ATOM     12  N   UNL     1       3.880   3.895  18.361  0.00  0.00    +0.000 N 
ATOM     13  H   UNL     1       3.730   4.110  17.381  0.00  0.00    +0.000 HD
BRANCH  12  14
ATOM     14  C   UNL     1       2.880   3.065  19.009  0.00  0.00    +0.000 C 
ATOM     15  C   UNL     1       2.066   3.835  20.044  0.00  0.00    +0.000 C 
ATOM     16  C   UNL     1       0.832   2.968  20.253  0.00  0.00    +0.000 C 
ATOM     17  C   UNL     1       0.594   2.254  18.925  0.00  0.00    +0.000 C 
ATOM     18  C   UNL     1       1.804   2.564  18.049  0.00  0.00    +0.000 C 
ENDBRANCH  12  14
ENDBRANCH   1  11
BRANCH   3  19
ATOM     19  C   UNL     1       3.396   6.593  18.047  0.00  0.00    +0.000 C 
BRANCH  19  20
ATOM     20  C   UNL     1       2.580   7.851  18.297  0.00  0.00    +0.000 A 
ATOM     21  N   UNL     1       2.407   8.830  17.422  0.00  0.00    +0.000 NA
ATOM     22  C   UNL     1       1.595   9.808  17.958  0.00  0.00    +0.000 A 
ATOM     23  C   UNL     1       1.193   9.598  19.256  0.00  0.00    +0.000 A 
ATOM     24  S   UNL     1       1.811   8.104  19.820  0.00  0.00    +0.000 S 
ENDBRANCH  19  20
ENDBRANCH   3  19
TORSDOF 4
ENDMDL
MODEL 4
REMARK VINA RESULT:      -6.6      1.714      5.405
REMARK  Name = 
REMARK  4 active torsions:
REMARK  status: ('A' for Active; 'I' for Inactive)
REMARK    1  A    between atoms: C_2  and  C_9
REMARK    2  A    between atoms: N_3  and  C_4
REMARK    3  A    between atoms: N_11  and  C_12
REMARK    4  A    between atoms: C_12  and  C_13
REMARK                            x       y       z     vdW  Elec       q    Type
REMARK                         _______ _______ _______ _____ _____    ______ ____
ROOT
ATOM      1  C   UNL     1       2.778   3.208  18.527  0.00  0.00    +0.000 C 
ATOM      2  C   UNL     1       1.724   4.275  18.187  0.00  0.00    +0.000 C 
ATOM      3  N   UNL     1       1.729   5.496  19.006  0.00  0.00    +0.000 NA
ATOM      4  C   UNL     1       1.696   5.166  20.439  0.00  0.00    +0.000 C 
ATOM      5  C   UNL     1       2.675   4.073  20.925  0.00  0.00    +0.000 C 
ATOM      6  O   UNL     1       2.205   3.575  22.194  0.00  0.00    +0.000 OA
ATOM      7  C   UNL     1       1.490   2.348  21.971  0.00  0.00    +0.000 C 
ATOM      8  C   UNL     1       1.483   2.089  20.476  0.00  0.00    +0.000 C 
ATOM      9  C   UNL     1       2.718   2.848  20.018  0.00  0.00    +0.000 C 
ENDROOT
BRANCH   1  11
ATOM     10  O   UNL     1       5.119   3.672  18.959  0.00  0.00    +0.000 OA
ATOM     11  C   UNL     1       4.214   3.581  18.130  0.00  0.00    +0.000 C 
ATOM     12  N   UNL     1       4.450   3.770  16.785  0.00  0.00    +0.000 N 
ATOM     13  H   UNL     1       3.660   3.982  16.185  0.00  0.00    +0.000 HD
BRANCH  12  14
ATOM     14  C   UNL     1       5.761   4.167  16.303  0.00  0.00    +0.000 C 
ATOM     15  C   UNL     1       5.912   3.971  14.798  0.00  0.00    +0.000 C 
ATOM     16  C   UNL     1       7.111   4.839  14.438  0.00  0.00    +0.000 C 
ATOM     17  C   UNL     1       7.106   5.992  15.439  0.00  0.00    +0.000 C 
ATOM     18  C   UNL     1       6.035   5.659  16.472  0.00  0.00    +0.000 C 
ENDBRANCH  12  14
ENDBRANCH   1  11
BRANCH   3  19
ATOM     19  C   UNL     1       2.795   6.464  18.678  0.00  0.00    +0.000 C 
BRANCH  19  20
ATOM     20  C   UNL     1       2.305   7.901  18.590  0.00  0.00    +0.000 A 
ATOM     21  N   UNL     1       2.463   8.694  17.542  0.00  0.00    +0.000 NA
ATOM     22  C   UNL     1       1.881   9.922  17.783  0.00  0.00    +0.000 A 
ATOM     23  C   UNL     1       1.326  10.079  19.031  0.00  0.00    +0.000 A 
ATOM     24  S   UNL     1       1.494   8.629  19.927  0.00  0.00    +0.000 S 
ENDBRANCH  19  20
ENDBRANCH   3  19
TORSDOF 4
ENDMDL
MODEL 5
REMARK VINA RESULT:      -6.5      2.178      5.377
REMARK  Name = 
REMARK  4 active torsions:
REMARK  status: ('A' for Active; 'I' for Inactive)
REMARK    1  A    between atoms: C_2  and  C_9
REMARK    2  A    between atoms: N_3  and  C_4
REMARK    3  A    between atoms: N_11  and  C_12
REMARK    4  A    between atoms: C_12  and  C_13
REMARK                            x       y       z     vdW  Elec       q    Type
REMARK                         _______ _______ _______ _____ _____    ______ ____
ROOT
ATOM      1  C   UNL     1       3.543   3.726  18.652  0.00  0.00    +0.000 C 
ATOM      2  C   UNL     1       2.373   4.586  18.148  0.00  0.00    +0.000 C 
ATOM      3  N   UNL     1       1.920   5.672  19.031  0.00  0.00    +0.000 NA
ATOM      4  C   UNL     1       1.653   5.168  20.387  0.00  0.00    +0.000 C 
ATOM      5  C   UNL     1       2.727   4.249  21.012  0.00  0.00    +0.000 C 
ATOM      6  O   UNL     1       2.119   3.511  22.093  0.00  0.00    +0.000 OA
ATOM      7  C   UNL     1       1.770   2.200  21.616  0.00  0.00    +0.000 C 
ATOM      8  C   UNL     1       2.147   2.132  20.148  0.00  0.00    +0.000 C 
ATOM      9  C   UNL     1       3.245   3.180  20.055  0.00  0.00    +0.000 C 
ENDROOT
BRANCH   1  11
ATOM     10  O   UNL     1       5.659   4.422  19.612  0.00  0.00    +0.000 OA
ATOM     11  C   UNL     1       4.906   4.433  18.638  0.00  0.00    +0.000 C 
ATOM     12  N   UNL     1       5.266   5.050  17.458  0.00  0.00    +0.000 N 
ATOM     13  H   UNL     1       4.532   5.297  16.803  0.00  0.00    +0.000 HD
BRANCH  12  14
ATOM     14  C   UNL     1       6.515   5.784  17.348  0.00  0.00    +0.000 C 
ATOM     15  C   UNL     1       6.295   7.279  17.141  0.00  0.00    +0.000 C 
ATOM     16  C   UNL     1       7.637   7.897  17.507  0.00  0.00    +0.000 C 
ATOM     17  C   UNL     1       8.248   6.975  18.559  0.00  0.00    +0.000 C 
ATOM     18  C   UNL     1       7.346   5.746  18.627  0.00  0.00    +0.000 C 
ENDBRANCH  12  14
ENDBRANCH   1  11
BRANCH   3  19
ATOM     19  C   UNL     1       2.781   6.871  19.039  0.00  0.00    +0.000 C 
BRANCH  19  20
ATOM     20  C   UNL     1       2.011   8.170  19.221  0.00  0.00    +0.000 A 
ATOM     21  N   UNL     1       1.417   8.550  20.342  0.00  0.00    +0.000 NA
ATOM     22  C   UNL     1       0.831   9.788  20.173  0.00  0.00    +0.000 A 
ATOM     23  C   UNL     1       0.935  10.325  18.912  0.00  0.00    +0.000 A 
ATOM     24  S   UNL     1       1.836   9.272  17.905  0.00  0.00    +0.000 S 
ENDBRANCH  19  20
ENDBRANCH   3  19
TORSDOF 4
ENDMDL
MODEL 6
REMARK VINA RESULT:      -6.5      2.342      5.403
REMARK  Name = 
REMARK  4 active torsions:
REMARK  status: ('A' for Active; 'I' for Inactive)
REMARK    1  A    between atoms: C_2  and  C_9
REMARK    2  A    between atoms: N_3  and  C_4
REMARK    3  A    between atoms: N_11  and  C_12
REMARK    4  A    between atoms: C_12  and  C_13
REMARK                            x       y       z     vdW  Elec       q    Type
REMARK                         _______ _______ _______ _____ _____    ______ ____
ROOT
ATOM      1  C   UNL     1       6.585   4.708  17.695  0.00  0.00    +0.000 C 
ATOM      2  C   UNL     1       5.512   4.857  18.784  0.00  0.00    +0.000 C 
ATOM      3  N   UNL     1       4.398   5.773  18.497  0.00  0.00    +0.000 NA
ATOM      4  C   UNL     1       4.897   7.089  18.072  0.00  0.00    +0.000 C 
ATOM      5  C   UNL     1       6.017   7.097  17.005  0.00  0.00    +0.000 C 
ATOM      6  O   UNL     1       6.675   8.380  17.048  0.00  0.00    +0.000 OA
ATOM      7  C   UNL     1       7.884   8.252  17.817  0.00  0.00    +0.000 C 
ATOM      8  C   UNL     1       7.962   6.819  18.310  0.00  0.00    +0.000 C 
ATOM      9  C   UNL     1       7.123   6.084  17.276  0.00  0.00    +0.000 C 
ENDROOT
BRANCH   1  11
ATOM     10  O   UNL     1       5.318   2.998  16.530  0.00  0.00    +0.000 OA
ATOM     11  C   UNL     1       6.132   3.919  16.457  0.00  0.00    +0.000 C 
ATOM     12  N   UNL     1       6.654   4.323  15.246  0.00  0.00    +0.000 N 
ATOM     13  H   UNL     1       7.516   4.857  15.250  0.00  0.00    +0.000 HD
BRANCH  12  14
ATOM     14  C   UNL     1       6.326   3.619  14.019  0.00  0.00    +0.000 C 
ATOM     15  C   UNL     1       4.944   3.987  13.488  0.00  0.00    +0.000 C 
ATOM     16  C   UNL     1       4.982   3.537  12.034  0.00  0.00    +0.000 C 
ATOM     17  C   UNL     1       6.439   3.668  11.595  0.00  0.00    +0.000 C 
ATOM     18  C   UNL     1       7.237   3.993  12.853  0.00  0.00    +0.000 C 
ENDBRANCH  12  14
ENDBRANCH   1  11
BRANCH   3  19
ATOM     19  C   UNL     1       3.371   5.240  17.578  0.00  0.00    +0.000 C 
BRANCH  19  20
ATOM     20  C   UNL     1       2.390   4.291  18.249  0.00  0.00    +0.000 A 
ATOM     21  N   UNL     1       1.863   3.218  17.681  0.00  0.00    +0.000 NA
ATOM     22  C   UNL     1       1.032   2.569  18.571  0.00  0.00    +0.000 A 
ATOM     23  C   UNL     1       0.888   3.175  19.796  0.00  0.00    +0.000 A 
ATOM     24  S   UNL     1       1.858   4.586  19.863  0.00  0.00    +0.000 S 
ENDBRANCH  19  20
ENDBRANCH   3  19
TORSDOF 4
ENDMDL
MODEL 7
REMARK VINA RESULT:      -6.3      2.180      5.023
REMARK  Name = 
REMARK  4 active torsions:
REMARK  status: ('A' for Active; 'I' for Inactive)
REMARK    1  A    between atoms: C_2  and  C_9
REMARK    2  A    between atoms: N_3  and  C_4
REMARK    3  A    between atoms: N_11  and  C_12
REMARK    4  A    between atoms: C_12  and  C_13
REMARK                            x       y       z     vdW  Elec       q    Type
REMARK                         _______ _______ _______ _____ _____    ______ ____
ROOT
ATOM      1  C   UNL     1       3.500   4.549  17.212  0.00  0.00    +0.000 C 
ATOM      2  C   UNL     1       2.201   5.049  17.864  0.00  0.00    +0.000 C 
ATOM      3  N   UNL     1       2.218   5.229  19.323  0.00  0.00    +0.000 NA
ATOM      4  C   UNL     1       2.707   4.016  19.995  0.00  0.00    +0.000 C 
ATOM      5  C   UNL     1       3.989   3.371  19.421  0.00  0.00    +0.000 C 
ATOM      6  O   UNL     1       4.056   2.006  19.883  0.00  0.00    +0.000 OA
ATOM      7  C   UNL     1       3.570   1.143  18.841  0.00  0.00    +0.000 C 
ATOM      8  C   UNL     1       3.142   2.023  17.681  0.00  0.00    +0.000 C 
ATOM      9  C   UNL     1       3.989   3.267  17.900  0.00  0.00    +0.000 C 
ENDROOT
BRANCH   1  11
ATOM     10  O   UNL     1       4.426   6.763  16.860  0.00  0.00    +0.000 OA
ATOM     11  C   UNL     1       4.630   5.588  17.165  0.00  0.00    +0.000 C 
ATOM     12  N   UNL     1       5.886   5.146  17.523  0.00  0.00    +0.000 N 
ATOM     13  H   UNL     1       6.076   4.150  17.474  0.00  0.00    +0.000 HD
BRANCH  12  14
ATOM     14  C   UNL     1       7.035   6.033  17.473  0.00  0.00    +0.000 C 
ATOM     15  C   UNL     1       6.645   7.472  17.148  0.00  0.00    +0.000 C 
ATOM     16  C   UNL     1       7.855   8.284  17.587  0.00  0.00    +0.000 C 
ATOM     17  C   UNL     1       8.478   7.510  18.747  0.00  0.00    +0.000 C 
ATOM     18  C   UNL     1       7.739   6.178  18.819  0.00  0.00    +0.000 C 
ENDBRANCH  12  14
ENDBRANCH   1  11
BRANCH   3  19
ATOM     19  C   UNL     1       2.907   6.447  19.794  0.00  0.00    +0.000 C 
BRANCH  19  20
ATOM     20  C   UNL     1       2.002   7.667  19.867  0.00  0.00    +0.000 A 
ATOM     21  N   UNL     1       1.274   8.010  20.919  0.00  0.00    +0.000 NA
ATOM     22  C   UNL     1       0.589   9.180  20.660  0.00  0.00    +0.000 A 
ATOM     23  C   UNL     1       0.755   9.697  19.398  0.00  0.00    +0.000 A 
ATOM     24  S   UNL     1       1.841   8.716  18.508  0.00  0.00    +0.000 S 
ENDBRANCH  19  20
ENDBRANCH   3  19
TORSDOF 4
ENDMDL
MODEL 8
REMARK VINA RESULT:      -6.3      0.833      1.195
REMARK  Name = 
REMARK  4 active torsions:
REMARK  status: ('A' for Active; 'I' for Inactive)
REMARK    1  A    between atoms: C_2  and  C_9
REMARK    2  A    between atoms: N_3  and  C_4
REMARK    3  A    between atoms: N_11  and  C_12
REMARK    4  A    between atoms: C_12  and  C_13
REMARK                            x       y       z     vdW  Elec       q    Type
REMARK                         _______ _______ _______ _____ _____    ______ ____
ROOT
ATOM      1  C   UNL     1       5.567   5.128  18.605  0.00  0.00    +0.000 C 
ATOM      2  C   UNL     1       5.356   6.642  18.446  0.00  0.00    +0.000 C 
ATOM      3  N   UNL     1       4.420   7.074  17.398  0.00  0.00    +0.000 NA
ATOM      4  C   UNL     1       4.755   6.455  16.107  0.00  0.00    +0.000 C 
ATOM      5  C   UNL     1       5.038   4.935  16.117  0.00  0.00    +0.000 C 
ATOM      6  O   UNL     1       5.767   4.602  14.918  0.00  0.00    +0.000 OA
ATOM      7  C   UNL     1       7.167   4.514  15.240  0.00  0.00    +0.000 C 
ATOM      8  C   UNL     1       7.318   4.848  16.713  0.00  0.00    +0.000 C 
ATOM      9  C   UNL     1       5.945   4.493  17.260  0.00  0.00    +0.000 C 
ENDROOT
BRANCH   1  11
ATOM     10  O   UNL     1       4.185   3.181  19.032  0.00  0.00    +0.000 OA
ATOM     11  C   UNL     1       4.378   4.381  19.227  0.00  0.00    +0.000 C 
ATOM     12  N   UNL     1       3.556   5.116  20.056  0.00  0.00    +0.000 N 
ATOM     13  H   UNL     1       3.558   6.126  19.960  0.00  0.00    +0.000 HD
BRANCH  12  14
ATOM     14  C   UNL     1       2.379   4.519  20.663  0.00  0.00    +0.000 C 
ATOM     15  C   UNL     1       1.408   3.963  19.626  0.00  0.00    +0.000 C 
ATOM     16  C   UNL     1       0.527   3.015  20.427  0.00  0.00    +0.000 C 
ATOM     17  C   UNL     1       1.404   2.486  21.560  0.00  0.00    +0.000 C 
ATOM     18  C   UNL     1       2.699   3.290  21.509  0.00  0.00    +0.000 C 
ENDBRANCH  12  14
ENDBRANCH   1  11
BRANCH   3  19
ATOM     19  C   UNL     1       2.990   6.925  17.736  0.00  0.00    +0.000 C 
BRANCH  19  20
ATOM     20  C   UNL     1       2.339   8.216  18.207  0.00  0.00    +0.000 A 
ATOM     21  N   UNL     1       2.270   9.333  17.500  0.00  0.00    +0.000 NA
ATOM     22  C   UNL     1       1.594  10.304  18.211  0.00  0.00    +0.000 A 
ATOM     23  C   UNL     1       1.195   9.942  19.475  0.00  0.00    +0.000 A 
ATOM     24  S   UNL     1       1.636   8.315  19.779  0.00  0.00    +0.000 S 
ENDBRANCH  19  20
ENDBRANCH   3  19
TORSDOF 4
ENDMDL
MODEL 9
REMARK VINA RESULT:      -6.3      2.516      5.901
REMARK  Name = 
REMARK  4 active torsions:
REMARK  status: ('A' for Active; 'I' for Inactive)
REMARK    1  A    between atoms: C_2  and  C_9
REMARK    2  A    between atoms: N_3  and  C_4
REMARK    3  A    between atoms: N_11  and  C_12
REMARK    4  A    between atoms: C_12  and  C_13
REMARK                            x       y       z     vdW  Elec       q    Type
REMARK                         _______ _______ _______ _____ _____    ______ ____
ROOT
ATOM      1  C   UNL     1       2.201   5.138  20.483  0.00  0.00    +0.000 C 
ATOM      2  C   UNL     1       3.632   4.580  20.542  0.00  0.00    +0.000 C 
ATOM      3  N   UNL     1       4.321   4.384  19.258  0.00  0.00    +0.000 NA
ATOM      4  C   UNL     1       3.492   3.599  18.332  0.00  0.00    +0.000 C 
ATOM      5  C   UNL     1       2.010   4.019  18.199  0.00  0.00    +0.000 C 
ATOM      6  O   UNL     1       1.274   2.912  17.638  0.00  0.00    +0.000 OA
ATOM      7  C   UNL     1       0.620   2.205  18.706  0.00  0.00    +0.000 C 
ATOM      8  C   UNL     1       1.000   2.889  20.006  0.00  0.00    +0.000 C 
ATOM      9  C   UNL     1       1.334   4.296  19.537  0.00  0.00    +0.000 C 
ENDROOT
BRANCH   1  11
ATOM     10  O   UNL     1       2.518   7.047  19.021  0.00  0.00    +0.000 OA
ATOM     11  C   UNL     1       2.112   6.623  20.103  0.00  0.00    +0.000 C 
ATOM     12  N   UNL     1       1.511   7.457  21.022  0.00  0.00    +0.000 N 
ATOM     13  H   UNL     1       1.465   7.151  21.988  0.00  0.00    +0.000 HD
BRANCH  12  14
ATOM     14  C   UNL     1       1.411   8.886  20.783  0.00  0.00    +0.000 C 
ATOM     15  C   UNL     1       0.349   9.230  19.743  0.00  0.00    +0.000 C 
ATOM     16  C   UNL     1       0.084  10.712  19.972  0.00  0.00    +0.000 C 
ATOM     17  C   UNL     1       0.340  10.957  21.457  0.00  0.00    +0.000 C 
ATOM     18  C   UNL     1       0.940   9.667  22.006  0.00  0.00    +0.000 C 
ENDBRANCH  12  14
ENDBRANCH   1  11
BRANCH   3  19
ATOM     19  C   UNL     1       4.843   5.618  18.635  0.00  0.00    +0.000 C 
BRANCH  19  20
ATOM     20  C   UNL     1       5.509   5.384  17.289  0.00  0.00    +0.000 A 
ATOM     21  N   UNL     1       4.973   5.679  16.115  0.00  0.00    +0.000 NA
ATOM     22  C   UNL     1       5.851   5.362  15.099  0.00  0.00    +0.000 A 
ATOM     23  C   UNL     1       7.030   4.779  15.495  0.00  0.00    +0.000 A 
ATOM     24  S   UNL     1       7.073   4.660  17.204  0.00  0.00    +0.000 S 
ENDBRANCH  19  20
ENDBRANCH   3  19
TORSDOF 4
ENDMDL
