MODEL 1
REMARK VINA RESULT:      -7.9      0.000      0.000
REMARK  Name = 
REMARK  3 active torsions:
REMARK  status: ('A' for Active; 'I' for Inactive)
REMARK    1  A    between atoms: C_2  and  C_3
REMARK    2  A    between atoms: C_9  and  C_10
REMARK    3  A    between atoms: C_25  and  C_26
REMARK                            x       y       z     vdW  Elec       q    Type
REMARK                         _______ _______ _______ _____ _____    ______ ____
ROOT
ATOM      1  O   UNL     1       1.855  15.794  21.091  0.00  0.00    +0.000 OA
ATOM      2  C   UNL     1       1.494  15.380  19.993  0.00  0.00    +0.000 C 
ATOM      3  N   UNL     1       1.342  14.022  19.722  0.00  0.00    +0.000 N 
ATOM      4  C   UNL     1       1.487  13.049  20.791  0.00  0.00    +0.000 C 
ATOM      5  C   UNL     1       1.007  11.713  20.215  0.00  0.00    +0.000 C 
ATOM      6  C   UNL     1      -0.218  11.138  20.919  0.00  0.00    +0.000 C 
ATOM      7  N   UNL     1      -1.359  11.545  20.118  0.00  0.00    +0.000 N 
ATOM      8  C   UNL     1      -2.458  12.141  20.702  0.00  0.00    +0.000 A 
ATOM      9  N   UNL     1      -2.481  12.347  22.024  0.00  0.00    +0.000 NA
ATOM     10  C   UNL     1      -3.577  12.927  22.537  0.00  0.00    +0.000 A 
ATOM     11  C   UNL     1      -4.672  13.282  21.790  0.00  0.00    +0.000 A 
ATOM     12  C   UNL     1      -4.594  13.021  20.440  0.00  0.00    +0.000 A 
ATOM     13  N   UNL     1      -3.486  12.467  19.899  0.00  0.00    +0.000 NA
ATOM     14  C   UNL     1      -0.981  12.093  18.830  0.00  0.00    +0.000 C 
ATOM     15  C   UNL     1       0.546  12.005  18.783  0.00  0.00    +0.000 C 
ATOM     16  C   UNL     1       1.162  13.350  18.444  0.00  0.00    +0.000 C 
ENDROOT
BRANCH   2  17
ATOM     17  C   UNL     1       1.247  16.368  18.901  0.00  0.00    +0.000 A 
ATOM     18  C   UNL     1      -0.086  16.739  18.657  0.00  0.00    +0.000 A 
ATOM     19  C   UNL     1      -0.390  17.678  17.685  0.00  0.00    +0.000 A 
ATOM     20  F   UNL     1      -1.660  18.072  17.529  0.00  0.00    +0.000 F 
ATOM     21  C   UNL     1       0.600  18.208  16.881  0.00  0.00    +0.000 A 
ATOM     22  C   UNL     1       1.919  17.785  17.056  0.00  0.00    +0.000 A 
ATOM     23  C   UNL     1       2.282  16.861  18.070  0.00  0.00    +0.000 A 
BRANCH  23  24
ATOM     24  C   UNL     1       3.695  16.454  18.171  0.00  0.00    +0.000 A 
ATOM     25  N   UNL     1       4.566  17.267  18.791  0.00  0.00    +0.000 NA
ATOM     26  C   UNL     1       5.819  16.794  18.935  0.00  0.00    +0.000 A 
ATOM     27  C   UNL     1       6.245  15.589  18.430  0.00  0.00    +0.000 A 
ATOM     28  C   UNL     1       5.302  14.872  17.739  0.00  0.00    +0.000 A 
ATOM     29  N   UNL     1       4.028  15.279  17.589  0.00  0.00    +0.000 NA
ENDBRANCH  23  24
ENDBRANCH   2  17
BRANCH  12  30
ATOM     30  C   UNL     1      -5.707  13.272  19.497  0.00  0.00    +0.000 A 
ATOM     31  C   UNL     1      -5.764  12.685  18.220  0.00  0.00    +0.000 A 
ATOM     32  C   UNL     1      -6.813  12.968  17.331  0.00  0.00    +0.000 A 
ATOM     33  C   UNL     1      -7.828  13.840  17.705  0.00  0.00    +0.000 A 
ATOM     34  C   UNL     1      -7.809  14.422  18.965  0.00  0.00    +0.000 A 
ATOM     35  C   UNL     1      -6.762  14.139  19.850  0.00  0.00    +0.000 A 
ENDBRANCH  12  30
TORSDOF 3
ENDMDL
MODEL 2
REMARK VINA RESULT:      -7.9      0.119      1.137
REMARK  Name = 
REMARK  3 active torsions:
REMARK  status: ('A' for Active; 'I' for Inactive)
REMARK    1  A    between atoms: C_2  and  C_3
REMARK    2  A    between atoms: C_9  and  C_10
REMARK    3  A    between atoms: C_25  and  C_26
REMARK                            x       y       z     vdW  Elec       q    Type
REMARK                         _______ _______ _______ _____ _____    ______ ____
ROOT
ATOM      1  O   UNL     1       1.823  15.785  21.153  0.00  0.00    +0.000 OA
ATOM      2  C   UNL     1       1.470  15.371  20.053  0.00  0.00    +0.000 C 
ATOM      3  N   UNL     1       1.309  14.014  19.784  0.00  0.00    +0.000 N 
ATOM      4  C   UNL     1       1.432  13.042  20.857  0.00  0.00    +0.000 C 
ATOM      5  C   UNL     1       0.946  11.709  20.279  0.00  0.00    +0.000 C 
ATOM      6  C   UNL     1      -0.293  11.148  20.971  0.00  0.00    +0.000 C 
ATOM      7  N   UNL     1      -1.421  11.565  20.156  0.00  0.00    +0.000 N 
ATOM      8  C   UNL     1      -2.520  12.173  20.726  0.00  0.00    +0.000 A 
ATOM      9  N   UNL     1      -2.556  12.383  22.048  0.00  0.00    +0.000 NA
ATOM     10  C   UNL     1      -3.652  12.975  22.547  0.00  0.00    +0.000 A 
ATOM     11  C   UNL     1      -4.736  13.338  21.787  0.00  0.00    +0.000 A 
ATOM     12  C   UNL     1      -4.645  13.074  20.438  0.00  0.00    +0.000 A 
ATOM     13  N   UNL     1      -3.536  12.507  19.911  0.00  0.00    +0.000 NA
ATOM     14  C   UNL     1      -1.023  12.105  18.872  0.00  0.00    +0.000 C 
ATOM     15  C   UNL     1       0.503  12.003  18.841  0.00  0.00    +0.000 C 
ATOM     16  C   UNL     1       1.136  13.341  18.506  0.00  0.00    +0.000 C 
ENDROOT
BRANCH   2  17
ATOM     17  C   UNL     1       1.246  16.358  18.956  0.00  0.00    +0.000 A 
ATOM     18  C   UNL     1      -0.080  16.751  18.703  0.00  0.00    +0.000 A 
ATOM     19  C   UNL     1      -0.363  17.690  17.726  0.00  0.00    +0.000 A 
ATOM     20  F   UNL     1      -1.625  18.105  17.562  0.00  0.00    +0.000 F 
ATOM     21  C   UNL     1       0.640  18.200  16.924  0.00  0.00    +0.000 A 
ATOM     22  C   UNL     1       1.950  17.756  17.108  0.00  0.00    +0.000 A 
ATOM     23  C   UNL     1       2.293  16.831  18.127  0.00  0.00    +0.000 A 
BRANCH  23  24
ATOM     24  C   UNL     1       3.698  16.400  18.238  0.00  0.00    +0.000 A 
ATOM     25  N   UNL     1       4.060  15.215  17.718  0.00  0.00    +0.000 NA
ATOM     26  C   UNL     1       5.375  14.923  17.766  0.00  0.00    +0.000 A 
ATOM     27  C   UNL     1       6.315  15.725  18.368  0.00  0.00    +0.000 A 
ATOM     28  C   UNL     1       5.832  16.871  18.945  0.00  0.00    +0.000 A 
ATOM     29  N   UNL     1       4.535  17.230  18.901  0.00  0.00    +0.000 NA
ENDBRANCH  23  24
ENDBRANCH   2  17
BRANCH  12  30
ATOM     30  C   UNL     1      -5.745  13.332  19.482  0.00  0.00    +0.000 A 
ATOM     31  C   UNL     1      -6.691  14.355  19.675  0.00  0.00    +0.000 A 
ATOM     32  C   UNL     1      -7.745  14.556  18.771  0.00  0.00    +0.000 A 
ATOM     33  C   UNL     1      -7.872  13.740  17.653  0.00  0.00    +0.000 A 
ATOM     34  C   UNL     1      -6.943  12.732  17.426  0.00  0.00    +0.000 A 
ATOM     35  C   UNL     1      -5.892  12.534  18.329  0.00  0.00    +0.000 A 
ENDBRANCH  12  30
TORSDOF 3
ENDMDL
MODEL 3
REMARK VINA RESULT:      -7.2      5.418      8.479
REMARK  Name = 
REMARK  3 active torsions:
REMARK  status: ('A' for Active; 'I' for Inactive)
REMARK    1  A    between atoms: C_2  and  C_3
REMARK    2  A    between atoms: C_9  and  C_10
REMARK    3  A    between atoms: C_25  and  C_26
REMARK                            x       y       z     vdW  Elec       q    Type
REMARK                         _______ _______ _______ _____ _____    ______ ____
ROOT
ATOM      1  O   UNL     1      10.299  15.490  21.766  0.00  0.00    +0.000 OA
ATOM      2  C   UNL     1       9.786  14.383  21.626  0.00  0.00    +0.000 C 
ATOM      3  N   UNL     1       9.091  13.749  22.652  0.00  0.00    +0.000 N 
ATOM      4  C   UNL     1       8.840  14.450  23.899  0.00  0.00    +0.000 C 
ATOM      5  C   UNL     1       7.850  13.581  24.681  0.00  0.00    +0.000 C 
ATOM      6  C   UNL     1       6.505  14.254  24.942  0.00  0.00    +0.000 C 
ATOM      7  N   UNL     1       5.620  13.785  23.892  0.00  0.00    +0.000 N 
ATOM      8  C   UNL     1       4.867  14.671  23.150  0.00  0.00    +0.000 A 
ATOM      9  N   UNL     1       4.947  15.984  23.398  0.00  0.00    +0.000 NA
ATOM     10  C   UNL     1       4.190  16.799  22.647  0.00  0.00    +0.000 A 
ATOM     11  C   UNL     1       3.325  16.358  21.677  0.00  0.00    +0.000 A 
ATOM     12  C   UNL     1       3.273  14.994  21.488  0.00  0.00    +0.000 A 
ATOM     13  N   UNL     1       4.052  14.159  22.212  0.00  0.00    +0.000 NA
ATOM     14  C   UNL     1       6.172  12.675  23.140  0.00  0.00    +0.000 C 
ATOM     15  C   UNL     1       7.529  12.383  23.782  0.00  0.00    +0.000 C 
ATOM     16  C   UNL     1       8.636  12.370  22.744  0.00  0.00    +0.000 C 
ENDROOT
BRANCH   2  17
ATOM     17  C   UNL     1       9.950  13.680  20.319  0.00  0.00    +0.000 A 
ATOM     18  C   UNL     1      10.968  12.716  20.229  0.00  0.00    +0.000 A 
ATOM     19  C   UNL     1      11.157  11.996  19.060  0.00  0.00    +0.000 A 
ATOM     20  F   UNL     1      12.081  11.029  19.029  0.00  0.00    +0.000 F 
ATOM     21  C   UNL     1      10.404  12.268  17.934  0.00  0.00    +0.000 A 
ATOM     22  C   UNL     1       9.445  13.281  17.984  0.00  0.00    +0.000 A 
ATOM     23  C   UNL     1       9.186  14.011  19.173  0.00  0.00    +0.000 A 
BRANCH  23  24
ATOM     24  C   UNL     1       8.170  15.078  19.132  0.00  0.00    +0.000 A 
ATOM     25  N   UNL     1       8.560  16.341  18.890  0.00  0.00    +0.000 NA
ATOM     26  C   UNL     1       7.575  17.253  18.769  0.00  0.00    +0.000 A 
ATOM     27  C   UNL     1       6.243  16.967  18.949  0.00  0.00    +0.000 A 
ATOM     28  C   UNL     1       5.955  15.668  19.278  0.00  0.00    +0.000 A 
ATOM     29  N   UNL     1       6.894  14.708  19.382  0.00  0.00    +0.000 NA
ENDBRANCH  23  24
ENDBRANCH   2  17
BRANCH  12  30
ATOM     30  C   UNL     1       2.347  14.339  20.537  0.00  0.00    +0.000 A 
ATOM     31  C   UNL     1       1.619  15.058  19.572  0.00  0.00    +0.000 A 
ATOM     32  C   UNL     1       0.720  14.417  18.706  0.00  0.00    +0.000 A 
ATOM     33  C   UNL     1       0.535  13.041  18.786  0.00  0.00    +0.000 A 
ATOM     34  C   UNL     1       1.252  12.301  19.717  0.00  0.00    +0.000 A 
ATOM     35  C   UNL     1       2.148  12.943  20.579  0.00  0.00    +0.000 A 
ENDBRANCH  12  30
TORSDOF 3
ENDMDL
MODEL 4
REMARK VINA RESULT:      -7.1      0.746      1.238
REMARK  Name = 
REMARK  3 active torsions:
REMARK  status: ('A' for Active; 'I' for Inactive)
REMARK    1  A    between atoms: C_2  and  C_3
REMARK    2  A    between atoms: C_9  and  C_10
REMARK    3  A    between atoms: C_25  and  C_26
REMARK                            x       y       z     vdW  Elec       q    Type
REMARK                         _______ _______ _______ _____ _____    ______ ____
ROOT
ATOM      1  O   UNL     1       2.439  15.192  21.109  0.00  0.00    +0.000 OA
ATOM      2  C   UNL     1       1.819  14.901  20.090  0.00  0.00    +0.000 C 
ATOM      3  N   UNL     1       1.457  13.591  19.786  0.00  0.00    +0.000 N 
ATOM      4  C   UNL     1       1.695  12.531  20.751  0.00  0.00    +0.000 C 
ATOM      5  C   UNL     1       0.955  11.300  20.218  0.00  0.00    +0.000 C 
ATOM      6  C   UNL     1      -0.164  10.806  21.129  0.00  0.00    +0.000 C 
ATOM      7  N   UNL     1      -1.386  11.391  20.604  0.00  0.00    +0.000 N 
ATOM      8  C   UNL     1      -2.267  12.054  21.433  0.00  0.00    +0.000 A 
ATOM      9  N   UNL     1      -2.001  12.162  22.740  0.00  0.00    +0.000 NA
ATOM     10  C   UNL     1      -2.896  12.814  23.498  0.00  0.00    +0.000 A 
ATOM     11  C   UNL     1      -4.068  13.338  23.013  0.00  0.00    +0.000 A 
ATOM     12  C   UNL     1      -4.293  13.173  21.664  0.00  0.00    +0.000 A 
ATOM     13  N   UNL     1      -3.388  12.546  20.878  0.00  0.00    +0.000 NA
ATOM     14  C   UNL     1      -1.210  11.990  19.296  0.00  0.00    +0.000 C 
ATOM     15  C   UNL     1       0.255  11.746  18.929  0.00  0.00    +0.000 C 
ATOM     16  C   UNL     1       0.947  13.040  18.541  0.00  0.00    +0.000 C 
ENDROOT
BRANCH   2  17
ATOM     17  C   UNL     1       1.478  15.989  19.126  0.00  0.00    +0.000 A 
ATOM     18  C   UNL     1       0.119  16.313  18.973  0.00  0.00    +0.000 A 
ATOM     19  C   UNL     1      -0.271  17.335  18.124  0.00  0.00    +0.000 A 
ATOM     20  F   UNL     1      -1.564  17.675  18.059  0.00  0.00    +0.000 F 
ATOM     21  C   UNL     1       0.657  18.003  17.349  0.00  0.00    +0.000 A 
ATOM     22  C   UNL     1       2.002  17.635  17.428  0.00  0.00    +0.000 A 
ATOM     23  C   UNL     1       2.452  16.626  18.318  0.00  0.00    +0.000 A 
BRANCH  23  24
ATOM     24  C   UNL     1       3.886  16.286  18.322  0.00  0.00    +0.000 A 
ATOM     25  N   UNL     1       4.761  17.152  18.859  0.00  0.00    +0.000 NA
ATOM     26  C   UNL     1       6.043  16.742  18.920  0.00  0.00    +0.000 A 
ATOM     27  C   UNL     1       6.487  15.546  18.407  0.00  0.00    +0.000 A 
ATOM     28  C   UNL     1       5.531  14.770  17.803  0.00  0.00    +0.000 A 
ATOM     29  N   UNL     1       4.232  15.115  17.740  0.00  0.00    +0.000 NA
ENDBRANCH  23  24
ENDBRANCH   2  17
BRANCH  12  30
ATOM     30  C   UNL     1      -5.534  13.609  20.986  0.00  0.00    +0.000 A 
ATOM     31  C   UNL     1      -6.622  14.165  21.683  0.00  0.00    +0.000 A 
ATOM     32  C   UNL     1      -7.801  14.537  21.020  0.00  0.00    +0.000 A 
ATOM     33  C   UNL     1      -7.914  14.365  19.645  0.00  0.00    +0.000 A 
ATOM     34  C   UNL     1      -6.851  13.835  18.927  0.00  0.00    +0.000 A 
ATOM     35  C   UNL     1      -5.675  13.464  19.590  0.00  0.00    +0.000 A 
ENDBRANCH  12  30
TORSDOF 3
ENDMDL
MODEL 5
REMARK VINA RESULT:      -7.0      1.911      3.625
REMARK  Name = 
REMARK  3 active torsions:
REMARK  status: ('A' for Active; 'I' for Inactive)
REMARK    1  A    between atoms: C_2  and  C_3
REMARK    2  A    between atoms: C_9  and  C_10
REMARK    3  A    between atoms: C_25  and  C_26
REMARK                            x       y       z     vdW  Elec       q    Type
REMARK                         _______ _______ _______ _____ _____    ______ ____
ROOT
ATOM      1  O   UNL     1       1.792  16.429  21.038  0.00  0.00    +0.000 OA
ATOM      2  C   UNL     1       1.470  15.911  19.972  0.00  0.00    +0.000 C 
ATOM      3  N   UNL     1       1.489  14.533  19.778  0.00  0.00    +0.000 N 
ATOM      4  C   UNL     1       1.775  13.647  20.893  0.00  0.00    +0.000 C 
ATOM      5  C   UNL     1       1.462  12.231  20.400  0.00  0.00    +0.000 C 
ATOM      6  C   UNL     1       0.332  11.544  21.162  0.00  0.00    +0.000 C 
ATOM      7  N   UNL     1      -0.865  11.758  20.368  0.00  0.00    +0.000 N 
ATOM      8  C   UNL     1      -2.021  12.241  20.945  0.00  0.00    +0.000 A 
ATOM      9  N   UNL     1      -2.049  12.515  22.255  0.00  0.00    +0.000 NA
ATOM     10  C   UNL     1      -3.201  12.978  22.762  0.00  0.00    +0.000 A 
ATOM     11  C   UNL     1      -4.346  13.149  22.023  0.00  0.00    +0.000 A 
ATOM     12  C   UNL     1      -4.257  12.826  20.687  0.00  0.00    +0.000 A 
ATOM     13  N   UNL     1      -3.095  12.388  20.150  0.00  0.00    +0.000 NA
ATOM     14  C   UNL     1      -0.581  12.277  19.045  0.00  0.00    +0.000 C 
ATOM     15  C   UNL     1       0.943  12.382  18.966  0.00  0.00    +0.000 C 
ATOM     16  C   UNL     1       1.376  13.774  18.542  0.00  0.00    +0.000 C 
ENDROOT
BRANCH   2  17
ATOM     17  C   UNL     1       1.080  16.798  18.836  0.00  0.00    +0.000 A 
ATOM     18  C   UNL     1       2.031  17.003  17.822  0.00  0.00    +0.000 A 
ATOM     19  C   UNL     1       1.729  17.783  16.719  0.00  0.00    +0.000 A 
ATOM     20  F   UNL     1       2.625  17.895  15.731  0.00  0.00    +0.000 F 
ATOM     21  C   UNL     1       0.519  18.442  16.630  0.00  0.00    +0.000 A 
ATOM     22  C   UNL     1      -0.404  18.315  17.670  0.00  0.00    +0.000 A 
ATOM     23  C   UNL     1      -0.156  17.489  18.796  0.00  0.00    +0.000 A 
BRANCH  23  24
ATOM     24  C   UNL     1      -1.176  17.429  19.858  0.00  0.00    +0.000 A 
ATOM     25  N   UNL     1      -1.957  16.341  19.952  0.00  0.00    +0.000 NA
ATOM     26  C   UNL     1      -2.802  16.305  21.001  0.00  0.00    +0.000 A 
ATOM     27  C   UNL     1      -2.943  17.332  21.904  0.00  0.00    +0.000 A 
ATOM     28  C   UNL     1      -2.163  18.435  21.672  0.00  0.00    +0.000 A 
ATOM     29  N   UNL     1      -1.279  18.514  20.659  0.00  0.00    +0.000 NA
ENDBRANCH  23  24
ENDBRANCH   2  17
BRANCH  12  30
ATOM     30  C   UNL     1      -5.408  12.880  19.758  0.00  0.00    +0.000 A 
ATOM     31  C   UNL     1      -6.617  13.519  20.087  0.00  0.00    +0.000 A 
ATOM     32  C   UNL     1      -7.706  13.524  19.203  0.00  0.00    +0.000 A 
ATOM     33  C   UNL     1      -7.605  12.894  17.968  0.00  0.00    +0.000 A 
ATOM     34  C   UNL     1      -6.419  12.269  17.607  0.00  0.00    +0.000 A 
ATOM     35  C   UNL     1      -5.334  12.266  18.491  0.00  0.00    +0.000 A 
ENDBRANCH  12  30
TORSDOF 3
ENDMDL
MODEL 6
REMARK VINA RESULT:      -7.0      2.909      7.453
REMARK  Name = 
REMARK  3 active torsions:
REMARK  status: ('A' for Active; 'I' for Inactive)
REMARK    1  A    between atoms: C_2  and  C_3
REMARK    2  A    between atoms: C_9  and  C_10
REMARK    3  A    between atoms: C_25  and  C_26
REMARK                            x       y       z     vdW  Elec       q    Type
REMARK                         _______ _______ _______ _____ _____    ______ ____
ROOT
ATOM      1  O   UNL     1      -3.044  11.906  23.320  0.00  0.00    +0.000 OA
ATOM      2  C   UNL     1      -3.548  12.883  22.773  0.00  0.00    +0.000 C 
ATOM      3  N   UNL     1      -3.418  14.173  23.282  0.00  0.00    +0.000 N 
ATOM      4  C   UNL     1      -2.558  14.416  24.428  0.00  0.00    +0.000 C 
ATOM      5  C   UNL     1      -2.443  15.939  24.554  0.00  0.00    +0.000 C 
ATOM      6  C   UNL     1      -1.026  16.471  24.368  0.00  0.00    +0.000 C 
ATOM      7  N   UNL     1      -0.940  16.884  22.979  0.00  0.00    +0.000 N 
ATOM      8  C   UNL     1       0.107  16.474  22.180  0.00  0.00    +0.000 A 
ATOM      9  N   UNL     1       1.063  15.686  22.687  0.00  0.00    +0.000 NA
ATOM     10  C   UNL     1       2.059  15.321  21.865  0.00  0.00    +0.000 A 
ATOM     11  C   UNL     1       2.163  15.737  20.561  0.00  0.00    +0.000 A 
ATOM     12  C   UNL     1       1.160  16.566  20.109  0.00  0.00    +0.000 A 
ATOM     13  N   UNL     1       0.131  16.919  20.912  0.00  0.00    +0.000 NA
ATOM     14  C   UNL     1      -2.230  16.925  22.319  0.00  0.00    +0.000 C 
ATOM     15  C   UNL     1      -3.248  16.527  23.390  0.00  0.00    +0.000 C 
ATOM     16  C   UNL     1      -4.129  15.387  22.913  0.00  0.00    +0.000 C 
ENDROOT
BRANCH   2  17
ATOM     17  C   UNL     1      -4.360  12.671  21.538  0.00  0.00    +0.000 A 
ATOM     18  C   UNL     1      -5.754  12.582  21.690  0.00  0.00    +0.000 A 
ATOM     19  C   UNL     1      -6.575  12.422  20.587  0.00  0.00    +0.000 A 
ATOM     20  F   UNL     1      -7.903  12.421  20.754  0.00  0.00    +0.000 F 
ATOM     21  C   UNL     1      -6.039  12.264  19.324  0.00  0.00    +0.000 A 
ATOM     22  C   UNL     1      -4.652  12.266  19.168  0.00  0.00    +0.000 A 
ATOM     23  C   UNL     1      -3.774  12.474  20.263  0.00  0.00    +0.000 A 
BRANCH  23  24
ATOM     24  C   UNL     1      -2.322  12.440  20.013  0.00  0.00    +0.000 A 
ATOM     25  N   UNL     1      -1.667  13.595  19.809  0.00  0.00    +0.000 NA
ATOM     26  C   UNL     1      -0.329  13.505  19.682  0.00  0.00    +0.000 A 
ATOM     27  C   UNL     1       0.360  12.315  19.681  0.00  0.00    +0.000 A 
ATOM     28  C   UNL     1      -0.408  11.187  19.809  0.00  0.00    +0.000 A 
ATOM     29  N   UNL     1      -1.744  11.218  19.970  0.00  0.00    +0.000 NA
ENDBRANCH  23  24
ENDBRANCH   2  17
BRANCH  12  30
ATOM     30  C   UNL     1       1.149  17.166  18.756  0.00  0.00    +0.000 A 
ATOM     31  C   UNL     1       2.223  17.030  17.858  0.00  0.00    +0.000 A 
ATOM     32  C   UNL     1       2.202  17.640  16.595  0.00  0.00    +0.000 A 
ATOM     33  C   UNL     1       1.103  18.396  16.202  0.00  0.00    +0.000 A 
ATOM     34  C   UNL     1       0.019  18.535  17.060  0.00  0.00    +0.000 A 
ATOM     35  C   UNL     1       0.042  17.925  18.320  0.00  0.00    +0.000 A 
ENDBRANCH  12  30
TORSDOF 3
ENDMDL
MODEL 7
REMARK VINA RESULT:      -7.0      4.273      8.355
REMARK  Name = 
REMARK  3 active torsions:
REMARK  status: ('A' for Active; 'I' for Inactive)
REMARK    1  A    between atoms: C_2  and  C_3
REMARK    2  A    between atoms: C_9  and  C_10
REMARK    3  A    between atoms: C_25  and  C_26
REMARK                            x       y       z     vdW  Elec       q    Type
REMARK                         _______ _______ _______ _____ _____    ______ ____
ROOT
ATOM      1  O   UNL     1      -2.099  12.228  19.665  0.00  0.00    +0.000 OA
ATOM      2  C   UNL     1      -0.959  12.182  20.121  0.00  0.00    +0.000 C 
ATOM      3  N   UNL     1       0.028  13.093  19.753  0.00  0.00    +0.000 N 
ATOM      4  C   UNL     1      -0.308  14.221  18.901  0.00  0.00    +0.000 C 
ATOM      5  C   UNL     1       0.918  15.140  18.913  0.00  0.00    +0.000 C 
ATOM      6  C   UNL     1       0.653  16.519  19.510  0.00  0.00    +0.000 C 
ATOM      7  N   UNL     1       1.079  16.436  20.896  0.00  0.00    +0.000 N 
ATOM      8  C   UNL     1       0.256  16.862  21.917  0.00  0.00    +0.000 A 
ATOM      9  N   UNL     1      -0.953  17.362  21.635  0.00  0.00    +0.000 NA
ATOM     10  C   UNL     1      -1.709  17.763  22.668  0.00  0.00    +0.000 A 
ATOM     11  C   UNL     1      -1.297  17.720  23.977  0.00  0.00    +0.000 A 
ATOM     12  C   UNL     1      -0.033  17.216  24.197  0.00  0.00    +0.000 A 
ATOM     13  N   UNL     1       0.731  16.777  23.172  0.00  0.00    +0.000 NA
ATOM     14  C   UNL     1       1.838  15.235  21.184  0.00  0.00    +0.000 C 
ATOM     15  C   UNL     1       1.934  14.485  19.854  0.00  0.00    +0.000 C 
ATOM     16  C   UNL     1       1.460  13.050  19.998  0.00  0.00    +0.000 C 
ENDROOT
BRANCH   2  17
ATOM     17  C   UNL     1      -0.614  11.086  21.074  0.00  0.00    +0.000 A 
ATOM     18  C   UNL     1       0.037   9.956  20.549  0.00  0.00    +0.000 A 
ATOM     19  C   UNL     1       0.421   8.915  21.377  0.00  0.00    +0.000 A 
ATOM     20  F   UNL     1       1.111   7.890  20.864  0.00  0.00    +0.000 F 
ATOM     21  C   UNL     1       0.100   8.927  22.721  0.00  0.00    +0.000 A 
ATOM     22  C   UNL     1      -0.620  10.003  23.240  0.00  0.00    +0.000 A 
ATOM     23  C   UNL     1      -0.993  11.113  22.439  0.00  0.00    +0.000 A 
BRANCH  23  24
ATOM     24  C   UNL     1      -1.771  12.198  23.063  0.00  0.00    +0.000 A 
ATOM     25  N   UNL     1      -1.135  13.312  23.461  0.00  0.00    +0.000 NA
ATOM     26  C   UNL     1      -1.914  14.303  23.935  0.00  0.00    +0.000 A 
ATOM     27  C   UNL     1      -3.277  14.198  24.089  0.00  0.00    +0.000 A 
ATOM     28  C   UNL     1      -3.820  12.990  23.734  0.00  0.00    +0.000 A 
ATOM     29  N   UNL     1      -3.095  11.975  23.227  0.00  0.00    +0.000 NA
ENDBRANCH  23  24
ENDBRANCH   2  17
BRANCH  12  30
ATOM     30  C   UNL     1       0.599  17.162  25.534  0.00  0.00    +0.000 A 
ATOM     31  C   UNL     1       1.938  17.533  25.754  0.00  0.00    +0.000 A 
ATOM     32  C   UNL     1       2.524  17.438  27.025  0.00  0.00    +0.000 A 
ATOM     33  C   UNL     1       1.781  16.975  28.104  0.00  0.00    +0.000 A 
ATOM     34  C   UNL     1       0.451  16.617  27.922  0.00  0.00    +0.000 A 
ATOM     35  C   UNL     1      -0.132  16.713  26.653  0.00  0.00    +0.000 A 
ENDBRANCH  12  30
TORSDOF 3
ENDMDL
MODEL 8
REMARK VINA RESULT:      -7.0      4.282      8.396
REMARK  Name = 
REMARK  3 active torsions:
REMARK  status: ('A' for Active; 'I' for Inactive)
REMARK    1  A    between atoms: C_2  and  C_3
REMARK    2  A    between atoms: C_9  and  C_10
REMARK    3  A    between atoms: C_25  and  C_26
REMARK                            x       y       z     vdW  Elec       q    Type
REMARK                         _______ _______ _______ _____ _____    ______ ____
ROOT
ATOM      1  O   UNL     1      -1.933  12.269  19.596  0.00  0.00    +0.000 OA
ATOM      2  C   UNL     1      -0.812  12.211  20.094  0.00  0.00    +0.000 C 
ATOM      3  N   UNL     1       0.197  13.113  19.767  0.00  0.00    +0.000 N 
ATOM      4  C   UNL     1      -0.096  14.248  18.908  0.00  0.00    +0.000 C 
ATOM      5  C   UNL     1       1.137  15.155  18.970  0.00  0.00    +0.000 C 
ATOM      6  C   UNL     1       0.864  16.534  19.562  0.00  0.00    +0.000 C 
ATOM      7  N   UNL     1       1.238  16.441  20.963  0.00  0.00    +0.000 N 
ATOM      8  C   UNL     1       0.381  16.871  21.955  0.00  0.00    +0.000 A 
ATOM      9  N   UNL     1      -0.811  17.384  21.630  0.00  0.00    +0.000 NA
ATOM     10  C   UNL     1      -1.601  17.789  22.636  0.00  0.00    +0.000 A 
ATOM     11  C   UNL     1      -1.239  17.737  23.959  0.00  0.00    +0.000 A 
ATOM     12  C   UNL     1       0.011  17.220  24.224  0.00  0.00    +0.000 A 
ATOM     13  N   UNL     1       0.808  16.777  23.226  0.00  0.00    +0.000 NA
ATOM     14  C   UNL     1       1.974  15.232  21.274  0.00  0.00    +0.000 C 
ATOM     15  C   UNL     1       2.112  14.486  19.946  0.00  0.00    +0.000 C 
ATOM     16  C   UNL     1       1.619  13.055  20.065  0.00  0.00    +0.000 C 
ENDROOT
BRANCH   2  17
ATOM     17  C   UNL     1      -0.513  11.107  21.054  0.00  0.00    +0.000 A 
ATOM     18  C   UNL     1       0.158   9.979  20.552  0.00  0.00    +0.000 A 
ATOM     19  C   UNL     1       0.501   8.932  21.390  0.00  0.00    +0.000 A 
ATOM     20  F   UNL     1       1.210   7.907  20.902  0.00  0.00    +0.000 F 
ATOM     21  C   UNL     1       0.120   8.935  22.718  0.00  0.00    +0.000 A 
ATOM     22  C   UNL     1      -0.620  10.011  23.211  0.00  0.00    +0.000 A 
ATOM     23  C   UNL     1      -0.953  11.127  22.401  0.00  0.00    +0.000 A 
BRANCH  23  24
ATOM     24  C   UNL     1      -1.755  12.211  22.997  0.00  0.00    +0.000 A 
ATOM     25  N   UNL     1      -3.090  12.073  23.065  0.00  0.00    +0.000 NA
ATOM     26  C   UNL     1      -3.755  13.053  23.706  0.00  0.00    +0.000 A 
ATOM     27  C   UNL     1      -3.154  14.182  24.212  0.00  0.00    +0.000 A 
ATOM     28  C   UNL     1      -1.800  14.268  24.016  0.00  0.00    +0.000 A 
ATOM     29  N   UNL     1      -1.079  13.307  23.410  0.00  0.00    +0.000 NA
ENDBRANCH  23  24
ENDBRANCH   2  17
BRANCH  12  30
ATOM     30  C   UNL     1       0.593  17.154  25.583  0.00  0.00    +0.000 A 
ATOM     31  C   UNL     1      -0.103  16.614  26.680  0.00  0.00    +0.000 A 
ATOM     32  C   UNL     1       0.458  16.597  27.966  0.00  0.00    +0.000 A 
ATOM     33  C   UNL     1       1.730  17.116  28.179  0.00  0.00    +0.000 A 
ATOM     34  C   UNL     1       2.449  17.640  27.113  0.00  0.00    +0.000 A 
ATOM     35  C   UNL     1       1.887  17.656  25.831  0.00  0.00    +0.000 A 
ENDBRANCH  12  30
TORSDOF 3
ENDMDL
MODEL 9
REMARK VINA RESULT:      -6.9      6.489      9.090
REMARK  Name = 
REMARK  3 active torsions:
REMARK  status: ('A' for Active; 'I' for Inactive)
REMARK    1  A    between atoms: C_2  and  C_3
REMARK    2  A    between atoms: C_9  and  C_10
REMARK    3  A    between atoms: C_25  and  C_26
REMARK                            x       y       z     vdW  Elec       q    Type
REMARK                         _______ _______ _______ _____ _____    ______ ____
ROOT
ATOM      1  O   UNL     1      10.666  13.569  21.244  0.00  0.00    +0.000 OA
ATOM      2  C   UNL     1       9.587  12.984  21.212  0.00  0.00    +0.000 C 
ATOM      3  N   UNL     1       8.688  13.020  22.275  0.00  0.00    +0.000 N 
ATOM      4  C   UNL     1       8.953  13.873  23.421  0.00  0.00    +0.000 C 
ATOM      5  C   UNL     1       7.669  13.871  24.256  0.00  0.00    +0.000 C 
ATOM      6  C   UNL     1       7.009  15.241  24.381  0.00  0.00    +0.000 C 
ATOM      7  N   UNL     1       5.981  15.277  23.355  0.00  0.00    +0.000 N 
ATOM      8  C   UNL     1       5.885  16.343  22.485  0.00  0.00    +0.000 A 
ATOM      9  N   UNL     1       6.746  17.363  22.583  0.00  0.00    +0.000 NA
ATOM     10  C   UNL     1       6.603  18.374  21.712  0.00  0.00    +0.000 A 
ATOM     11  C   UNL     1       5.612  18.429  20.764  0.00  0.00    +0.000 A 
ATOM     12  C   UNL     1       4.745  17.359  20.732  0.00  0.00    +0.000 A 
ATOM     13  N   UNL     1       4.892  16.316  21.580  0.00  0.00    +0.000 NA
ATOM     14  C   UNL     1       5.729  13.979  22.761  0.00  0.00    +0.000 C 
ATOM     15  C   UNL     1       6.661  13.009  23.489  0.00  0.00    +0.000 C 
ATOM     16  C   UNL     1       7.500  12.213  22.506  0.00  0.00    +0.000 C 
ENDROOT
BRANCH   2  17
ATOM     17  C   UNL     1       9.248  12.176  20.003  0.00  0.00    +0.000 A 
ATOM     18  C   UNL     1       9.419  10.784  20.090  0.00  0.00    +0.000 A 
ATOM     19  C   UNL     1       9.091   9.965  19.022  0.00  0.00    +0.000 A 
ATOM     20  F   UNL     1       9.189   8.637  19.161  0.00  0.00    +0.000 F 
ATOM     21  C   UNL     1       8.667  10.504  17.823  0.00  0.00    +0.000 A 
ATOM     22  C   UNL     1       8.573  11.890  17.695  0.00  0.00    +0.000 A 
ATOM     23  C   UNL     1       8.853  12.765  18.777  0.00  0.00    +0.000 A 
BRANCH  23  24
ATOM     24  C   UNL     1       8.747  14.217  18.549  0.00  0.00    +0.000 A 
ATOM     25  N   UNL     1       7.594  14.841  18.841  0.00  0.00    +0.000 NA
ATOM     26  C   UNL     1       7.593  16.182  18.702  0.00  0.00    +0.000 A 
ATOM     27  C   UNL     1       8.662  16.901  18.222  0.00  0.00    +0.000 A 
ATOM     28  C   UNL     1       9.762  16.162  17.870  0.00  0.00    +0.000 A 
ATOM     29  N   UNL     1       9.831  14.825  18.016  0.00  0.00    +0.000 NA
ENDBRANCH  23  24
ENDBRANCH   2  17
BRANCH  12  30
ATOM     30  C   UNL     1       3.577  17.285  19.825  0.00  0.00    +0.000 A 
ATOM     31  C   UNL     1       3.661  16.757  18.524  0.00  0.00    +0.000 A 
ATOM     32  C   UNL     1       2.547  16.732  17.672  0.00  0.00    +0.000 A 
ATOM     33  C   UNL     1       1.323  17.229  18.107  0.00  0.00    +0.000 A 
ATOM     34  C   UNL     1       1.205  17.740  19.393  0.00  0.00    +0.000 A 
ATOM     35  C   UNL     1       2.318  17.765  20.241  0.00  0.00    +0.000 A 
ENDBRANCH  12  30
TORSDOF 3
ENDMDL
