MODEL 1
REMARK VINA RESULT:      -8.3      0.000      0.000
REMARK  Name = 
REMARK  5 active torsions:
REMARK  status: ('A' for Active; 'I' for Inactive)
REMARK    1  A    between atoms: C_1  and  C_2
REMARK    2  A    between atoms: C_5  and  C_6
REMARK    3  A    between atoms: C_10  and  C_11
REMARK    4  A    between atoms: N_19  and  C_20
REMARK    5  A    between atoms: C_20  and  C_21
REMARK                            x       y       z     vdW  Elec       q    Type
REMARK                         _______ _______ _______ _____ _____    ______ ____
ROOT
ATOM      1  C   UNL     1       7.600   6.377  18.734  0.00  0.00    +0.000 C 
ATOM      2  O   UNL     1       7.664   5.913  19.869  0.00  0.00    +0.000 OA
ATOM      3  N   UNL     1       7.115   5.542  17.708  0.00  0.00    +0.000 N 
ATOM      4  N   UNL     1       7.364   5.832  16.401  0.00  0.00    +0.000 NA
ATOM      5  C   UNL     1       6.785   4.807  15.759  0.00  0.00    +0.000 A 
ATOM      6  N   UNL     1       6.110   3.938  16.583  0.00  0.00    +0.000 NA
ATOM      7  C   UNL     1       6.327   4.402  17.790  0.00  0.00    +0.000 A 
ATOM      8  N   UNL     1       5.779   3.961  18.945  0.00  0.00    +0.000 N 
ATOM      9  H   UNL     1       6.390   3.808  19.747  0.00  0.00    +0.000 HD
ENDROOT
BRANCH   1  14
ATOM     10  C   UNL     1       9.222  11.890  17.871  0.00  0.00    +0.000 C 
ATOM     11  C   UNL     1       8.797  10.473  18.124  0.00  0.00    +0.000 A 
ATOM     12  C   UNL     1       9.343   9.719  19.171  0.00  0.00    +0.000 A 
ATOM     13  C   UNL     1       8.954   8.389  19.370  0.00  0.00    +0.000 A 
ATOM     14  C   UNL     1       8.027   7.791  18.509  0.00  0.00    +0.000 A 
ATOM     15  C   UNL     1       7.458   8.553  17.480  0.00  0.00    +0.000 A 
ATOM     16  C   UNL     1       7.844   9.881  17.288  0.00  0.00    +0.000 A 
ENDBRANCH   1  14
BRANCH   5  17
ATOM     17  C   UNL     1       6.844   4.614  14.320  0.00  0.00    +0.000 A 
ATOM     18  C   UNL     1       7.728   5.381  13.547  0.00  0.00    +0.000 A 
ATOM     19  C   UNL     1       7.798   5.203  12.164  0.00  0.00    +0.000 A 
ATOM     20  C   UNL     1       6.995   4.247  11.543  0.00  0.00    +0.000 A 
ATOM     21  C   UNL     1       6.114   3.477  12.301  0.00  0.00    +0.000 A 
ATOM     22  C   UNL     1       6.033   3.664  13.683  0.00  0.00    +0.000 A 
ENDBRANCH   5  17
BRANCH   8  23
ATOM     23  C   UNL     1       4.577   3.143  18.912  0.00  0.00    +0.000 C 
BRANCH  23  24
ATOM     24  C   UNL     1       3.490   3.673  19.790  0.00  0.00    +0.000 A 
ATOM     25  C   UNL     1       2.772   4.854  19.798  0.00  0.00    +0.000 A 
ATOM     26  C   UNL     1       1.849   4.757  20.866  0.00  0.00    +0.000 A 
ATOM     27  C   UNL     1       2.057   3.523  21.438  0.00  0.00    +0.000 A 
ATOM     28  O   UNL     1       3.052   2.860  20.795  0.00  0.00    +0.000 OA
ENDBRANCH  23  24
ENDBRANCH   8  23
TORSDOF 4
ENDMDL
MODEL 2
REMARK VINA RESULT:      -8.2      3.936      7.642
REMARK  Name = 
REMARK  5 active torsions:
REMARK  status: ('A' for Active; 'I' for Inactive)
REMARK    1  A    between atoms: C_1  and  C_2
REMARK    2  A    between atoms: C_5  and  C_6
REMARK    3  A    between atoms: C_10  and  C_11
REMARK    4  A    between atoms: N_19  and  C_20
REMARK    5  A    between atoms: C_20  and  C_21
REMARK                            x       y       z     vdW  Elec       q    Type
REMARK                         _______ _______ _______ _____ _____    ______ ____
ROOT
ATOM      1  C   UNL     1       2.139   8.574  18.172  0.00  0.00    +0.000 C 
ATOM      2  O   UNL     1       2.405   9.076  17.083  0.00  0.00    +0.000 OA
ATOM      3  N   UNL     1       2.670   7.300  18.457  0.00  0.00    +0.000 N 
ATOM      4  N   UNL     1       2.131   6.527  19.440  0.00  0.00    +0.000 NA
ATOM      5  C   UNL     1       2.871   5.411  19.372  0.00  0.00    +0.000 A 
ATOM      6  N   UNL     1       3.900   5.474  18.463  0.00  0.00    +0.000 NA
ATOM      7  C   UNL     1       3.761   6.649  17.898  0.00  0.00    +0.000 A 
ATOM      8  N   UNL     1       4.600   7.233  17.013  0.00  0.00    +0.000 N 
ATOM      9  H   UNL     1       4.204   7.660  16.175  0.00  0.00    +0.000 HD
ENDROOT
BRANCH   1  14
ATOM     10  C   UNL     1      -1.228  11.532  21.872  0.00  0.00    +0.000 C 
ATOM     11  C   UNL     1      -0.371  10.741  20.926  0.00  0.00    +0.000 A 
ATOM     12  C   UNL     1       0.403   9.660  21.367  0.00  0.00    +0.000 A 
ATOM     13  C   UNL     1       1.218   8.955  20.473  0.00  0.00    +0.000 A 
ATOM     14  C   UNL     1       1.282   9.338  19.128  0.00  0.00    +0.000 A 
ATOM     15  C   UNL     1       0.486  10.400  18.680  0.00  0.00    +0.000 A 
ATOM     16  C   UNL     1      -0.329  11.097  19.573  0.00  0.00    +0.000 A 
ENDBRANCH   1  14
BRANCH   5  17
ATOM     17  C   UNL     1       2.632   4.229  20.183  0.00  0.00    +0.000 A 
ATOM     18  C   UNL     1       1.392   4.053  20.814  0.00  0.00    +0.000 A 
ATOM     19  C   UNL     1       1.147   2.920  21.593  0.00  0.00    +0.000 A 
ATOM     20  C   UNL     1       2.135   1.946  21.736  0.00  0.00    +0.000 A 
ATOM     21  C   UNL     1       3.371   2.109  21.113  0.00  0.00    +0.000 A 
ATOM     22  C   UNL     1       3.621   3.249  20.344  0.00  0.00    +0.000 A 
ENDBRANCH   5  17
BRANCH   8  23
ATOM     23  C   UNL     1       5.966   6.753  16.882  0.00  0.00    +0.000 C 
BRANCH  23  24
ATOM     24  C   UNL     1       6.124   5.742  15.793  0.00  0.00    +0.000 A 
ATOM     25  C   UNL     1       5.288   4.772  15.273  0.00  0.00    +0.000 A 
ATOM     26  C   UNL     1       6.000   4.147  14.223  0.00  0.00    +0.000 A 
ATOM     27  C   UNL     1       7.222   4.777  14.163  0.00  0.00    +0.000 A 
ATOM     28  O   UNL     1       7.308   5.744  15.112  0.00  0.00    +0.000 OA
ENDBRANCH  23  24
ENDBRANCH   8  23
TORSDOF 4
ENDMDL
MODEL 3
REMARK VINA RESULT:      -8.2      3.938      7.637
REMARK  Name = 
REMARK  5 active torsions:
REMARK  status: ('A' for Active; 'I' for Inactive)
REMARK    1  A    between atoms: C_1  and  C_2
REMARK    2  A    between atoms: C_5  and  C_6
REMARK    3  A    between atoms: C_10  and  C_11
REMARK    4  A    between atoms: N_19  and  C_20
REMARK    5  A    between atoms: C_20  and  C_21
REMARK                            x       y       z     vdW  Elec       q    Type
REMARK                         _______ _______ _______ _____ _____    ______ ____
ROOT
ATOM      1  C   UNL     1       2.164   8.559  18.152  0.00  0.00    +0.000 C 
ATOM      2  O   UNL     1       2.444   9.058  17.065  0.00  0.00    +0.000 OA
ATOM      3  N   UNL     1       2.682   7.281  18.443  0.00  0.00    +0.000 N 
ATOM      4  N   UNL     1       2.128   6.514  19.422  0.00  0.00    +0.000 NA
ATOM      5  C   UNL     1       2.859   5.392  19.362  0.00  0.00    +0.000 A 
ATOM      6  N   UNL     1       3.897   5.445  18.462  0.00  0.00    +0.000 NA
ATOM      7  C   UNL     1       3.772   6.620  17.895  0.00  0.00    +0.000 A 
ATOM      8  N   UNL     1       4.624   7.197  17.016  0.00  0.00    +0.000 N 
ATOM      9  H   UNL     1       4.239   7.626  16.175  0.00  0.00    +0.000 HD
ENDROOT
BRANCH   1  14
ATOM     10  C   UNL     1      -1.141  11.576  21.859  0.00  0.00    +0.000 C 
ATOM     11  C   UNL     1      -0.271  10.822  20.896  0.00  0.00    +0.000 A 
ATOM     12  C   UNL     1      -0.071  11.271  19.584  0.00  0.00    +0.000 A 
ATOM     13  C   UNL     1       0.721  10.536  18.693  0.00  0.00    +0.000 A 
ATOM     14  C   UNL     1       1.305   9.332  19.100  0.00  0.00    +0.000 A 
ATOM     15  C   UNL     1       1.130   8.897  20.420  0.00  0.00    +0.000 A 
ATOM     16  C   UNL     1       0.344   9.635  21.308  0.00  0.00    +0.000 A 
ENDBRANCH   1  14
BRANCH   5  17
ATOM     17  C   UNL     1       2.603   4.212  20.172  0.00  0.00    +0.000 A 
ATOM     18  C   UNL     1       3.606   3.246  20.336  0.00  0.00    +0.000 A 
ATOM     19  C   UNL     1       3.374   2.110  21.115  0.00  0.00    +0.000 A 
ATOM     20  C   UNL     1       2.143   1.937  21.746  0.00  0.00    +0.000 A 
ATOM     21  C   UNL     1       1.139   2.891  21.591  0.00  0.00    +0.000 A 
ATOM     22  C   UNL     1       1.365   4.022  20.801  0.00  0.00    +0.000 A 
ENDBRANCH   5  17
BRANCH   8  23
ATOM     23  C   UNL     1       5.988   6.706  16.899  0.00  0.00    +0.000 C 
BRANCH  23  24
ATOM     24  C   UNL     1       6.150   5.703  15.802  0.00  0.00    +0.000 A 
ATOM     25  C   UNL     1       5.335   4.705  15.304  0.00  0.00    +0.000 A 
ATOM     26  C   UNL     1       6.038   4.107  14.232  0.00  0.00    +0.000 A 
ATOM     27  C   UNL     1       7.234   4.781  14.138  0.00  0.00    +0.000 A 
ATOM     28  O   UNL     1       7.313   5.749  15.087  0.00  0.00    +0.000 OA
ENDBRANCH  23  24
ENDBRANCH   8  23
TORSDOF 4
ENDMDL
MODEL 4
REMARK VINA RESULT:      -8.1      1.102      1.246
REMARK  Name = 
REMARK  5 active torsions:
REMARK  status: ('A' for Active; 'I' for Inactive)
REMARK    1  A    between atoms: C_1  and  C_2
REMARK    2  A    between atoms: C_5  and  C_6
REMARK    3  A    between atoms: C_10  and  C_11
REMARK    4  A    between atoms: N_19  and  C_20
REMARK    5  A    between atoms: C_20  and  C_21
REMARK                            x       y       z     vdW  Elec       q    Type
REMARK                         _______ _______ _______ _____ _____    ______ ____
ROOT
ATOM      1  C   UNL     1       7.661   6.375  18.687  0.00  0.00    +0.000 C 
ATOM      2  O   UNL     1       7.752   5.903  19.817  0.00  0.00    +0.000 OA
ATOM      3  N   UNL     1       7.191   5.535  17.658  0.00  0.00    +0.000 N 
ATOM      4  N   UNL     1       7.417   5.844  16.352  0.00  0.00    +0.000 NA
ATOM      5  C   UNL     1       6.862   4.808  15.707  0.00  0.00    +0.000 A 
ATOM      6  N   UNL     1       6.223   3.911  16.529  0.00  0.00    +0.000 NA
ATOM      7  C   UNL     1       6.438   4.372  17.738  0.00  0.00    +0.000 A 
ATOM      8  N   UNL     1       5.916   3.904  18.894  0.00  0.00    +0.000 N 
ATOM      9  H   UNL     1       6.540   3.762  19.689  0.00  0.00    +0.000 HD
ENDROOT
BRANCH   1  14
ATOM     10  C   UNL     1       9.109  11.942  17.859  0.00  0.00    +0.000 C 
ATOM     11  C   UNL     1       8.729  10.510  18.103  0.00  0.00    +0.000 A 
ATOM     12  C   UNL     1       9.319   9.760  19.129  0.00  0.00    +0.000 A 
ATOM     13  C   UNL     1       8.972   8.417  19.319  0.00  0.00    +0.000 A 
ATOM     14  C   UNL     1       8.043   7.804  18.470  0.00  0.00    +0.000 A 
ATOM     15  C   UNL     1       7.431   8.561  17.464  0.00  0.00    +0.000 A 
ATOM     16  C   UNL     1       7.776   9.901  17.280  0.00  0.00    +0.000 A 
ENDBRANCH   1  14
BRANCH   5  17
ATOM     17  C   UNL     1       6.912   4.629  14.265  0.00  0.00    +0.000 A 
ATOM     18  C   UNL     1       7.757   5.436  13.489  0.00  0.00    +0.000 A 
ATOM     19  C   UNL     1       7.817   5.272  12.104  0.00  0.00    +0.000 A 
ATOM     20  C   UNL     1       7.043   4.292  11.483  0.00  0.00    +0.000 A 
ATOM     21  C   UNL     1       6.201   3.484  12.244  0.00  0.00    +0.000 A 
ATOM     22  C   UNL     1       6.129   3.656  13.629  0.00  0.00    +0.000 A 
ENDBRANCH   5  17
BRANCH   8  23
ATOM     23  C   UNL     1       4.739   3.050  18.866  0.00  0.00    +0.000 C 
BRANCH  23  24
ATOM     24  C   UNL     1       3.505   3.778  18.438  0.00  0.00    +0.000 A 
ATOM     25  C   UNL     1       2.359   3.386  17.772  0.00  0.00    +0.000 A 
ATOM     26  C   UNL     1       1.532   4.531  17.688  0.00  0.00    +0.000 A 
ATOM     27  C   UNL     1       2.221   5.546  18.310  0.00  0.00    +0.000 A 
ATOM     28  O   UNL     1       3.420   5.100  18.766  0.00  0.00    +0.000 OA
ENDBRANCH  23  24
ENDBRANCH   8  23
TORSDOF 4
ENDMDL
MODEL 5
REMARK VINA RESULT:      -8.1      0.404      1.013
REMARK  Name = 
REMARK  5 active torsions:
REMARK  status: ('A' for Active; 'I' for Inactive)
REMARK    1  A    between atoms: C_1  and  C_2
REMARK    2  A    between atoms: C_5  and  C_6
REMARK    3  A    between atoms: C_10  and  C_11
REMARK    4  A    between atoms: N_19  and  C_20
REMARK    5  A    between atoms: C_20  and  C_21
REMARK                            x       y       z     vdW  Elec       q    Type
REMARK                         _______ _______ _______ _____ _____    ______ ____
ROOT
ATOM      1  C   UNL     1       7.505   6.341  18.737  0.00  0.00    +0.000 C 
ATOM      2  O   UNL     1       7.544   5.869  19.870  0.00  0.00    +0.000 OA
ATOM      3  N   UNL     1       7.039   5.514  17.695  0.00  0.00    +0.000 N 
ATOM      4  N   UNL     1       7.317   5.811  16.396  0.00  0.00    +0.000 NA
ATOM      5  C   UNL     1       6.748   4.793  15.736  0.00  0.00    +0.000 A 
ATOM      6  N   UNL     1       6.053   3.921  16.539  0.00  0.00    +0.000 NA
ATOM      7  C   UNL     1       6.246   4.377  17.753  0.00  0.00    +0.000 A 
ATOM      8  N   UNL     1       5.671   3.930  18.893  0.00  0.00    +0.000 N 
ATOM      9  H   UNL     1       6.265   3.770  19.707  0.00  0.00    +0.000 HD
ENDROOT
BRANCH   1  14
ATOM     10  C   UNL     1       9.244  11.825  17.919  0.00  0.00    +0.000 C 
ATOM     11  C   UNL     1       8.801  10.402  18.100  0.00  0.00    +0.000 A 
ATOM     12  C   UNL     1       7.836   9.823  17.265  0.00  0.00    +0.000 A 
ATOM     13  C   UNL     1       7.416   8.503  17.472  0.00  0.00    +0.000 A 
ATOM     14  C   UNL     1       7.942   7.754  18.530  0.00  0.00    +0.000 A 
ATOM     15  C   UNL     1       8.928   8.323  19.347  0.00  0.00    +0.000 A 
ATOM     16  C   UNL     1       9.349   9.637  19.135  0.00  0.00    +0.000 A 
ENDBRANCH   1  14
BRANCH   5  17
ATOM     17  C   UNL     1       6.837   4.608  14.296  0.00  0.00    +0.000 A 
ATOM     18  C   UNL     1       7.707   5.409  13.542  0.00  0.00    +0.000 A 
ATOM     19  C   UNL     1       7.805   5.239  12.159  0.00  0.00    +0.000 A 
ATOM     20  C   UNL     1       7.045   4.260  11.520  0.00  0.00    +0.000 A 
ATOM     21  C   UNL     1       6.178   3.458  12.261  0.00  0.00    +0.000 A 
ATOM     22  C   UNL     1       6.069   3.635  13.643  0.00  0.00    +0.000 A 
ENDBRANCH   5  17
BRANCH   8  23
ATOM     23  C   UNL     1       4.467   3.117  18.829  0.00  0.00    +0.000 C 
BRANCH  23  24
ATOM     24  C   UNL     1       3.305   3.746  19.529  0.00  0.00    +0.000 A 
ATOM     25  C   UNL     1       3.078   5.010  20.037  0.00  0.00    +0.000 A 
ATOM     26  C   UNL     1       1.763   5.004  20.559  0.00  0.00    +0.000 A 
ATOM     27  C   UNL     1       1.269   3.740  20.333  0.00  0.00    +0.000 A 
ATOM     28  O   UNL     1       2.197   2.969  19.711  0.00  0.00    +0.000 OA
ENDBRANCH  23  24
ENDBRANCH   8  23
TORSDOF 4
ENDMDL
MODEL 6
REMARK VINA RESULT:      -8.0      4.245      7.675
REMARK  Name = 
REMARK  5 active torsions:
REMARK  status: ('A' for Active; 'I' for Inactive)
REMARK    1  A    between atoms: C_1  and  C_2
REMARK    2  A    between atoms: C_5  and  C_6
REMARK    3  A    between atoms: C_10  and  C_11
REMARK    4  A    between atoms: N_19  and  C_20
REMARK    5  A    between atoms: C_20  and  C_21
REMARK                            x       y       z     vdW  Elec       q    Type
REMARK                         _______ _______ _______ _____ _____    ______ ____
ROOT
ATOM      1  C   UNL     1       1.972   8.959  18.155  0.00  0.00    +0.000 C 
ATOM      2  O   UNL     1       2.366   9.496  17.123  0.00  0.00    +0.000 OA
ATOM      3  N   UNL     1       2.414   7.648  18.425  0.00  0.00    +0.000 N 
ATOM      4  N   UNL     1       1.747   6.860  19.312  0.00  0.00    +0.000 NA
ATOM      5  C   UNL     1       2.439   5.712  19.260  0.00  0.00    +0.000 A 
ATOM      6  N   UNL     1       3.554   5.765  18.458  0.00  0.00    +0.000 NA
ATOM      7  C   UNL     1       3.524   6.970  17.942  0.00  0.00    +0.000 A 
ATOM      8  N   UNL     1       4.472   7.552  17.172  0.00  0.00    +0.000 N 
ATOM      9  H   UNL     1       4.180   8.035  16.323  0.00  0.00    +0.000 HD
ENDROOT
BRANCH   1  14
ATOM     10  C   UNL     1      -1.602  11.891  21.676  0.00  0.00    +0.000 C 
ATOM     11  C   UNL     1      -0.680  11.109  20.786  0.00  0.00    +0.000 A 
ATOM     12  C   UNL     1       0.492  10.522  21.280  0.00  0.00    +0.000 A 
ATOM     13  C   UNL     1       1.353   9.823  20.426  0.00  0.00    +0.000 A 
ATOM     14  C   UNL     1       1.060   9.721  19.061  0.00  0.00    +0.000 A 
ATOM     15  C   UNL     1      -0.126  10.282  18.572  0.00  0.00    +0.000 A 
ATOM     16  C   UNL     1      -0.985  10.974  19.427  0.00  0.00    +0.000 A 
ENDBRANCH   1  14
BRANCH   5  17
ATOM     17  C   UNL     1       2.068   4.507  19.983  0.00  0.00    +0.000 A 
ATOM     18  C   UNL     1       2.459   4.347  21.320  0.00  0.00    +0.000 A 
ATOM     19  C   UNL     1       2.106   3.196  22.028  0.00  0.00    +0.000 A 
ATOM     20  C   UNL     1       1.347   2.202  21.411  0.00  0.00    +0.000 A 
ATOM     21  C   UNL     1       0.951   2.352  20.082  0.00  0.00    +0.000 A 
ATOM     22  C   UNL     1       1.316   3.497  19.369  0.00  0.00    +0.000 A 
ENDBRANCH   5  17
BRANCH   8  23
ATOM     23  C   UNL     1       5.822   7.011  17.150  0.00  0.00    +0.000 C 
BRANCH  23  24
ATOM     24  C   UNL     1       5.947   5.801  16.281  0.00  0.00    +0.000 A 
ATOM     25  C   UNL     1       6.321   4.494  16.528  0.00  0.00    +0.000 A 
ATOM     26  C   UNL     1       6.211   3.804  15.298  0.00  0.00    +0.000 A 
ATOM     27  C   UNL     1       5.773   4.730  14.380  0.00  0.00    +0.000 A 
ATOM     28  O   UNL     1       5.612   5.944  14.966  0.00  0.00    +0.000 OA
ENDBRANCH  23  24
ENDBRANCH   8  23
TORSDOF 4
ENDMDL
MODEL 7
REMARK VINA RESULT:      -8.0      4.239      7.732
REMARK  Name = 
REMARK  5 active torsions:
REMARK  status: ('A' for Active; 'I' for Inactive)
REMARK    1  A    between atoms: C_1  and  C_2
REMARK    2  A    between atoms: C_5  and  C_6
REMARK    3  A    between atoms: C_10  and  C_11
REMARK    4  A    between atoms: N_19  and  C_20
REMARK    5  A    between atoms: C_20  and  C_21
REMARK                            x       y       z     vdW  Elec       q    Type
REMARK                         _______ _______ _______ _____ _____    ______ ____
ROOT
ATOM      1  C   UNL     1       1.989   8.948  18.149  0.00  0.00    +0.000 C 
ATOM      2  O   UNL     1       2.390   9.498  17.126  0.00  0.00    +0.000 OA
ATOM      3  N   UNL     1       2.449   7.644  18.419  0.00  0.00    +0.000 N 
ATOM      4  N   UNL     1       1.782   6.840  19.292  0.00  0.00    +0.000 NA
ATOM      5  C   UNL     1       2.493   5.704  19.243  0.00  0.00    +0.000 A 
ATOM      6  N   UNL     1       3.619   5.779  18.458  0.00  0.00    +0.000 NA
ATOM      7  C   UNL     1       3.577   6.986  17.948  0.00  0.00    +0.000 A 
ATOM      8  N   UNL     1       4.526   7.587  17.195  0.00  0.00    +0.000 N 
ATOM      9  H   UNL     1       4.239   8.070  16.344  0.00  0.00    +0.000 HD
ENDROOT
BRANCH   1  14
ATOM     10  C   UNL     1      -1.625  11.868  21.639  0.00  0.00    +0.000 C 
ATOM     11  C   UNL     1      -0.692  11.138  20.717  0.00  0.00    +0.000 A 
ATOM     12  C   UNL     1      -1.005  10.937  19.366  0.00  0.00    +0.000 A 
ATOM     13  C   UNL     1      -0.133  10.226  18.532  0.00  0.00    +0.000 A 
ATOM     14  C   UNL     1       1.053   9.691  19.046  0.00  0.00    +0.000 A 
ATOM     15  C   UNL     1       1.381   9.917  20.389  0.00  0.00    +0.000 A 
ATOM     16  C   UNL     1       0.512  10.630  21.218  0.00  0.00    +0.000 A 
ENDBRANCH   1  14
BRANCH   5  17
ATOM     17  C   UNL     1       2.131   4.489  19.955  0.00  0.00    +0.000 A 
ATOM     18  C   UNL     1       1.536   3.425  19.263  0.00  0.00    +0.000 A 
ATOM     19  C   UNL     1       1.186   2.251  19.934  0.00  0.00    +0.000 A 
ATOM     20  C   UNL     1       1.441   2.125  21.299  0.00  0.00    +0.000 A 
ATOM     21  C   UNL     1       2.033   3.177  21.997  0.00  0.00    +0.000 A 
ATOM     22  C   UNL     1       2.371   4.357  21.330  0.00  0.00    +0.000 A 
ENDBRANCH   5  17
BRANCH   8  23
ATOM     23  C   UNL     1       5.884   7.068  17.190  0.00  0.00    +0.000 C 
BRANCH  23  24
ATOM     24  C   UNL     1       6.045   5.874  16.305  0.00  0.00    +0.000 A 
ATOM     25  C   UNL     1       6.635   4.637  16.483  0.00  0.00    +0.000 A 
ATOM     26  C   UNL     1       6.436   3.919  15.281  0.00  0.00    +0.000 A 
ATOM     27  C   UNL     1       5.733   4.758  14.447  0.00  0.00    +0.000 A 
ATOM     28  O   UNL     1       5.494   5.947  15.058  0.00  0.00    +0.000 OA
ENDBRANCH  23  24
ENDBRANCH   8  23
TORSDOF 4
ENDMDL
MODEL 8
REMARK VINA RESULT:      -7.9      7.989     10.263
REMARK  Name = 
REMARK  5 active torsions:
REMARK  status: ('A' for Active; 'I' for Inactive)
REMARK    1  A    between atoms: C_1  and  C_2
REMARK    2  A    between atoms: C_5  and  C_6
REMARK    3  A    between atoms: C_10  and  C_11
REMARK    4  A    between atoms: N_19  and  C_20
REMARK    5  A    between atoms: C_20  and  C_21
REMARK                            x       y       z     vdW  Elec       q    Type
REMARK                         _______ _______ _______ _____ _____    ______ ____
ROOT
ATOM      1  C   UNL     1       0.969   9.047  20.780  0.00  0.00    +0.000 C 
ATOM      2  O   UNL     1       1.214   9.165  21.978  0.00  0.00    +0.000 OA
ATOM      3  N   UNL     1       0.016   9.917  20.214  0.00  0.00    +0.000 N 
ATOM      4  N   UNL     1      -0.582   9.614  19.029  0.00  0.00    +0.000 NA
ATOM      5  C   UNL     1      -1.426  10.642  18.858  0.00  0.00    +0.000 A 
ATOM      6  N   UNL     1      -1.328  11.616  19.823  0.00  0.00    +0.000 NA
ATOM      7  C   UNL     1      -0.433  11.152  20.661  0.00  0.00    +0.000 A 
ATOM      8  N   UNL     1       0.100  11.795  21.724  0.00  0.00    +0.000 N 
ATOM      9  H   UNL     1       0.160  11.299  22.613  0.00  0.00    +0.000 HD
ENDROOT
BRANCH   1  14
ATOM     10  C   UNL     1       3.754   4.961  17.727  0.00  0.00    +0.000 C 
ATOM     11  C   UNL     1       3.016   6.022  18.491  0.00  0.00    +0.000 A 
ATOM     12  C   UNL     1       2.850   7.315  17.977  0.00  0.00    +0.000 A 
ATOM     13  C   UNL     1       2.185   8.297  18.720  0.00  0.00    +0.000 A 
ATOM     14  C   UNL     1       1.694   8.002  19.997  0.00  0.00    +0.000 A 
ATOM     15  C   UNL     1       1.833   6.702  20.500  0.00  0.00    +0.000 A 
ATOM     16  C   UNL     1       2.493   5.723  19.754  0.00  0.00    +0.000 A 
ENDBRANCH   1  14
BRANCH   5  17
ATOM     17  C   UNL     1      -2.366  10.744  17.753  0.00  0.00    +0.000 A 
ATOM     18  C   UNL     1      -2.115  10.058  16.557  0.00  0.00    +0.000 A 
ATOM     19  C   UNL     1      -3.012  10.145  15.489  0.00  0.00    +0.000 A 
ATOM     20  C   UNL     1      -4.174  10.907  15.614  0.00  0.00    +0.000 A 
ATOM     21  C   UNL     1      -4.433  11.591  16.800  0.00  0.00    +0.000 A 
ATOM     22  C   UNL     1      -3.530  11.517  17.864  0.00  0.00    +0.000 A 
ENDBRANCH   5  17
BRANCH   8  23
ATOM     23  C   UNL     1      -0.000  13.242  21.822  0.00  0.00    +0.000 C 
BRANCH  23  24
ATOM     24  C   UNL     1      -1.008  13.686  22.833  0.00  0.00    +0.000 A 
ATOM     25  C   UNL     1      -2.308  13.304  23.104  0.00  0.00    +0.000 A 
ATOM     26  C   UNL     1      -2.732  14.075  24.212  0.00  0.00    +0.000 A 
ATOM     27  C   UNL     1      -1.665  14.875  24.550  0.00  0.00    +0.000 A 
ATOM     28  O   UNL     1      -0.616  14.649  23.718  0.00  0.00    +0.000 OA
ENDBRANCH  23  24
ENDBRANCH   8  23
TORSDOF 4
ENDMDL
MODEL 9
REMARK VINA RESULT:      -7.9      7.968     10.197
REMARK  Name = 
REMARK  5 active torsions:
REMARK  status: ('A' for Active; 'I' for Inactive)
REMARK    1  A    between atoms: C_1  and  C_2
REMARK    2  A    between atoms: C_5  and  C_6
REMARK    3  A    between atoms: C_10  and  C_11
REMARK    4  A    between atoms: N_19  and  C_20
REMARK    5  A    between atoms: C_20  and  C_21
REMARK                            x       y       z     vdW  Elec       q    Type
REMARK                         _______ _______ _______ _____ _____    ______ ____
ROOT
ATOM      1  C   UNL     1       1.053   9.053  20.683  0.00  0.00    +0.000 C 
ATOM      2  O   UNL     1       1.329   9.178  21.874  0.00  0.00    +0.000 OA
ATOM      3  N   UNL     1       0.078   9.912  20.140  0.00  0.00    +0.000 N 
ATOM      4  N   UNL     1      -0.550   9.600  18.972  0.00  0.00    +0.000 NA
ATOM      5  C   UNL     1      -1.407  10.620  18.820  0.00  0.00    +0.000 A 
ATOM      6  N   UNL     1      -1.291  11.599  19.778  0.00  0.00    +0.000 NA
ATOM      7  C   UNL     1      -0.370  11.145  20.594  0.00  0.00    +0.000 A 
ATOM      8  N   UNL     1       0.187  11.797  21.640  0.00  0.00    +0.000 N 
ATOM      9  H   UNL     1       0.275  11.306  22.529  0.00  0.00    +0.000 HD
ENDROOT
BRANCH   1  14
ATOM     10  C   UNL     1       3.862   5.019  17.583  0.00  0.00    +0.000 C 
ATOM     11  C   UNL     1       3.155   6.055  18.408  0.00  0.00    +0.000 A 
ATOM     12  C   UNL     1       2.623   5.750  19.668  0.00  0.00    +0.000 A 
ATOM     13  C   UNL     1       1.940   6.724  20.408  0.00  0.00    +0.000 A 
ATOM     14  C   UNL     1       1.766   8.010  19.884  0.00  0.00    +0.000 A 
ATOM     15  C   UNL     1       2.323   8.324  18.638  0.00  0.00    +0.000 A 
ATOM     16  C   UNL     1       3.007   7.352  17.905  0.00  0.00    +0.000 A 
ENDBRANCH   1  14
BRANCH   5  17
ATOM     17  C   UNL     1      -2.377  10.710  17.742  0.00  0.00    +0.000 A 
ATOM     18  C   UNL     1      -3.519  11.511  17.894  0.00  0.00    +0.000 A 
ATOM     19  C   UNL     1      -4.457  11.609  16.864  0.00  0.00    +0.000 A 
ATOM     20  C   UNL     1      -4.256  10.920  15.669  0.00  0.00    +0.000 A 
ATOM     21  C   UNL     1      -3.124  10.122  15.506  0.00  0.00    +0.000 A 
ATOM     22  C   UNL     1      -2.191  10.012  16.541  0.00  0.00    +0.000 A 
ENDBRANCH   5  17
BRANCH   8  23
ATOM     23  C   UNL     1       0.077  13.244  21.735  0.00  0.00    +0.000 C 
BRANCH  23  24
ATOM     24  C   UNL     1      -0.929  13.684  22.749  0.00  0.00    +0.000 A 
ATOM     25  C   UNL     1      -2.230  13.304  23.018  0.00  0.00    +0.000 A 
ATOM     26  C   UNL     1      -2.651  14.068  24.132  0.00  0.00    +0.000 A 
ATOM     27  C   UNL     1      -1.581  14.861  24.476  0.00  0.00    +0.000 A 
ATOM     28  O   UNL     1      -0.533  14.638  23.642  0.00  0.00    +0.000 OA
ENDBRANCH  23  24
ENDBRANCH   8  23
TORSDOF 4
ENDMDL
