MODEL 1
REMARK VINA RESULT:      -8.2      0.000      0.000
REMARK  Name = 
REMARK  9 active torsions:
REMARK  status: ('A' for Active; 'I' for Inactive)
REMARK    1  A    between atoms: C_1  and  C_2
REMARK    2  A    between atoms: C_2  and  C_3
REMARK    3  A    between atoms: C_3  and  C_5
REMARK    4  A    between atoms: C_10  and  N_11
REMARK    5  A    between atoms: C_10  and  C_12
REMARK    6  A    between atoms: C_14  and  C_15
REMARK    7  A    between atoms: C_19  and  C_20
REMARK    8  A    between atoms: C_23  and  C_24
REMARK    9  A    between atoms: C_31  and  C_32
REMARK                            x       y       z     vdW  Elec       q    Type
REMARK                         _______ _______ _______ _____ _____    ______ ____
ROOT
ATOM      1  C   UNL     1       3.305   6.071  18.756  0.00  0.00    +0.000 A 
ATOM      2  C   UNL     1       2.887   7.265  19.393  0.00  0.00    +0.000 A 
ATOM      3  C   UNL     1       1.818   7.282  20.315  0.00  0.00    +0.000 A 
ATOM      4  C   UNL     1       1.161   6.098  20.610  0.00  0.00    +0.000 A 
ATOM      5  C   UNL     1       1.561   4.907  20.002  0.00  0.00    +0.000 A 
ATOM      6  C   UNL     1       2.598   4.878  19.051  0.00  0.00    +0.000 A 
ATOM      7  C   UNL     1       2.864   3.566  18.375  0.00  0.00    +0.000 C 
ENDROOT
BRANCH   3   8
ATOM      8  C   UNL     1       1.351   8.597  20.851  0.00  0.00    +0.000 C 
ATOM      9  O   UNL     1       1.112   8.685  22.056  0.00  0.00    +0.000 OA
ATOM     10  N   UNL     1       1.229   9.672  20.010  0.00  0.00    +0.000 N 
ATOM     11  C   UNL     1       0.764  11.011  20.343  0.00  0.00    +0.000 C 
ATOM     12  C   UNL     1       0.246  11.115  18.893  0.00  0.00    +0.000 C 
ATOM     13  C   UNL     1       1.068   9.849  18.579  0.00  0.00    +0.000 C 
BRANCH  12  14
ATOM     14  C   UNL     1      -1.322  11.098  18.588  0.00  0.00    +0.000 A 
ATOM     15  C   UNL     1      -1.947  10.109  17.803  0.00  0.00    +0.000 A 
ATOM     16  C   UNL     1      -3.338  10.039  17.666  0.00  0.00    +0.000 A 
ATOM     17  C   UNL     1      -4.151  10.980  18.293  0.00  0.00    +0.000 A 
ATOM     18  C   UNL     1      -3.561  12.023  19.011  0.00  0.00    +0.000 A 
ATOM     19  C   UNL     1      -2.171  12.078  19.146  0.00  0.00    +0.000 A 
BRANCH  17  20
ATOM     20  C   UNL     1      -5.573  10.857  18.238  0.00  0.00    +0.000 C 
ATOM     21  N   UNL     1      -6.732  10.777  18.205  0.00  0.00    +0.000 NA
ENDBRANCH  17  20
ENDBRANCH  12  14
ENDBRANCH   3   8
BRANCH   1  24
ATOM     22  C   UNL     1       6.028   5.193  19.377  0.00  0.00    +0.000 C 
ATOM     23  C   UNL     1       5.687   5.768  18.023  0.00  0.00    +0.000 C 
ATOM     24  C   UNL     1       4.422   6.187  17.752  0.00  0.00    +0.000 C 
BRANCH  23  25
ATOM     25  C   UNL     1       6.837   5.868  16.991  0.00  0.00    +0.000 C 
ATOM     26  N   UNL     1       7.555   6.933  16.813  0.00  0.00    +0.000 NA
ATOM     27  H   UNL     1       7.188   7.690  17.407  0.00  0.00    +0.000 HD
BRANCH  25  28
ATOM     28  C   UNL     1       7.145   4.661  16.070  0.00  0.00    +0.000 C 
ATOM     29  C   UNL     1       7.310   4.939  14.584  0.00  0.00    +0.000 C 
ATOM     30  C   UNL     1       5.900   4.831  14.046  0.00  0.00    +0.000 C 
ATOM     31  O   UNL     1       5.255   3.824  14.834  0.00  0.00    +0.000 OA
ATOM     32  C   UNL     1       5.969   3.690  16.071  0.00  0.00    +0.000 C 
ENDBRANCH  25  28
ENDBRANCH  23  25
BRANCH  24  33
ATOM     33  N   UNL     1       4.036   6.837  16.579  0.00  0.00    +0.000 N 
ATOM     34  H   UNL     1       4.865   7.204  16.105  0.00  0.00    +0.000 HD
ATOM     35  H   UNL     1       3.437   7.638  16.780  0.00  0.00    +0.000 HD
ENDBRANCH  24  33
ENDBRANCH   1  24
TORSDOF 7
ENDMDL
MODEL 2
REMARK VINA RESULT:      -8.0      1.783      2.339
REMARK  Name = 
REMARK  9 active torsions:
REMARK  status: ('A' for Active; 'I' for Inactive)
REMARK    1  A    between atoms: C_1  and  C_2
REMARK    2  A    between atoms: C_2  and  C_3
REMARK    3  A    between atoms: C_3  and  C_5
REMARK    4  A    between atoms: C_10  and  N_11
REMARK    5  A    between atoms: C_10  and  C_12
REMARK    6  A    between atoms: C_14  and  C_15
REMARK    7  A    between atoms: C_19  and  C_20
REMARK    8  A    between atoms: C_23  and  C_24
REMARK    9  A    between atoms: C_31  and  C_32
REMARK                            x       y       z     vdW  Elec       q    Type
REMARK                         _______ _______ _______ _____ _____    ______ ____
ROOT
ATOM      1  C   UNL     1       3.112   4.410  19.266  0.00  0.00    +0.000 A 
ATOM      2  C   UNL     1       3.007   5.774  19.632  0.00  0.00    +0.000 A 
ATOM      3  C   UNL     1       1.855   6.289  20.263  0.00  0.00    +0.000 A 
ATOM      4  C   UNL     1       0.796   5.437  20.538  0.00  0.00    +0.000 A 
ATOM      5  C   UNL     1       0.880   4.087  20.195  0.00  0.00    +0.000 A 
ATOM      6  C   UNL     1       2.005   3.565  19.530  0.00  0.00    +0.000 A 
ATOM      7  C   UNL     1       1.937   2.128  19.105  0.00  0.00    +0.000 C 
ENDROOT
BRANCH   3   8
ATOM      8  C   UNL     1       1.764   7.762  20.504  0.00  0.00    +0.000 C 
ATOM      9  O   UNL     1       1.731   8.162  21.669  0.00  0.00    +0.000 OA
ATOM     10  N   UNL     1       1.750   8.628  19.443  0.00  0.00    +0.000 N 
ATOM     11  C   UNL     1       1.636  10.079  19.483  0.00  0.00    +0.000 C 
ATOM     12  C   UNL     1       0.942   9.991  18.106  0.00  0.00    +0.000 C 
ATOM     13  C   UNL     1       1.419   8.527  18.033  0.00  0.00    +0.000 C 
BRANCH  12  14
ATOM     14  C   UNL     1      -0.621  10.289  17.966  0.00  0.00    +0.000 A 
ATOM     15  C   UNL     1      -1.469   9.577  17.095  0.00  0.00    +0.000 A 
ATOM     16  C   UNL     1      -2.856   9.764  17.092  0.00  0.00    +0.000 A 
ATOM     17  C   UNL     1      -3.438  10.696  17.947  0.00  0.00    +0.000 A 
ATOM     18  C   UNL     1      -2.620  11.479  18.765  0.00  0.00    +0.000 A 
ATOM     19  C   UNL     1      -1.237  11.277  18.764  0.00  0.00    +0.000 A 
BRANCH  17  20
ATOM     20  C   UNL     1      -4.859  10.822  18.019  0.00  0.00    +0.000 C 
ATOM     21  N   UNL     1      -6.013  10.944  18.089  0.00  0.00    +0.000 NA
ENDBRANCH  17  20
ENDBRANCH  12  14
ENDBRANCH   3   8
BRANCH   1  24
ATOM     22  C   UNL     1       3.936   5.653  16.746  0.00  0.00    +0.000 C 
ATOM     23  C   UNL     1       4.771   4.570  17.389  0.00  0.00    +0.000 C 
ATOM     24  C   UNL     1       4.369   3.989  18.550  0.00  0.00    +0.000 C 
BRANCH  23  25
ATOM     25  C   UNL     1       6.071   4.156  16.656  0.00  0.00    +0.000 C 
ATOM     26  N   UNL     1       6.140   3.179  15.807  0.00  0.00    +0.000 NA
ATOM     27  H   UNL     1       5.226   2.703  15.766  0.00  0.00    +0.000 HD
BRANCH  25  28
ATOM     28  C   UNL     1       7.393   4.901  16.965  0.00  0.00    +0.000 C 
ATOM     29  C   UNL     1       8.001   4.704  18.345  0.00  0.00    +0.000 C 
ATOM     30  C   UNL     1       7.343   5.782  19.178  0.00  0.00    +0.000 C 
ATOM     31  O   UNL     1       7.144   6.892  18.297  0.00  0.00    +0.000 OA
ATOM     32  C   UNL     1       7.160   6.409  16.946  0.00  0.00    +0.000 C 
ENDBRANCH  25  28
ENDBRANCH  23  25
BRANCH  24  33
ATOM     33  N   UNL     1       5.006   2.906  19.158  0.00  0.00    +0.000 N 
ATOM     34  H   UNL     1       5.681   3.250  19.845  0.00  0.00    +0.000 HD
ATOM     35  H   UNL     1       5.536   2.360  18.477  0.00  0.00    +0.000 HD
ENDBRANCH  24  33
ENDBRANCH   1  24
TORSDOF 7
ENDMDL
MODEL 3
REMARK VINA RESULT:      -8.0      0.881      1.077
REMARK  Name = 
REMARK  9 active torsions:
REMARK  status: ('A' for Active; 'I' for Inactive)
REMARK    1  A    between atoms: C_1  and  C_2
REMARK    2  A    between atoms: C_2  and  C_3
REMARK    3  A    between atoms: C_3  and  C_5
REMARK    4  A    between atoms: C_10  and  N_11
REMARK    5  A    between atoms: C_10  and  C_12
REMARK    6  A    between atoms: C_14  and  C_15
REMARK    7  A    between atoms: C_19  and  C_20
REMARK    8  A    between atoms: C_23  and  C_24
REMARK    9  A    between atoms: C_31  and  C_32
REMARK                            x       y       z     vdW  Elec       q    Type
REMARK                         _______ _______ _______ _____ _____    ______ ____
ROOT
ATOM      1  C   UNL     1       3.511   5.393  19.233  0.00  0.00    +0.000 A 
ATOM      2  C   UNL     1       3.133   6.639  19.792  0.00  0.00    +0.000 A 
ATOM      3  C   UNL     1       1.848   6.852  20.335  0.00  0.00    +0.000 A 
ATOM      4  C   UNL     1       0.930   5.813  20.327  0.00  0.00    +0.000 A 
ATOM      5  C   UNL     1       1.282   4.573  19.791  0.00  0.00    +0.000 A 
ATOM      6  C   UNL     1       2.546   4.356  19.210  0.00  0.00    +0.000 A 
ATOM      7  C   UNL     1       2.774   3.024  18.559  0.00  0.00    +0.000 C 
ENDROOT
BRANCH   3   8
ATOM      8  C   UNL     1       1.478   8.227  20.790  0.00  0.00    +0.000 C 
ATOM      9  O   UNL     1       1.262   8.406  21.990  0.00  0.00    +0.000 OA
ATOM     10  N   UNL     1       1.416   9.252  19.884  0.00  0.00    +0.000 N 
ATOM     11  C   UNL     1       1.047  10.638  20.136  0.00  0.00    +0.000 C 
ATOM     12  C   UNL     1       0.516  10.685  18.687  0.00  0.00    +0.000 C 
ATOM     13  C   UNL     1       1.247   9.349  18.446  0.00  0.00    +0.000 C 
BRANCH  12  14
ATOM     14  C   UNL     1      -1.054  10.755  18.400  0.00  0.00    +0.000 A 
ATOM     15  C   UNL     1      -1.757   9.756  17.700  0.00  0.00    +0.000 A 
ATOM     16  C   UNL     1      -3.152   9.775  17.582  0.00  0.00    +0.000 A 
ATOM     17  C   UNL     1      -3.888  10.816  18.143  0.00  0.00    +0.000 A 
ATOM     18  C   UNL     1      -3.216  11.867  18.771  0.00  0.00    +0.000 A 
ATOM     19  C   UNL     1      -1.824  11.833  18.888  0.00  0.00    +0.000 A 
BRANCH  17  20
ATOM     20  C   UNL     1      -5.315  10.790  18.111  0.00  0.00    +0.000 C 
ATOM     21  N   UNL     1      -6.478  10.776  18.108  0.00  0.00    +0.000 NA
ENDBRANCH  17  20
ENDBRANCH  12  14
ENDBRANCH   3   8
BRANCH   1  24
ATOM     22  C   UNL     1       4.196   6.749  16.731  0.00  0.00    +0.000 C 
ATOM     23  C   UNL     1       5.226   5.942  17.484  0.00  0.00    +0.000 C 
ATOM     24  C   UNL     1       4.892   5.303  18.637  0.00  0.00    +0.000 C 
BRANCH  23  25
ATOM     25  C   UNL     1       6.648   5.868  16.873  0.00  0.00    +0.000 C 
ATOM     26  N   UNL     1       7.527   6.815  16.978  0.00  0.00    +0.000 NA
ATOM     27  H   UNL     1       7.100   7.620  17.458  0.00  0.00    +0.000 HD
BRANCH  25  28
ATOM     28  C   UNL     1       7.060   4.626  16.045  0.00  0.00    +0.000 C 
ATOM     29  C   UNL     1       7.530   4.861  14.617  0.00  0.00    +0.000 C 
ATOM     30  C   UNL     1       6.249   4.818  13.813  0.00  0.00    +0.000 C 
ATOM     31  O   UNL     1       5.405   3.866  14.469  0.00  0.00    +0.000 OA
ATOM     32  C   UNL     1       5.853   3.720  15.824  0.00  0.00    +0.000 C 
ENDBRANCH  25  28
ENDBRANCH  23  25
BRANCH  24  33
ATOM     33  N   UNL     1       5.735   4.441  19.340  0.00  0.00    +0.000 N 
ATOM     34  H   UNL     1       6.600   4.307  18.812  0.00  0.00    +0.000 HD
ATOM     35  H   UNL     1       5.313   3.519  19.449  0.00  0.00    +0.000 HD
ENDBRANCH  24  33
ENDBRANCH   1  24
TORSDOF 7
ENDMDL
MODEL 4
REMARK VINA RESULT:      -7.8      2.691      4.057
REMARK  Name = 
REMARK  9 active torsions:
REMARK  status: ('A' for Active; 'I' for Inactive)
REMARK    1  A    between atoms: C_1  and  C_2
REMARK    2  A    between atoms: C_2  and  C_3
REMARK    3  A    between atoms: C_3  and  C_5
REMARK    4  A    between atoms: C_10  and  N_11
REMARK    5  A    between atoms: C_10  and  C_12
REMARK    6  A    between atoms: C_14  and  C_15
REMARK    7  A    between atoms: C_19  and  C_20
REMARK    8  A    between atoms: C_23  and  C_24
REMARK    9  A    between atoms: C_31  and  C_32
REMARK                            x       y       z     vdW  Elec       q    Type
REMARK                         _______ _______ _______ _____ _____    ______ ____
ROOT
ATOM      1  C   UNL     1       2.687   6.918  18.811  0.00  0.00    +0.000 A 
ATOM      2  C   UNL     1       1.811   7.417  19.806  0.00  0.00    +0.000 A 
ATOM      3  C   UNL     1       1.261   8.715  19.730  0.00  0.00    +0.000 A 
ATOM      4  C   UNL     1       1.582   9.523  18.650  0.00  0.00    +0.000 A 
ATOM      5  C   UNL     1       2.436   9.049  17.653  0.00  0.00    +0.000 A 
ATOM      6  C   UNL     1       3.024   7.773  17.733  0.00  0.00    +0.000 A 
ATOM      7  C   UNL     1       4.017   7.415  16.668  0.00  0.00    +0.000 C 
ENDROOT
BRANCH   3   8
ATOM      8  C   UNL     1       0.447   9.220  20.878  0.00  0.00    +0.000 C 
ATOM      9  O   UNL     1       0.026   8.403  21.698  0.00  0.00    +0.000 OA
ATOM     10  N   UNL     1       0.214  10.563  21.011  0.00  0.00    +0.000 N 
ATOM     11  C   UNL     1      -0.574  11.230  22.038  0.00  0.00    +0.000 C 
ATOM     12  C   UNL     1      -0.891  12.317  20.988  0.00  0.00    +0.000 C 
ATOM     13  C   UNL     1       0.223  11.705  20.116  0.00  0.00    +0.000 C 
BRANCH  12  14
ATOM     14  C   UNL     1      -2.358  12.443  20.369  0.00  0.00    +0.000 A 
ATOM     15  C   UNL     1      -2.730  11.869  19.138  0.00  0.00    +0.000 A 
ATOM     16  C   UNL     1      -4.054  11.877  18.685  0.00  0.00    +0.000 A 
ATOM     17  C   UNL     1      -5.050  12.488  19.443  0.00  0.00    +0.000 A 
ATOM     18  C   UNL     1      -4.702  13.140  20.628  0.00  0.00    +0.000 A 
ATOM     19  C   UNL     1      -3.377  13.119  21.073  0.00  0.00    +0.000 A 
BRANCH  17  20
ATOM     20  C   UNL     1      -6.416  12.415  19.036  0.00  0.00    +0.000 C 
ATOM     21  N   UNL     1      -7.522  12.357  18.682  0.00  0.00    +0.000 NA
ENDBRANCH  17  20
ENDBRANCH  12  14
ENDBRANCH   3   8
BRANCH   1  24
ATOM     22  C   UNL     1       1.448   4.545  17.625  0.00  0.00    +0.000 C 
ATOM     23  C   UNL     1       2.695   4.431  18.470  0.00  0.00    +0.000 C 
ATOM     24  C   UNL     1       3.251   5.538  19.029  0.00  0.00    +0.000 C 
BRANCH  23  25
ATOM     25  C   UNL     1       3.279   3.010  18.674  0.00  0.00    +0.000 C 
ATOM     26  N   UNL     1       4.263   2.529  17.982  0.00  0.00    +0.000 NA
ATOM     27  H   UNL     1       4.526   3.208  17.253  0.00  0.00    +0.000 HD
BRANCH  25  28
ATOM     28  C   UNL     1       2.644   2.068  19.728  0.00  0.00    +0.000 C 
ATOM     29  C   UNL     1       1.241   2.402  20.210  0.00  0.00    +0.000 C 
ATOM     30  C   UNL     1       1.482   3.338  21.374  0.00  0.00    +0.000 C 
ATOM     31  O   UNL     1       2.697   2.897  21.988  0.00  0.00    +0.000 OA
ATOM     32  C   UNL     1       3.438   2.129  21.029  0.00  0.00    +0.000 C 
ENDBRANCH  25  28
ENDBRANCH  23  25
BRANCH  24  33
ATOM     33  N   UNL     1       4.329   5.522  19.916  0.00  0.00    +0.000 N 
ATOM     34  H   UNL     1       4.124   4.884  20.689  0.00  0.00    +0.000 HD
ATOM     35  H   UNL     1       4.479   6.443  20.330  0.00  0.00    +0.000 HD
ENDBRANCH  24  33
ENDBRANCH   1  24
TORSDOF 7
ENDMDL
MODEL 5
REMARK VINA RESULT:      -7.8      1.765      2.408
REMARK  Name = 
REMARK  9 active torsions:
REMARK  status: ('A' for Active; 'I' for Inactive)
REMARK    1  A    between atoms: C_1  and  C_2
REMARK    2  A    between atoms: C_2  and  C_3
REMARK    3  A    between atoms: C_3  and  C_5
REMARK    4  A    between atoms: C_10  and  N_11
REMARK    5  A    between atoms: C_10  and  C_12
REMARK    6  A    between atoms: C_14  and  C_15
REMARK    7  A    between atoms: C_19  and  C_20
REMARK    8  A    between atoms: C_23  and  C_24
REMARK    9  A    between atoms: C_31  and  C_32
REMARK                            x       y       z     vdW  Elec       q    Type
REMARK                         _______ _______ _______ _____ _____    ______ ____
ROOT
ATOM      1  C   UNL     1       3.088   4.352  19.341  0.00  0.00    +0.000 A 
ATOM      2  C   UNL     1       3.010   5.724  19.685  0.00  0.00    +0.000 A 
ATOM      3  C   UNL     1       1.869   6.271  20.310  0.00  0.00    +0.000 A 
ATOM      4  C   UNL     1       0.795   5.443  20.600  0.00  0.00    +0.000 A 
ATOM      5  C   UNL     1       0.852   4.086  20.278  0.00  0.00    +0.000 A 
ATOM      6  C   UNL     1       1.966   3.532  19.620  0.00  0.00    +0.000 A 
ATOM      7  C   UNL     1       1.870   2.091  19.218  0.00  0.00    +0.000 C 
ENDROOT
BRANCH   3   8
ATOM      8  C   UNL     1       1.806   7.748  20.527  0.00  0.00    +0.000 C 
ATOM      9  O   UNL     1       1.846   8.170  21.684  0.00  0.00    +0.000 OA
ATOM     10  N   UNL     1       1.738   8.595  19.452  0.00  0.00    +0.000 N 
ATOM     11  C   UNL     1       1.641  10.048  19.471  0.00  0.00    +0.000 C 
ATOM     12  C   UNL     1       0.866   9.941  18.139  0.00  0.00    +0.000 C 
ATOM     13  C   UNL     1       1.324   8.471  18.067  0.00  0.00    +0.000 C 
BRANCH  12  14
ATOM     14  C   UNL     1      -0.700  10.253  18.085  0.00  0.00    +0.000 A 
ATOM     15  C   UNL     1      -1.341  11.146  18.965  0.00  0.00    +0.000 A 
ATOM     16  C   UNL     1      -2.685  11.505  18.808  0.00  0.00    +0.000 A 
ATOM     17  C   UNL     1      -3.440  10.957  17.774  0.00  0.00    +0.000 A 
ATOM     18  C   UNL     1      -2.859  10.005  16.933  0.00  0.00    +0.000 A 
ATOM     19  C   UNL     1      -1.514   9.660  17.096  0.00  0.00    +0.000 A 
BRANCH  17  20
ATOM     20  C   UNL     1      -4.781  11.393  17.549  0.00  0.00    +0.000 C 
ATOM     21  N   UNL     1      -5.872  11.738  17.346  0.00  0.00    +0.000 NA
ENDBRANCH  17  20
ENDBRANCH  12  14
ENDBRANCH   3   8
BRANCH   1  24
ATOM     22  C   UNL     1       3.842   5.418  16.720  0.00  0.00    +0.000 C 
ATOM     23  C   UNL     1       4.705   4.396  17.421  0.00  0.00    +0.000 C 
ATOM     24  C   UNL     1       4.336   3.896  18.631  0.00  0.00    +0.000 C 
BRANCH  23  25
ATOM     25  C   UNL     1       5.995   3.945  16.692  0.00  0.00    +0.000 C 
ATOM     26  N   UNL     1       6.029   3.006  15.800  0.00  0.00    +0.000 NA
ATOM     27  H   UNL     1       5.092   2.582  15.722  0.00  0.00    +0.000 HD
BRANCH  25  28
ATOM     28  C   UNL     1       7.349   4.603  17.058  0.00  0.00    +0.000 C 
ATOM     29  C   UNL     1       7.397   5.450  18.321  0.00  0.00    +0.000 C 
ATOM     30  C   UNL     1       6.999   6.828  17.837  0.00  0.00    +0.000 C 
ATOM     31  O   UNL     1       7.518   6.942  16.508  0.00  0.00    +0.000 OA
ATOM     32  C   UNL     1       7.741   5.622  15.992  0.00  0.00    +0.000 C 
ENDBRANCH  25  28
ENDBRANCH  23  25
BRANCH  24  33
ATOM     33  N   UNL     1       5.001   2.868  19.301  0.00  0.00    +0.000 N 
ATOM     34  H   UNL     1       5.944   2.766  18.917  0.00  0.00    +0.000 HD
ATOM     35  H   UNL     1       4.532   1.973  19.164  0.00  0.00    +0.000 HD
ENDBRANCH  24  33
ENDBRANCH   1  24
TORSDOF 7
ENDMDL
MODEL 6
REMARK VINA RESULT:      -7.5      3.411      5.404
REMARK  Name = 
REMARK  9 active torsions:
REMARK  status: ('A' for Active; 'I' for Inactive)
REMARK    1  A    between atoms: C_1  and  C_2
REMARK    2  A    between atoms: C_2  and  C_3
REMARK    3  A    between atoms: C_3  and  C_5
REMARK    4  A    between atoms: C_10  and  N_11
REMARK    5  A    between atoms: C_10  and  C_12
REMARK    6  A    between atoms: C_14  and  C_15
REMARK    7  A    between atoms: C_19  and  C_20
REMARK    8  A    between atoms: C_23  and  C_24
REMARK    9  A    between atoms: C_31  and  C_32
REMARK                            x       y       z     vdW  Elec       q    Type
REMARK                         _______ _______ _______ _____ _____    ______ ____
ROOT
ATOM      1  C   UNL     1       2.631   6.536  19.471  0.00  0.00    +0.000 A 
ATOM      2  C   UNL     1       2.278   7.788  18.909  0.00  0.00    +0.000 A 
ATOM      3  C   UNL     1       1.325   8.634  19.515  0.00  0.00    +0.000 A 
ATOM      4  C   UNL     1       0.718   8.233  20.695  0.00  0.00    +0.000 A 
ATOM      5  C   UNL     1       1.056   7.008  21.273  0.00  0.00    +0.000 A 
ATOM      6  C   UNL     1       1.976   6.135  20.662  0.00  0.00    +0.000 A 
ATOM      7  C   UNL     1       2.174   4.796  21.308  0.00  0.00    +0.000 C 
ENDROOT
BRANCH   3   8
ATOM      8  C   UNL     1       0.910   9.879  18.799  0.00  0.00    +0.000 C 
ATOM      9  O   UNL     1       0.659   9.805  17.596  0.00  0.00    +0.000 OA
ATOM     10  N   UNL     1       0.790  11.056  19.490  0.00  0.00    +0.000 N 
ATOM     11  C   UNL     1       0.431  12.364  18.961  0.00  0.00    +0.000 C 
ATOM     12  C   UNL     1       1.293  12.977  20.085  0.00  0.00    +0.000 C 
ATOM     13  C   UNL     1       1.320  11.580  20.736  0.00  0.00    +0.000 C 
BRANCH  12  14
ATOM     14  C   UNL     1       2.685  13.684  19.745  0.00  0.00    +0.000 A 
ATOM     15  C   UNL     1       3.187  13.813  18.435  0.00  0.00    +0.000 A 
ATOM     16  C   UNL     1       4.339  14.556  18.152  0.00  0.00    +0.000 A 
ATOM     17  C   UNL     1       5.044  15.175  19.182  0.00  0.00    +0.000 A 
ATOM     18  C   UNL     1       4.621  14.998  20.501  0.00  0.00    +0.000 A 
ATOM     19  C   UNL     1       3.466  14.259  20.770  0.00  0.00    +0.000 A 
BRANCH  17  20
ATOM     20  C   UNL     1       6.162  16.014  18.890  0.00  0.00    +0.000 C 
ATOM     21  N   UNL     1       7.068  16.708  18.671  0.00  0.00    +0.000 NA
ENDBRANCH  17  20
ENDBRANCH  12  14
ENDBRANCH   3   8
BRANCH   1  24
ATOM     22  C   UNL     1       1.772   4.607  17.443  0.00  0.00    +0.000 C 
ATOM     23  C   UNL     1       3.236   4.812  17.750  0.00  0.00    +0.000 C 
ATOM     24  C   UNL     1       3.622   5.699  18.706  0.00  0.00    +0.000 C 
BRANCH  23  25
ATOM     25  C   UNL     1       4.250   3.960  16.946  0.00  0.00    +0.000 C 
ATOM     26  N   UNL     1       4.722   2.824  17.356  0.00  0.00    +0.000 NA
ATOM     27  H   UNL     1       4.370   2.637  18.307  0.00  0.00    +0.000 HD
BRANCH  25  28
ATOM     28  C   UNL     1       4.786   4.486  15.591  0.00  0.00    +0.000 C 
ATOM     29  C   UNL     1       6.064   3.860  15.054  0.00  0.00    +0.000 C 
ATOM     30  C   UNL     1       7.157   4.703  15.673  0.00  0.00    +0.000 C 
ATOM     31  O   UNL     1       6.626   6.030  15.764  0.00  0.00    +0.000 OA
ATOM     32  C   UNL     1       5.194   5.950  15.724  0.00  0.00    +0.000 C 
ENDBRANCH  25  28
ENDBRANCH  23  25
BRANCH  24  33
ATOM     33  N   UNL     1       4.937   5.873  19.142  0.00  0.00    +0.000 N 
ATOM     34  H   UNL     1       5.155   5.171  19.853  0.00  0.00    +0.000 HD
ATOM     35  H   UNL     1       5.061   6.784  19.585  0.00  0.00    +0.000 HD
ENDBRANCH  24  33
ENDBRANCH   1  24
TORSDOF 7
ENDMDL
MODEL 7
REMARK VINA RESULT:      -7.5      2.795      3.890
REMARK  Name = 
REMARK  9 active torsions:
REMARK  status: ('A' for Active; 'I' for Inactive)
REMARK    1  A    between atoms: C_1  and  C_2
REMARK    2  A    between atoms: C_2  and  C_3
REMARK    3  A    between atoms: C_3  and  C_5
REMARK    4  A    between atoms: C_10  and  N_11
REMARK    5  A    between atoms: C_10  and  C_12
REMARK    6  A    between atoms: C_14  and  C_15
REMARK    7  A    between atoms: C_19  and  C_20
REMARK    8  A    between atoms: C_23  and  C_24
REMARK    9  A    between atoms: C_31  and  C_32
REMARK                            x       y       z     vdW  Elec       q    Type
REMARK                         _______ _______ _______ _____ _____    ______ ____
ROOT
ATOM      1  C   UNL     1       2.272   6.286  19.083  0.00  0.00    +0.000 A 
ATOM      2  C   UNL     1       2.068   7.593  18.577  0.00  0.00    +0.000 A 
ATOM      3  C   UNL     1       1.587   8.640  19.392  0.00  0.00    +0.000 A 
ATOM      4  C   UNL     1       1.309   8.385  20.727  0.00  0.00    +0.000 A 
ATOM      5  C   UNL     1       1.511   7.107  21.249  0.00  0.00    +0.000 A 
ATOM      6  C   UNL     1       1.953   6.042  20.442  0.00  0.00    +0.000 A 
ATOM      7  C   UNL     1       2.021   4.687  21.081  0.00  0.00    +0.000 C 
ENDROOT
BRANCH   3   8
ATOM      8  C   UNL     1       1.276   9.959  18.761  0.00  0.00    +0.000 C 
ATOM      9  O   UNL     1       2.185  10.559  18.184  0.00  0.00    +0.000 OA
ATOM     10  N   UNL     1       0.000  10.455  18.808  0.00  0.00    +0.000 N 
ATOM     11  C   UNL     1      -0.479  11.724  18.280  0.00  0.00    +0.000 C 
ATOM     12  C   UNL     1      -1.535  11.713  19.406  0.00  0.00    +0.000 C 
ATOM     13  C   UNL     1      -1.161  10.238  19.652  0.00  0.00    +0.000 C 
BRANCH  12  14
ATOM     14  C   UNL     1      -1.428  12.737  20.628  0.00  0.00    +0.000 A 
ATOM     15  C   UNL     1      -2.544  13.183  21.363  0.00  0.00    +0.000 A 
ATOM     16  C   UNL     1      -2.409  13.970  22.512  0.00  0.00    +0.000 A 
ATOM     17  C   UNL     1      -1.145  14.361  22.949  0.00  0.00    +0.000 A 
ATOM     18  C   UNL     1      -0.023  14.007  22.197  0.00  0.00    +0.000 A 
ATOM     19  C   UNL     1      -0.171  13.214  21.055  0.00  0.00    +0.000 A 
BRANCH  17  20
ATOM     20  C   UNL     1      -0.995  15.080  24.173  0.00  0.00    +0.000 C 
ATOM     21  N   UNL     1      -0.877  15.647  25.181  0.00  0.00    +0.000 NA
ENDBRANCH  17  20
ENDBRANCH  12  14
ENDBRANCH   3   8
BRANCH   1  24
ATOM     22  C   UNL     1       5.117   5.754  18.642  0.00  0.00    +0.000 C 
ATOM     23  C   UNL     1       4.057   4.973  17.903  0.00  0.00    +0.000 C 
ATOM     24  C   UNL     1       2.739   5.240  18.104  0.00  0.00    +0.000 C 
BRANCH  23  25
ATOM     25  C   UNL     1       4.546   3.888  16.911  0.00  0.00    +0.000 C 
ATOM     26  N   UNL     1       4.612   2.626  17.199  0.00  0.00    +0.000 NA
ATOM     27  H   UNL     1       4.362   2.492  18.190  0.00  0.00    +0.000 HD
BRANCH  25  28
ATOM     28  C   UNL     1       5.032   4.305  15.501  0.00  0.00    +0.000 C 
ATOM     29  C   UNL     1       6.385   3.780  15.044  0.00  0.00    +0.000 C 
ATOM     30  C   UNL     1       7.358   4.822  15.552  0.00  0.00    +0.000 C 
ATOM     31  O   UNL     1       6.667   6.074  15.478  0.00  0.00    +0.000 OA
ATOM     32  C   UNL     1       5.256   5.813  15.450  0.00  0.00    +0.000 C 
ENDBRANCH  25  28
ENDBRANCH  23  25
BRANCH  24  33
ATOM     33  N   UNL     1       1.693   4.658  17.386  0.00  0.00    +0.000 N 
ATOM     34  H   UNL     1       1.158   4.043  18.004  0.00  0.00    +0.000 HD
ATOM     35  H   UNL     1       2.045   4.074  16.627  0.00  0.00    +0.000 HD
ENDBRANCH  24  33
ENDBRANCH   1  24
TORSDOF 7
ENDMDL
MODEL 8
REMARK VINA RESULT:      -7.4      1.328      1.602
REMARK  Name = 
REMARK  9 active torsions:
REMARK  status: ('A' for Active; 'I' for Inactive)
REMARK    1  A    between atoms: C_1  and  C_2
REMARK    2  A    between atoms: C_2  and  C_3
REMARK    3  A    between atoms: C_3  and  C_5
REMARK    4  A    between atoms: C_10  and  N_11
REMARK    5  A    between atoms: C_10  and  C_12
REMARK    6  A    between atoms: C_14  and  C_15
REMARK    7  A    between atoms: C_19  and  C_20
REMARK    8  A    between atoms: C_23  and  C_24
REMARK    9  A    between atoms: C_31  and  C_32
REMARK                            x       y       z     vdW  Elec       q    Type
REMARK                         _______ _______ _______ _____ _____    ______ ____
ROOT
ATOM      1  C   UNL     1       3.106   4.822  19.333  0.00  0.00    +0.000 A 
ATOM      2  C   UNL     1       2.918   6.163  19.751  0.00  0.00    +0.000 A 
ATOM      3  C   UNL     1       1.763   6.570  20.453  0.00  0.00    +0.000 A 
ATOM      4  C   UNL     1       0.786   5.631  20.746  0.00  0.00    +0.000 A 
ATOM      5  C   UNL     1       0.952   4.303  20.353  0.00  0.00    +0.000 A 
ATOM      6  C   UNL     1       2.079   3.888  19.619  0.00  0.00    +0.000 A 
ATOM      7  C   UNL     1       2.097   2.465  19.147  0.00  0.00    +0.000 C 
ENDROOT
BRANCH   3   8
ATOM      8  C   UNL     1       1.576   8.023  20.749  0.00  0.00    +0.000 C 
ATOM      9  O   UNL     1       1.452   8.367  21.926  0.00  0.00    +0.000 OA
ATOM     10  N   UNL     1       1.575   8.934  19.726  0.00  0.00    +0.000 N 
ATOM     11  C   UNL     1       1.378  10.373  19.820  0.00  0.00    +0.000 C 
ATOM     12  C   UNL     1       0.772  10.310  18.401  0.00  0.00    +0.000 C 
ATOM     13  C   UNL     1       1.334   8.879  18.296  0.00  0.00    +0.000 C 
BRANCH  12  14
ATOM     14  C   UNL     1      -0.795  10.530  18.178  0.00  0.00    +0.000 A 
ATOM     15  C   UNL     1      -1.581   9.704  17.351  0.00  0.00    +0.000 A 
ATOM     16  C   UNL     1      -2.973   9.834  17.281  0.00  0.00    +0.000 A 
ATOM     17  C   UNL     1      -3.622  10.819  18.022  0.00  0.00    +0.000 A 
ATOM     18  C   UNL     1      -2.866  11.708  18.788  0.00  0.00    +0.000 A 
ATOM     19  C   UNL     1      -1.477  11.564  18.854  0.00  0.00    +0.000 A 
BRANCH  17  20
ATOM     20  C   UNL     1      -5.048  10.893  18.031  0.00  0.00    +0.000 C 
ATOM     21  N   UNL     1      -6.208  10.967  18.021  0.00  0.00    +0.000 NA
ENDBRANCH  17  20
ENDBRANCH  12  14
ENDBRANCH   3   8
BRANCH   1  24
ATOM     22  C   UNL     1       3.891   6.434  17.019  0.00  0.00    +0.000 C 
ATOM     23  C   UNL     1       4.738   5.272  17.480  0.00  0.00    +0.000 C 
ATOM     24  C   UNL     1       4.354   4.521  18.546  0.00  0.00    +0.000 C 
BRANCH  23  25
ATOM     25  C   UNL     1       6.029   4.979  16.675  0.00  0.00    +0.000 C 
ATOM     26  N   UNL     1       7.065   4.378  17.169  0.00  0.00    +0.000 NA
ATOM     27  H   UNL     1       6.907   4.203  18.173  0.00  0.00    +0.000 HD
BRANCH  25  28
ATOM     28  C   UNL     1       6.140   5.459  15.206  0.00  0.00    +0.000 C 
ATOM     29  C   UNL     1       5.208   4.818  14.189  0.00  0.00    +0.000 C 
ATOM     30  C   UNL     1       5.978   3.603  13.720  0.00  0.00    +0.000 C 
ATOM     31  O   UNL     1       7.360   3.979  13.749  0.00  0.00    +0.000 OA
ATOM     32  C   UNL     1       7.508   5.094  14.639  0.00  0.00    +0.000 C 
ENDBRANCH  25  28
ENDBRANCH  23  25
BRANCH  24  33
ATOM     33  N   UNL     1       5.003   3.361  18.975  0.00  0.00    +0.000 N 
ATOM     34  H   UNL     1       4.684   3.122  19.916  0.00  0.00    +0.000 HD
ATOM     35  H   UNL     1       6.012   3.503  19.035  0.00  0.00    +0.000 HD
ENDBRANCH  24  33
ENDBRANCH   1  24
TORSDOF 7
ENDMDL
MODEL 9
REMARK VINA RESULT:      -7.4      1.425      1.974
REMARK  Name = 
REMARK  9 active torsions:
REMARK  status: ('A' for Active; 'I' for Inactive)
REMARK    1  A    between atoms: C_1  and  C_2
REMARK    2  A    between atoms: C_2  and  C_3
REMARK    3  A    between atoms: C_3  and  C_5
REMARK    4  A    between atoms: C_10  and  N_11
REMARK    5  A    between atoms: C_10  and  C_12
REMARK    6  A    between atoms: C_14  and  C_15
REMARK    7  A    between atoms: C_19  and  C_20
REMARK    8  A    between atoms: C_23  and  C_24
REMARK    9  A    between atoms: C_31  and  C_32
REMARK                            x       y       z     vdW  Elec       q    Type
REMARK                         _______ _______ _______ _____ _____    ______ ____
ROOT
ATOM      1  C   UNL     1       2.814   5.291  18.962  0.00  0.00    +0.000 A 
ATOM      2  C   UNL     1       2.635   6.606  19.455  0.00  0.00    +0.000 A 
ATOM      3  C   UNL     1       1.627   6.920  20.391  0.00  0.00    +0.000 A 
ATOM      4  C   UNL     1       0.790   5.913  20.847  0.00  0.00    +0.000 A 
ATOM      5  C   UNL     1       0.953   4.607  20.382  0.00  0.00    +0.000 A 
ATOM      6  C   UNL     1       1.927   4.284  19.419  0.00  0.00    +0.000 A 
ATOM      7  C   UNL     1       1.934   2.875  18.906  0.00  0.00    +0.000 C 
ENDROOT
BRANCH   3   8
ATOM      8  C   UNL     1       1.416   8.351  20.769  0.00  0.00    +0.000 C 
ATOM      9  O   UNL     1       1.378   8.639  21.967  0.00  0.00    +0.000 OA
ATOM     10  N   UNL     1       1.302   9.305  19.794  0.00  0.00    +0.000 N 
ATOM     11  C   UNL     1       1.065  10.731  19.970  0.00  0.00    +0.000 C 
ATOM     12  C   UNL     1       0.347  10.708  18.603  0.00  0.00    +0.000 C 
ATOM     13  C   UNL     1       0.946   9.304  18.386  0.00  0.00    +0.000 C 
BRANCH  12  14
ATOM     14  C   UNL     1      -1.239  10.879  18.516  0.00  0.00    +0.000 A 
ATOM     15  C   UNL     1      -1.959  11.813  19.287  0.00  0.00    +0.000 A 
ATOM     16  C   UNL     1      -3.326  12.037  19.093  0.00  0.00    +0.000 A 
ATOM     17  C   UNL     1      -4.026  11.310  18.133  0.00  0.00    +0.000 A 
ATOM     18  C   UNL     1      -3.361  10.318  17.409  0.00  0.00    +0.000 A 
ATOM     19  C   UNL     1      -1.994  10.108  17.607  0.00  0.00    +0.000 A 
BRANCH  17  20
ATOM     20  C   UNL     1      -5.397  11.603  17.862  0.00  0.00    +0.000 C 
ATOM     21  N   UNL     1      -6.514  11.824  17.626  0.00  0.00    +0.000 NA
ENDBRANCH  17  20
ENDBRANCH  12  14
ENDBRANCH   3   8
BRANCH   1  24
ATOM     22  C   UNL     1       5.057   3.462  19.409  0.00  0.00    +0.000 C 
ATOM     23  C   UNL     1       4.927   4.231  18.116  0.00  0.00    +0.000 C 
ATOM     24  C   UNL     1       3.890   5.089  17.926  0.00  0.00    +0.000 C 
BRANCH  23  25
ATOM     25  C   UNL     1       6.027   4.005  17.049  0.00  0.00    +0.000 C 
ATOM     26  N   UNL     1       5.900   3.201  16.042  0.00  0.00    +0.000 NA
ATOM     27  H   UNL     1       5.000   2.705  16.118  0.00  0.00    +0.000 HD
BRANCH  25  28
ATOM     28  C   UNL     1       7.388   4.733  17.189  0.00  0.00    +0.000 C 
ATOM     29  C   UNL     1       7.586   5.615  18.413  0.00  0.00    +0.000 C 
ATOM     30  C   UNL     1       7.053   6.960  17.969  0.00  0.00    +0.000 C 
ATOM     31  O   UNL     1       7.357   7.061  16.573  0.00  0.00    +0.000 OA
ATOM     32  C   UNL     1       7.562   5.739  16.056  0.00  0.00    +0.000 C 
ENDBRANCH  25  28
ENDBRANCH  23  25
BRANCH  24  33
ATOM     33  N   UNL     1       3.746   5.929  16.820  0.00  0.00    +0.000 N 
ATOM     34  H   UNL     1       2.786   5.871  16.473  0.00  0.00    +0.000 HD
ATOM     35  H   UNL     1       4.352   5.636  16.053  0.00  0.00    +0.000 HD
ENDBRANCH  24  33
ENDBRANCH   1  24
TORSDOF 7
ENDMDL
