MODEL 1
REMARK VINA RESULT:      -6.8      0.000      0.000
REMARK  Name = 
REMARK  5 active torsions:
REMARK  status: ('A' for Active; 'I' for Inactive)
REMARK    1  A    between atoms: C_1  and  O_2
REMARK    2  A    between atoms: O_2  and  C_3
REMARK    3  A    between atoms: C_6  and  C_7
REMARK    4  A    between atoms: C_18  and  C_19
REMARK    5  A    between atoms: C_18  and  C_20
REMARK                            x       y       z     vdW  Elec       q    Type
REMARK                         _______ _______ _______ _____ _____    ______ ____
ROOT
ATOM      1  C   UNL     1      -2.310  12.613  20.487  0.00  0.00    +0.000 C 
ATOM      2  N   UNL     1      -3.286  12.376  19.628  0.00  0.00    +0.000 N 
ATOM      3  O   UNL     1      -4.468  12.846  19.809  0.00  0.00    +0.000 OA
ATOM      4  C   UNL     1      -3.061  11.503  18.481  0.00  0.00    +0.000 A 
ATOM      5  C   UNL     1      -4.033  11.384  17.479  0.00  0.00    +0.000 A 
ATOM      6  C   UNL     1      -3.773  10.601  16.355  0.00  0.00    +0.000 A 
ATOM      7  C   UNL     1      -2.554   9.937  16.235  0.00  0.00    +0.000 A 
ATOM      8  C   UNL     1      -1.626   9.990  17.279  0.00  0.00    +0.000 A 
ATOM      9  C   UNL     1      -1.894  10.743  18.429  0.00  0.00    +0.000 A 
ATOM     10  N   UNL     1      -0.974  10.837  19.474  0.00  0.00    +0.000 N 
ATOM     11  C   UNL     1      -0.776   9.631  20.286  0.00  0.00    +0.000 C 
ATOM     12  C   UNL     1       0.299   9.934  21.382  0.00  0.00    +0.000 C 
ATOM     13  C   UNL     1      -0.336  10.192  22.777  0.00  0.00    +0.000 C 
ATOM     14  C   UNL     1       1.209   8.710  21.518  0.00  0.00    +0.000 C 
ATOM     15  C   UNL     1       1.064  11.224  20.949  0.00  0.00    +0.000 C 
ATOM     16  N   UNL     1       0.067  12.333  20.923  0.00  0.00    +0.000 NA
ATOM     17  C   UNL     1      -0.977  11.975  20.232  0.00  0.00    +0.000 C 
ENDROOT
BRANCH   1  21
ATOM     18  C   UNL     1      -3.315  14.640  24.143  0.00  0.00    +0.000 A 
ATOM     19  C   UNL     1      -2.794  15.345  23.059  0.00  0.00    +0.000 A 
ATOM     20  C   UNL     1      -2.449  14.679  21.881  0.00  0.00    +0.000 A 
ATOM     21  C   UNL     1      -2.577  13.280  21.792  0.00  0.00    +0.000 A 
ATOM     22  C   UNL     1      -3.101  12.579  22.874  0.00  0.00    +0.000 A 
ATOM     23  C   UNL     1      -3.474  13.257  24.043  0.00  0.00    +0.000 A 
BRANCH  18  25
ATOM     24  C   UNL     1      -3.412  16.803  25.099  0.00  0.00    +0.000 C 
ATOM     25  O   UNL     1      -3.599  15.401  25.240  0.00  0.00    +0.000 OA
ENDBRANCH  18  25
ENDBRANCH   1  21
TORSDOF 2
ENDMDL
MODEL 2
REMARK VINA RESULT:      -6.8      0.518      1.093
REMARK  Name = 
REMARK  5 active torsions:
REMARK  status: ('A' for Active; 'I' for Inactive)
REMARK    1  A    between atoms: C_1  and  O_2
REMARK    2  A    between atoms: O_2  and  C_3
REMARK    3  A    between atoms: C_6  and  C_7
REMARK    4  A    between atoms: C_18  and  C_19
REMARK    5  A    between atoms: C_18  and  C_20
REMARK                            x       y       z     vdW  Elec       q    Type
REMARK                         _______ _______ _______ _____ _____    ______ ____
ROOT
ATOM      1  C   UNL     1      -2.310  12.617  20.366  0.00  0.00    +0.000 C 
ATOM      2  N   UNL     1      -3.304  12.378  19.529  0.00  0.00    +0.000 N 
ATOM      3  O   UNL     1      -4.480  12.854  19.729  0.00  0.00    +0.000 OA
ATOM      4  C   UNL     1      -3.105  11.496  18.384  0.00  0.00    +0.000 A 
ATOM      5  C   UNL     1      -4.097  11.373  17.403  0.00  0.00    +0.000 A 
ATOM      6  C   UNL     1      -3.863  10.581  16.280  0.00  0.00    +0.000 A 
ATOM      7  C   UNL     1      -2.648   9.911  16.140  0.00  0.00    +0.000 A 
ATOM      8  C   UNL     1      -1.700   9.968  17.165  0.00  0.00    +0.000 A 
ATOM      9  C   UNL     1      -1.943  10.730  18.315  0.00  0.00    +0.000 A 
ATOM     10  N   UNL     1      -1.001  10.829  19.340  0.00  0.00    +0.000 N 
ATOM     11  C   UNL     1      -0.793   9.628  20.158  0.00  0.00    +0.000 C 
ATOM     12  C   UNL     1       0.306   9.935  21.229  0.00  0.00    +0.000 C 
ATOM     13  C   UNL     1      -0.301  10.205  22.635  0.00  0.00    +0.000 C 
ATOM     14  C   UNL     1       1.213   8.709  21.357  0.00  0.00    +0.000 C 
ATOM     15  C   UNL     1       1.066  11.218  20.773  0.00  0.00    +0.000 C 
ATOM     16  N   UNL     1       0.073  12.332  20.757  0.00  0.00    +0.000 NA
ATOM     17  C   UNL     1      -0.985  11.972  20.090  0.00  0.00    +0.000 C 
ENDROOT
BRANCH   1  21
ATOM     18  C   UNL     1      -2.772  14.449  24.229  0.00  0.00    +0.000 A 
ATOM     19  C   UNL     1      -3.110  13.111  24.031  0.00  0.00    +0.000 A 
ATOM     20  C   UNL     1      -2.978  12.526  22.770  0.00  0.00    +0.000 A 
ATOM     21  C   UNL     1      -2.549  13.295  21.672  0.00  0.00    +0.000 A 
ATOM     22  C   UNL     1      -2.209  14.630  21.872  0.00  0.00    +0.000 A 
ATOM     23  C   UNL     1      -2.314  15.203  23.147  0.00  0.00    +0.000 A 
BRANCH  18  25
ATOM     24  C   UNL     1      -1.865  15.602  26.087  0.00  0.00    +0.000 C 
ATOM     25  O   UNL     1      -2.958  14.907  25.501  0.00  0.00    +0.000 OA
ENDBRANCH  18  25
ENDBRANCH   1  21
TORSDOF 2
ENDMDL
MODEL 3
REMARK VINA RESULT:      -6.6      6.049      8.556
REMARK  Name = 
REMARK  5 active torsions:
REMARK  status: ('A' for Active; 'I' for Inactive)
REMARK    1  A    between atoms: C_1  and  O_2
REMARK    2  A    between atoms: O_2  and  C_3
REMARK    3  A    between atoms: C_6  and  C_7
REMARK    4  A    between atoms: C_18  and  C_19
REMARK    5  A    between atoms: C_18  and  C_20
REMARK                            x       y       z     vdW  Elec       q    Type
REMARK                         _______ _______ _______ _____ _____    ______ ____
ROOT
ATOM      1  C   UNL     1       3.242   6.626  18.640  0.00  0.00    +0.000 C 
ATOM      2  N   UNL     1       3.771   6.932  17.468  0.00  0.00    +0.000 N 
ATOM      3  O   UNL     1       3.568   8.075  16.918  0.00  0.00    +0.000 OA
ATOM      4  C   UNL     1       4.545   5.941  16.729  0.00  0.00    +0.000 A 
ATOM      5  C   UNL     1       5.248   6.308  15.574  0.00  0.00    +0.000 A 
ATOM      6  C   UNL     1       6.040   5.365  14.920  0.00  0.00    +0.000 A 
ATOM      7  C   UNL     1       6.125   4.063  15.411  0.00  0.00    +0.000 A 
ATOM      8  C   UNL     1       5.351   3.683  16.511  0.00  0.00    +0.000 A 
ATOM      9  C   UNL     1       4.523   4.614  17.152  0.00  0.00    +0.000 A 
ATOM     10  N   UNL     1       3.763   4.268  18.271  0.00  0.00    +0.000 N 
ATOM     11  C   UNL     1       2.617   3.381  18.038  0.00  0.00    +0.000 C 
ATOM     12  C   UNL     1       1.914   3.101  19.407  0.00  0.00    +0.000 C 
ATOM     13  C   UNL     1       0.617   3.940  19.586  0.00  0.00    +0.000 C 
ATOM     14  C   UNL     1       1.506   1.625  19.448  0.00  0.00    +0.000 C 
ATOM     15  C   UNL     1       2.910   3.495  20.541  0.00  0.00    +0.000 C 
ATOM     16  N   UNL     1       3.160   4.960  20.411  0.00  0.00    +0.000 NA
ATOM     17  C   UNL     1       3.479   5.248  19.182  0.00  0.00    +0.000 C 
ENDROOT
BRANCH   1  21
ATOM     18  C   UNL     1       0.561   9.308  20.665  0.00  0.00    +0.000 A 
ATOM     19  C   UNL     1       1.036   8.163  21.302  0.00  0.00    +0.000 A 
ATOM     20  C   UNL     1       1.889   7.283  20.633  0.00  0.00    +0.000 A 
ATOM     21  C   UNL     1       2.241   7.518  19.290  0.00  0.00    +0.000 A 
ATOM     22  C   UNL     1       1.769   8.665  18.658  0.00  0.00    +0.000 A 
ATOM     23  C   UNL     1       0.937   9.559  19.345  0.00  0.00    +0.000 A 
BRANCH  18  25
ATOM     24  C   UNL     1      -0.338   9.771  22.806  0.00  0.00    +0.000 C 
ATOM     25  O   UNL     1      -0.276  10.079  21.420  0.00  0.00    +0.000 OA
ENDBRANCH  18  25
ENDBRANCH   1  21
TORSDOF 2
ENDMDL
MODEL 4
REMARK VINA RESULT:      -6.4      3.622      5.930
REMARK  Name = 
REMARK  5 active torsions:
REMARK  status: ('A' for Active; 'I' for Inactive)
REMARK    1  A    between atoms: C_1  and  O_2
REMARK    2  A    between atoms: O_2  and  C_3
REMARK    3  A    between atoms: C_6  and  C_7
REMARK    4  A    between atoms: C_18  and  C_19
REMARK    5  A    between atoms: C_18  and  C_20
REMARK                            x       y       z     vdW  Elec       q    Type
REMARK                         _______ _______ _______ _____ _____    ______ ____
ROOT
ATOM      1  C   UNL     1       0.536  13.765  20.877  0.00  0.00    +0.000 C 
ATOM      2  N   UNL     1       0.667  12.562  20.345  0.00  0.00    +0.000 N 
ATOM      3  O   UNL     1       1.109  12.401  19.150  0.00  0.00    +0.000 OA
ATOM      4  C   UNL     1       0.238  11.380  21.085  0.00  0.00    +0.000 A 
ATOM      5  C   UNL     1       0.528  10.097  20.602  0.00  0.00    +0.000 A 
ATOM      6  C   UNL     1       0.173   8.980  21.356  0.00  0.00    +0.000 A 
ATOM      7  C   UNL     1      -0.474   9.141  22.580  0.00  0.00    +0.000 A 
ATOM      8  C   UNL     1      -0.840  10.419  23.011  0.00  0.00    +0.000 A 
ATOM      9  C   UNL     1      -0.521  11.546  22.242  0.00  0.00    +0.000 A 
ATOM     10  N   UNL     1      -0.847  12.836  22.663  0.00  0.00    +0.000 N 
ATOM     11  C   UNL     1      -2.269  13.196  22.635  0.00  0.00    +0.000 C 
ATOM     12  C   UNL     1      -2.426  14.662  23.158  0.00  0.00    +0.000 C 
ATOM     13  C   UNL     1      -2.636  15.681  22.003  0.00  0.00    +0.000 C 
ATOM     14  C   UNL     1      -3.669  14.727  24.050  0.00  0.00    +0.000 C 
ATOM     15  C   UNL     1      -1.111  15.040  23.908  0.00  0.00    +0.000 C 
ATOM     16  N   UNL     1      -0.008  14.995  22.904  0.00  0.00    +0.000 NA
ATOM     17  C   UNL     1      -0.046  13.867  22.256  0.00  0.00    +0.000 C 
ENDROOT
BRANCH   1  21
ATOM     18  C   UNL     1       1.203  17.157  18.321  0.00  0.00    +0.000 A 
ATOM     19  C   UNL     1       2.233  16.648  19.111  0.00  0.00    +0.000 A 
ATOM     20  C   UNL     1       2.006  15.560  19.956  0.00  0.00    +0.000 A 
ATOM     21  C   UNL     1       0.721  14.994  20.056  0.00  0.00    +0.000 A 
ATOM     22  C   UNL     1      -0.305  15.501  19.263  0.00  0.00    +0.000 A 
ATOM     23  C   UNL     1      -0.063  16.575  18.395  0.00  0.00    +0.000 A 
BRANCH  18  25
ATOM     24  C   UNL     1       0.635  18.580  16.517  0.00  0.00    +0.000 C 
ATOM     25  O   UNL     1       1.547  18.229  17.549  0.00  0.00    +0.000 OA
ENDBRANCH  18  25
ENDBRANCH   1  21
TORSDOF 2
ENDMDL
MODEL 5
REMARK VINA RESULT:      -6.3      6.218      8.720
REMARK  Name = 
REMARK  5 active torsions:
REMARK  status: ('A' for Active; 'I' for Inactive)
REMARK    1  A    between atoms: C_1  and  O_2
REMARK    2  A    between atoms: O_2  and  C_3
REMARK    3  A    between atoms: C_6  and  C_7
REMARK    4  A    between atoms: C_18  and  C_19
REMARK    5  A    between atoms: C_18  and  C_20
REMARK                            x       y       z     vdW  Elec       q    Type
REMARK                         _______ _______ _______ _____ _____    ______ ____
ROOT
ATOM      1  C   UNL     1       3.485   6.615  18.387  0.00  0.00    +0.000 C 
ATOM      2  N   UNL     1       4.013   6.842  17.197  0.00  0.00    +0.000 N 
ATOM      3  O   UNL     1       3.862   7.969  16.600  0.00  0.00    +0.000 OA
ATOM      4  C   UNL     1       4.725   5.781  16.493  0.00  0.00    +0.000 A 
ATOM      5  C   UNL     1       5.430   6.060  15.316  0.00  0.00    +0.000 A 
ATOM      6  C   UNL     1       6.164   5.050  14.695  0.00  0.00    +0.000 A 
ATOM      7  C   UNL     1       6.187   3.768  15.242  0.00  0.00    +0.000 A 
ATOM      8  C   UNL     1       5.410   3.477  16.366  0.00  0.00    +0.000 A 
ATOM      9  C   UNL     1       4.640   4.476  16.975  0.00  0.00    +0.000 A 
ATOM     10  N   UNL     1       3.878   4.220  18.116  0.00  0.00    +0.000 N 
ATOM     11  C   UNL     1       2.685   3.384  17.935  0.00  0.00    +0.000 C 
ATOM     12  C   UNL     1       1.986   3.201  19.323  0.00  0.00    +0.000 C 
ATOM     13  C   UNL     1       0.738   4.114  19.480  0.00  0.00    +0.000 C 
ATOM     14  C   UNL     1       1.503   1.752  19.433  0.00  0.00    +0.000 C 
ATOM     15  C   UNL     1       3.017   3.591  20.427  0.00  0.00    +0.000 C 
ATOM     16  N   UNL     1       3.341   5.034  20.230  0.00  0.00    +0.000 NA
ATOM     17  C   UNL     1       3.658   5.251  18.986  0.00  0.00    +0.000 C 
ENDROOT
BRANCH   1  21
ATOM     18  C   UNL     1       0.555   9.292  20.041  0.00  0.00    +0.000 A 
ATOM     19  C   UNL     1       1.006   9.452  18.732  0.00  0.00    +0.000 A 
ATOM     20  C   UNL     1       1.974   8.594  18.206  0.00  0.00    +0.000 A 
ATOM     21  C   UNL     1       2.541   7.586  19.009  0.00  0.00    +0.000 A 
ATOM     22  C   UNL     1       2.086   7.426  20.314  0.00  0.00    +0.000 A 
ATOM     23  C   UNL     1       1.093   8.272  20.827  0.00  0.00    +0.000 A 
BRANCH  18  25
ATOM     24  C   UNL     1      -1.107  10.855  19.409  0.00  0.00    +0.000 C 
ATOM     25  O   UNL     1      -0.380  10.202  20.442  0.00  0.00    +0.000 OA
ENDBRANCH  18  25
ENDBRANCH   1  21
TORSDOF 2
ENDMDL
MODEL 6
REMARK VINA RESULT:      -6.3      2.585      3.917
REMARK  Name = 
REMARK  5 active torsions:
REMARK  status: ('A' for Active; 'I' for Inactive)
REMARK    1  A    between atoms: C_1  and  O_2
REMARK    2  A    between atoms: O_2  and  C_3
REMARK    3  A    between atoms: C_6  and  C_7
REMARK    4  A    between atoms: C_18  and  C_19
REMARK    5  A    between atoms: C_18  and  C_20
REMARK                            x       y       z     vdW  Elec       q    Type
REMARK                         _______ _______ _______ _____ _____    ______ ____
ROOT
ATOM      1  C   UNL     1      -0.972  11.457  21.704  0.00  0.00    +0.000 C 
ATOM      2  N   UNL     1      -0.450  10.307  22.092  0.00  0.00    +0.000 N 
ATOM      3  O   UNL     1      -0.621   9.859  23.283  0.00  0.00    +0.000 OA
ATOM      4  C   UNL     1       0.405   9.545  21.188  0.00  0.00    +0.000 A 
ATOM      5  C   UNL     1       0.820   8.251  21.526  0.00  0.00    +0.000 A 
ATOM      6  C   UNL     1       1.578   7.510  20.620  0.00  0.00    +0.000 A 
ATOM      7  C   UNL     1       1.924   8.061  19.387  0.00  0.00    +0.000 A 
ATOM      8  C   UNL     1       1.582   9.383  19.094  0.00  0.00    +0.000 A 
ATOM      9  C   UNL     1       0.853  10.148  20.014  0.00  0.00    +0.000 A 
ATOM     10  N   UNL     1       0.472  11.462  19.735  0.00  0.00    +0.000 N 
ATOM     11  C   UNL     1       1.542  12.466  19.718  0.00  0.00    +0.000 C 
ATOM     12  C   UNL     1       0.917  13.858  19.370  0.00  0.00    +0.000 C 
ATOM     13  C   UNL     1       0.745  14.758  20.626  0.00  0.00    +0.000 C 
ATOM     14  C   UNL     1       1.867  14.589  18.417  0.00  0.00    +0.000 C 
ATOM     15  C   UNL     1      -0.494  13.603  18.756  0.00  0.00    +0.000 C 
ATOM     16  N   UNL     1      -1.318  12.948  19.814  0.00  0.00    +0.000 NA
ATOM     17  C   UNL     1      -0.671  11.936  20.315  0.00  0.00    +0.000 C 
ENDROOT
BRANCH   1  21
ATOM     18  C   UNL     1      -2.868  14.293  24.322  0.00  0.00    +0.000 A 
ATOM     19  C   UNL     1      -1.510  14.397  24.024  0.00  0.00    +0.000 A 
ATOM     20  C   UNL     1      -0.894  13.462  23.191  0.00  0.00    +0.000 A 
ATOM     21  C   UNL     1      -1.627  12.373  22.681  0.00  0.00    +0.000 A 
ATOM     22  C   UNL     1      -2.983  12.273  22.976  0.00  0.00    +0.000 A 
ATOM     23  C   UNL     1      -3.603  13.232  23.789  0.00  0.00    +0.000 A 
BRANCH  18  25
ATOM     24  C   UNL     1      -4.307  16.151  24.604  0.00  0.00    +0.000 C 
ATOM     25  O   UNL     1      -3.349  15.259  25.158  0.00  0.00    +0.000 OA
ENDBRANCH  18  25
ENDBRANCH   1  21
TORSDOF 2
ENDMDL
MODEL 7
REMARK VINA RESULT:      -6.2      2.554      4.003
REMARK  Name = 
REMARK  5 active torsions:
REMARK  status: ('A' for Active; 'I' for Inactive)
REMARK    1  A    between atoms: C_1  and  O_2
REMARK    2  A    between atoms: O_2  and  C_3
REMARK    3  A    between atoms: C_6  and  C_7
REMARK    4  A    between atoms: C_18  and  C_19
REMARK    5  A    between atoms: C_18  and  C_20
REMARK                            x       y       z     vdW  Elec       q    Type
REMARK                         _______ _______ _______ _____ _____    ______ ____
ROOT
ATOM      1  C   UNL     1      -0.939  11.693  21.657  0.00  0.00    +0.000 C 
ATOM      2  N   UNL     1      -0.454  10.560  22.137  0.00  0.00    +0.000 N 
ATOM      3  O   UNL     1      -0.641  10.216  23.360  0.00  0.00    +0.000 OA
ATOM      4  C   UNL     1       0.375   9.701  21.299  0.00  0.00    +0.000 A 
ATOM      5  C   UNL     1       0.748   8.425  21.742  0.00  0.00    +0.000 A 
ATOM      6  C   UNL     1       1.481   7.590  20.900  0.00  0.00    +0.000 A 
ATOM      7  C   UNL     1       1.845   8.027  19.628  0.00  0.00    +0.000 A 
ATOM      8  C   UNL     1       1.546   9.333  19.229  0.00  0.00    +0.000 A 
ATOM      9  C   UNL     1       0.843  10.193  20.082  0.00  0.00    +0.000 A 
ATOM     10  N   UNL     1       0.505  11.491  19.697  0.00  0.00    +0.000 N 
ATOM     11  C   UNL     1       1.607  12.455  19.602  0.00  0.00    +0.000 C 
ATOM     12  C   UNL     1       1.029  13.834  19.142  0.00  0.00    +0.000 C 
ATOM     13  C   UNL     1       0.886  14.837  20.321  0.00  0.00    +0.000 C 
ATOM     14  C   UNL     1       2.002  14.455  18.136  0.00  0.00    +0.000 C 
ATOM     15  C   UNL     1      -0.390  13.577  18.547  0.00  0.00    +0.000 C 
ATOM     16  N   UNL     1      -1.235  13.037  19.651  0.00  0.00    +0.000 NA
ATOM     17  C   UNL     1      -0.622  12.048  20.234  0.00  0.00    +0.000 C 
ENDROOT
BRANCH   1  21
ATOM     18  C   UNL     1      -2.737  14.423  24.448  0.00  0.00    +0.000 A 
ATOM     19  C   UNL     1      -3.492  13.413  23.855  0.00  0.00    +0.000 A 
ATOM     20  C   UNL     1      -2.909  12.542  22.932  0.00  0.00    +0.000 A 
ATOM     21  C   UNL     1      -1.563  12.705  22.554  0.00  0.00    +0.000 A 
ATOM     22  C   UNL     1      -0.810  13.712  23.151  0.00  0.00    +0.000 A 
ATOM     23  C   UNL     1      -1.394  14.564  24.098  0.00  0.00    +0.000 A 
BRANCH  18  25
ATOM     24  C   UNL     1      -3.787  16.507  24.847  0.00  0.00    +0.000 C 
ATOM     25  O   UNL     1      -3.425  15.217  25.321  0.00  0.00    +0.000 OA
ENDBRANCH  18  25
ENDBRANCH   1  21
TORSDOF 2
ENDMDL
MODEL 8
REMARK VINA RESULT:      -6.2      8.510     10.707
REMARK  Name = 
REMARK  5 active torsions:
REMARK  status: ('A' for Active; 'I' for Inactive)
REMARK    1  A    between atoms: C_1  and  O_2
REMARK    2  A    between atoms: O_2  and  C_3
REMARK    3  A    between atoms: C_6  and  C_7
REMARK    4  A    between atoms: C_18  and  C_19
REMARK    5  A    between atoms: C_18  and  C_20
REMARK                            x       y       z     vdW  Elec       q    Type
REMARK                         _______ _______ _______ _____ _____    ______ ____
ROOT
ATOM      1  C   UNL     1       8.009  14.714  20.020  0.00  0.00    +0.000 C 
ATOM      2  N   UNL     1       8.474  14.204  18.894  0.00  0.00    +0.000 N 
ATOM      3  O   UNL     1       7.938  14.480  17.760  0.00  0.00    +0.000 OA
ATOM      4  C   UNL     1       9.574  13.246  18.919  0.00  0.00    +0.000 A 
ATOM      5  C   UNL     1      10.183  12.833  17.727  0.00  0.00    +0.000 A 
ATOM      6  C   UNL     1      11.278  11.972  17.774  0.00  0.00    +0.000 A 
ATOM      7  C   UNL     1      11.758  11.520  19.002  0.00  0.00    +0.000 A 
ATOM      8  C   UNL     1      11.090  11.865  20.180  0.00  0.00    +0.000 A 
ATOM      9  C   UNL     1       9.966  12.699  20.140  0.00  0.00    +0.000 A 
ATOM     10  N   UNL     1       9.298  13.084  21.303  0.00  0.00    +0.000 N 
ATOM     11  C   UNL     1       8.525  12.043  21.991  0.00  0.00    +0.000 C 
ATOM     12  C   UNL     1       7.874  12.666  23.271  0.00  0.00    +0.000 C 
ATOM     13  C   UNL     1       6.365  12.983  23.071  0.00  0.00    +0.000 C 
ATOM     14  C   UNL     1       7.974  11.646  24.409  0.00  0.00    +0.000 C 
ATOM     15  C   UNL     1       8.617  14.003  23.577  0.00  0.00    +0.000 C 
ATOM     16  N   UNL     1       8.377  14.910  22.417  0.00  0.00    +0.000 NA
ATOM     17  C   UNL     1       8.655  14.290  21.306  0.00  0.00    +0.000 C 
ENDROOT
BRANCH   1  21
ATOM     18  C   UNL     1       4.361  16.983  19.828  0.00  0.00    +0.000 A 
ATOM     19  C   UNL     1       5.599  17.624  19.827  0.00  0.00    +0.000 A 
ATOM     20  C   UNL     1       6.780  16.885  19.911  0.00  0.00    +0.000 A 
ATOM     21  C   UNL     1       6.733  15.484  20.048  0.00  0.00    +0.000 A 
ATOM     22  C   UNL     1       5.497  14.846  20.044  0.00  0.00    +0.000 A 
ATOM     23  C   UNL     1       4.315  15.591  19.929  0.00  0.00    +0.000 A 
BRANCH  18  25
ATOM     24  C   UNL     1       2.093  17.260  19.212  0.00  0.00    +0.000 C 
ATOM     25  O   UNL     1       3.282  17.816  19.755  0.00  0.00    +0.000 OA
ENDBRANCH  18  25
ENDBRANCH   1  21
TORSDOF 2
ENDMDL
MODEL 9
REMARK VINA RESULT:      -6.1      3.450      5.782
REMARK  Name = 
REMARK  5 active torsions:
REMARK  status: ('A' for Active; 'I' for Inactive)
REMARK    1  A    between atoms: C_1  and  O_2
REMARK    2  A    between atoms: O_2  and  C_3
REMARK    3  A    between atoms: C_6  and  C_7
REMARK    4  A    between atoms: C_18  and  C_19
REMARK    5  A    between atoms: C_18  and  C_20
REMARK                            x       y       z     vdW  Elec       q    Type
REMARK                         _______ _______ _______ _____ _____    ______ ____
ROOT
ATOM      1  C   UNL     1       0.359  13.703  20.860  0.00  0.00    +0.000 C 
ATOM      2  N   UNL     1       0.469  12.502  20.319  0.00  0.00    +0.000 N 
ATOM      3  O   UNL     1       0.833  12.346  19.097  0.00  0.00    +0.000 OA
ATOM      4  C   UNL     1       0.105  11.314  21.085  0.00  0.00    +0.000 A 
ATOM      5  C   UNL     1       0.379  10.035  20.583  0.00  0.00    +0.000 A 
ATOM      6  C   UNL     1       0.090   8.914  21.358  0.00  0.00    +0.000 A 
ATOM      7  C   UNL     1      -0.477   9.067  22.623  0.00  0.00    +0.000 A 
ATOM      8  C   UNL     1      -0.829  10.340  23.078  0.00  0.00    +0.000 A 
ATOM      9  C   UNL     1      -0.576  11.470  22.290  0.00  0.00    +0.000 A 
ATOM     10  N   UNL     1      -0.890  12.756  22.733  0.00  0.00    +0.000 N 
ATOM     11  C   UNL     1      -2.316  13.098  22.800  0.00  0.00    +0.000 C 
ATOM     12  C   UNL     1      -2.456  14.562  23.334  0.00  0.00    +0.000 C 
ATOM     13  C   UNL     1      -2.756  15.578  22.196  0.00  0.00    +0.000 C 
ATOM     14  C   UNL     1      -3.638  14.611  24.306  0.00  0.00    +0.000 C 
ATOM     15  C   UNL     1      -1.099  14.957  23.994  0.00  0.00    +0.000 C 
ATOM     16  N   UNL     1      -0.065  14.926  22.919  0.00  0.00    +0.000 NA
ATOM     17  C   UNL     1      -0.132  13.797  22.274  0.00  0.00    +0.000 C 
ENDROOT
BRANCH   1  21
ATOM     18  C   UNL     1       0.552  17.393  18.663  0.00  0.00    +0.000 A 
ATOM     19  C   UNL     1      -0.633  16.661  18.720  0.00  0.00    +0.000 A 
ATOM     20  C   UNL     1      -0.685  15.453  19.417  0.00  0.00    +0.000 A 
ATOM     21  C   UNL     1       0.472  14.934  20.029  0.00  0.00    +0.000 A 
ATOM     22  C   UNL     1       1.653  15.669  19.973  0.00  0.00    +0.000 A 
ATOM     23  C   UNL     1       1.692  16.896  19.297  0.00  0.00    +0.000 A 
BRANCH  18  25
ATOM     24  C   UNL     1       1.008  18.502  16.621  0.00  0.00    +0.000 C 
ATOM     25  O   UNL     1       0.479  18.549  17.940  0.00  0.00    +0.000 OA
ENDBRANCH  18  25
ENDBRANCH   1  21
TORSDOF 2
ENDMDL
