MODEL 1
REMARK VINA RESULT:      -7.4      0.000      0.000
REMARK  Name = 
REMARK  0 active torsions:
REMARK  status: ('A' for Active; 'I' for Inactive)
REMARK                            x       y       z     vdW  Elec       q    Type
REMARK                         _______ _______ _______ _____ _____    ______ ____
ROOT
ATOM      1  O   UNL     1       2.433   4.800  21.002  0.00  0.00    +0.000 OA
ATOM      2  C   UNL     1       2.624   5.587  20.081  0.00  0.00    +0.000 C 
ATOM      3  C   UNL     1       1.968   6.920  20.116  0.00  0.00    +0.000 A 
ATOM      4  C   UNL     1       1.147   7.241  21.208  0.00  0.00    +0.000 A 
ATOM      5  C   UNL     1       0.518   8.483  21.270  0.00  0.00    +0.000 A 
ATOM      6  C   UNL     1       0.707   9.408  20.246  0.00  0.00    +0.000 A 
ATOM      7  C   UNL     1       1.525   9.096  19.153  0.00  0.00    +0.000 A 
ATOM      8  C   UNL     1       2.162   7.848  19.080  0.00  0.00    +0.000 A 
ATOM      9  C   UNL     1       3.033   7.533  17.904  0.00  0.00    +0.000 C 
ATOM     10  O   UNL     1       3.184   8.361  17.013  0.00  0.00    +0.000 OA
ATOM     11  C   UNL     1       3.669   6.218  17.890  0.00  0.00    +0.000 A 
ATOM     12  C   UNL     1       3.451   5.336  18.926  0.00  0.00    +0.000 A 
ATOM     13  S   UNL     1       4.267   3.867  18.740  0.00  0.00    +0.000 S 
ATOM     14  C   UNL     1       4.953   4.357  17.244  0.00  0.00    +0.000 A 
ATOM     15  C   UNL     1       5.814   3.591  16.435  0.00  0.00    +0.000 A 
ATOM     16  C   UNL     1       6.288   4.137  15.242  0.00  0.00    +0.000 A 
ATOM     17  C   UNL     1       5.912   5.416  14.861  0.00  0.00    +0.000 A 
ATOM     18  C   UNL     1       5.054   6.174  15.669  0.00  0.00    +0.000 A 
ATOM     19  C   UNL     1       4.553   5.652  16.890  0.00  0.00    +0.000 A 
ENDROOT
TORSDOF 0
ENDMDL
MODEL 2
REMARK VINA RESULT:      -7.3      3.085      3.615
REMARK  Name = 
REMARK  0 active torsions:
REMARK  status: ('A' for Active; 'I' for Inactive)
REMARK                            x       y       z     vdW  Elec       q    Type
REMARK                         _______ _______ _______ _____ _____    ______ ____
ROOT
ATOM      1  O   UNL     1       5.429   5.422  20.014  0.00  0.00    +0.000 OA
ATOM      2  C   UNL     1       4.786   4.905  19.106  0.00  0.00    +0.000 C 
ATOM      3  C   UNL     1       3.428   4.370  19.389  0.00  0.00    +0.000 A 
ATOM      4  C   UNL     1       2.919   4.477  20.693  0.00  0.00    +0.000 A 
ATOM      5  C   UNL     1       1.649   3.985  20.990  0.00  0.00    +0.000 A 
ATOM      6  C   UNL     1       0.884   3.389  19.989  0.00  0.00    +0.000 A 
ATOM      7  C   UNL     1       1.385   3.281  18.687  0.00  0.00    +0.000 A 
ATOM      8  C   UNL     1       2.662   3.771  18.377  0.00  0.00    +0.000 A 
ATOM      9  C   UNL     1       3.180   3.645  16.978  0.00  0.00    +0.000 C 
ATOM     10  O   UNL     1       2.491   3.116  16.113  0.00  0.00    +0.000 OA
ATOM     11  C   UNL     1       4.516   4.178  16.720  0.00  0.00    +0.000 A 
ATOM     12  C   UNL     1       5.235   4.758  17.743  0.00  0.00    +0.000 A 
ATOM     13  S   UNL     1       6.757   5.317  17.261  0.00  0.00    +0.000 S 
ATOM     14  C   UNL     1       6.512   4.796  15.642  0.00  0.00    +0.000 A 
ATOM     15  C   UNL     1       7.425   4.934  14.580  0.00  0.00    +0.000 A 
ATOM     16  C   UNL     1       7.074   4.457  13.317  0.00  0.00    +0.000 A 
ATOM     17  C   UNL     1       5.840   3.855  13.116  0.00  0.00    +0.000 A 
ATOM     18  C   UNL     1       4.936   3.719  14.177  0.00  0.00    +0.000 A 
ATOM     19  C   UNL     1       5.259   4.193  15.475  0.00  0.00    +0.000 A 
ENDROOT
TORSDOF 0
ENDMDL
MODEL 3
REMARK VINA RESULT:      -6.9      2.364      3.821
REMARK  Name = 
REMARK  0 active torsions:
REMARK  status: ('A' for Active; 'I' for Inactive)
REMARK                            x       y       z     vdW  Elec       q    Type
REMARK                         _______ _______ _______ _____ _____    ______ ____
ROOT
ATOM      1  O   UNL     1       2.969   6.844  19.524  0.00  0.00    +0.000 OA
ATOM      2  C   UNL     1       3.185   5.738  19.039  0.00  0.00    +0.000 C 
ATOM      3  C   UNL     1       2.578   4.536  19.667  0.00  0.00    +0.000 A 
ATOM      4  C   UNL     1       1.769   4.704  20.802  0.00  0.00    +0.000 A 
ATOM      5  C   UNL     1       1.185   3.596  21.415  0.00  0.00    +0.000 A 
ATOM      6  C   UNL     1       1.403   2.321  20.898  0.00  0.00    +0.000 A 
ATOM      7  C   UNL     1       2.208   2.147  19.765  0.00  0.00    +0.000 A 
ATOM      8  C   UNL     1       2.801   3.254  19.141  0.00  0.00    +0.000 A 
ATOM      9  C   UNL     1       3.659   3.046  17.932  0.00  0.00    +0.000 C 
ATOM     10  O   UNL     1       3.839   1.916  17.493  0.00  0.00    +0.000 OA
ATOM     11  C   UNL     1       4.245   4.241  17.328  0.00  0.00    +0.000 A 
ATOM     12  C   UNL     1       4.001   5.481  17.877  0.00  0.00    +0.000 A 
ATOM     13  S   UNL     1       4.760   6.744  17.047  0.00  0.00    +0.000 S 
ATOM     14  C   UNL     1       5.457   5.666  15.905  0.00  0.00    +0.000 A 
ATOM     15  C   UNL     1       6.288   6.026  14.826  0.00  0.00    +0.000 A 
ATOM     16  C   UNL     1       6.776   5.026  13.984  0.00  0.00    +0.000 A 
ATOM     17  C   UNL     1       6.446   3.698  14.212  0.00  0.00    +0.000 A 
ATOM     18  C   UNL     1       5.620   3.346  15.287  0.00  0.00    +0.000 A 
ATOM     19  C   UNL     1       5.104   4.336  16.164  0.00  0.00    +0.000 A 
ENDROOT
TORSDOF 0
ENDMDL
MODEL 4
REMARK VINA RESULT:      -6.8      1.160      5.671
REMARK  Name = 
REMARK  0 active torsions:
REMARK  status: ('A' for Active; 'I' for Inactive)
REMARK                            x       y       z     vdW  Elec       q    Type
REMARK                         _______ _______ _______ _____ _____    ______ ____
ROOT
ATOM      1  O   UNL     1       3.672   3.609  19.475  0.00  0.00    +0.000 OA
ATOM      2  C   UNL     1       3.594   4.706  18.931  0.00  0.00    +0.000 C 
ATOM      3  C   UNL     1       4.355   4.954  17.680  0.00  0.00    +0.000 A 
ATOM      4  C   UNL     1       5.144   3.918  17.154  0.00  0.00    +0.000 A 
ATOM      5  C   UNL     1       5.871   4.119  15.981  0.00  0.00    +0.000 A 
ATOM      6  C   UNL     1       5.811   5.349  15.330  0.00  0.00    +0.000 A 
ATOM      7  C   UNL     1       5.026   6.386  15.848  0.00  0.00    +0.000 A 
ATOM      8  C   UNL     1       4.292   6.195  17.028  0.00  0.00    +0.000 A 
ATOM      9  C   UNL     1       3.459   7.317  17.567  0.00  0.00    +0.000 C 
ATOM     10  O   UNL     1       3.421   8.391  16.978  0.00  0.00    +0.000 OA
ATOM     11  C   UNL     1       2.716   7.052  18.797  0.00  0.00    +0.000 A 
ATOM     12  C   UNL     1       2.807   5.819  19.405  0.00  0.00    +0.000 A 
ATOM     13  S   UNL     1       1.882   5.696  20.816  0.00  0.00    +0.000 S 
ATOM     14  C   UNL     1       1.316   7.311  20.668  0.00  0.00    +0.000 A 
ATOM     15  C   UNL     1       0.436   7.965  21.551  0.00  0.00    +0.000 A 
ATOM     16  C   UNL     1       0.069   9.285  21.289  0.00  0.00    +0.000 A 
ATOM     17  C   UNL     1       0.570   9.941  20.173  0.00  0.00    +0.000 A 
ATOM     18  C   UNL     1       1.446   9.286  19.299  0.00  0.00    +0.000 A 
ATOM     19  C   UNL     1       1.840   7.942  19.533  0.00  0.00    +0.000 A 
ENDROOT
TORSDOF 0
ENDMDL
MODEL 5
REMARK VINA RESULT:      -6.6      2.420      4.105
REMARK  Name = 
REMARK  0 active torsions:
REMARK  status: ('A' for Active; 'I' for Inactive)
REMARK                            x       y       z     vdW  Elec       q    Type
REMARK                         _______ _______ _______ _____ _____    ______ ____
ROOT
ATOM      1  O   UNL     1       3.268   8.185  16.796  0.00  0.00    +0.000 OA
ATOM      2  C   UNL     1       2.757   7.938  17.883  0.00  0.00    +0.000 C 
ATOM      3  C   UNL     1       1.995   9.002  18.587  0.00  0.00    +0.000 A 
ATOM      4  C   UNL     1       1.881  10.263  17.982  0.00  0.00    +0.000 A 
ATOM      5  C   UNL     1       1.173  11.283  18.617  0.00  0.00    +0.000 A 
ATOM      6  C   UNL     1       0.576  11.046  19.854  0.00  0.00    +0.000 A 
ATOM      7  C   UNL     1       0.685   9.791  20.463  0.00  0.00    +0.000 A 
ATOM      8  C   UNL     1       1.396   8.758  19.833  0.00  0.00    +0.000 A 
ATOM      9  C   UNL     1       1.501   7.422  20.501  0.00  0.00    +0.000 C 
ATOM     10  O   UNL     1       0.969   7.236  21.589  0.00  0.00    +0.000 OA
ATOM     11  C   UNL     1       2.253   6.390  19.791  0.00  0.00    +0.000 A 
ATOM     12  C   UNL     1       2.826   6.671  18.570  0.00  0.00    +0.000 A 
ATOM     13  S   UNL     1       3.655   5.359  17.899  0.00  0.00    +0.000 S 
ATOM     14  C   UNL     1       3.277   4.348  19.235  0.00  0.00    +0.000 A 
ATOM     15  C   UNL     1       3.663   3.003  19.393  0.00  0.00    +0.000 A 
ATOM     16  C   UNL     1       3.272   2.315  20.542  0.00  0.00    +0.000 A 
ATOM     17  C   UNL     1       2.515   2.953  21.513  0.00  0.00    +0.000 A 
ATOM     18  C   UNL     1       2.133   4.291  21.351  0.00  0.00    +0.000 A 
ATOM     19  C   UNL     1       2.512   5.022  20.195  0.00  0.00    +0.000 A 
ENDROOT
TORSDOF 0
ENDMDL
MODEL 6
REMARK VINA RESULT:      -6.5      1.865      6.428
REMARK  Name = 
REMARK  0 active torsions:
REMARK  status: ('A' for Active; 'I' for Inactive)
REMARK                            x       y       z     vdW  Elec       q    Type
REMARK                         _______ _______ _______ _____ _____    ______ ____
ROOT
ATOM      1  O   UNL     1       3.650   7.769  16.492  0.00  0.00    +0.000 OA
ATOM      2  C   UNL     1       3.230   7.303  17.546  0.00  0.00    +0.000 C 
ATOM      3  C   UNL     1       3.575   5.906  17.914  0.00  0.00    +0.000 A 
ATOM      4  C   UNL     1       4.377   5.156  17.038  0.00  0.00    +0.000 A 
ATOM      5  C   UNL     1       4.718   3.842  17.354  0.00  0.00    +0.000 A 
ATOM      6  C   UNL     1       4.263   3.273  18.542  0.00  0.00    +0.000 A 
ATOM      7  C   UNL     1       3.464   4.015  19.420  0.00  0.00    +0.000 A 
ATOM      8  C   UNL     1       3.114   5.338  19.112  0.00  0.00    +0.000 A 
ATOM      9  C   UNL     1       2.258   6.114  20.063  0.00  0.00    +0.000 C 
ATOM     10  O   UNL     1       1.867   5.594  21.103  0.00  0.00    +0.000 OA
ATOM     11  C   UNL     1       1.932   7.487  19.685  0.00  0.00    +0.000 A 
ATOM     12  C   UNL     1       2.404   8.006  18.499  0.00  0.00    +0.000 A 
ATOM     13  S   UNL     1       1.927   9.605  18.227  0.00  0.00    +0.000 S 
ATOM     14  C   UNL     1       1.055   9.668  19.705  0.00  0.00    +0.000 A 
ATOM     15  C   UNL     1       0.334  10.774  20.196  0.00  0.00    +0.000 A 
ATOM     16  C   UNL     1      -0.323  10.665  21.422  0.00  0.00    +0.000 A 
ATOM     17  C   UNL     1      -0.267   9.481  22.142  0.00  0.00    +0.000 A 
ATOM     18  C   UNL     1       0.450   8.384  21.648  0.00  0.00    +0.000 A 
ATOM     19  C   UNL     1       1.133   8.459  20.406  0.00  0.00    +0.000 A 
ENDROOT
TORSDOF 0
ENDMDL
MODEL 7
REMARK VINA RESULT:      -6.5      1.185      5.686
REMARK  Name = 
REMARK  0 active torsions:
REMARK  status: ('A' for Active; 'I' for Inactive)
REMARK                            x       y       z     vdW  Elec       q    Type
REMARK                         _______ _______ _______ _____ _____    ______ ____
ROOT
ATOM      1  O   UNL     1       4.254   2.832  18.605  0.00  0.00    +0.000 OA
ATOM      2  C   UNL     1       4.170   3.983  18.189  0.00  0.00    +0.000 C 
ATOM      3  C   UNL     1       4.914   4.369  16.961  0.00  0.00    +0.000 A 
ATOM      4  C   UNL     1       5.692   3.398  16.310  0.00  0.00    +0.000 A 
ATOM      5  C   UNL     1       6.401   3.729  15.157  0.00  0.00    +0.000 A 
ATOM      6  C   UNL     1       6.335   5.024  14.649  0.00  0.00    +0.000 A 
ATOM      7  C   UNL     1       5.560   5.997  15.292  0.00  0.00    +0.000 A 
ATOM      8  C   UNL     1       4.843   5.676  16.454  0.00  0.00    +0.000 A 
ATOM      9  C   UNL     1       4.021   6.730  17.128  0.00  0.00    +0.000 C 
ATOM     10  O   UNL     1       3.978   7.864  16.665  0.00  0.00    +0.000 OA
ATOM     11  C   UNL     1       3.297   6.330  18.332  0.00  0.00    +0.000 A 
ATOM     12  C   UNL     1       3.394   5.036  18.797  0.00  0.00    +0.000 A 
ATOM     13  S   UNL     1       2.490   4.756  20.199  0.00  0.00    +0.000 S 
ATOM     14  C   UNL     1       1.927   6.378  20.242  0.00  0.00    +0.000 A 
ATOM     15  C   UNL     1       1.061   6.930  21.206  0.00  0.00    +0.000 A 
ATOM     16  C   UNL     1       0.694   8.271  21.100  0.00  0.00    +0.000 A 
ATOM     17  C   UNL     1       1.179   9.048  20.058  0.00  0.00    +0.000 A 
ATOM     18  C   UNL     1       2.040   8.494  19.101  0.00  0.00    +0.000 A 
ATOM     19  C   UNL     1       2.434   7.133  19.177  0.00  0.00    +0.000 A 
ENDROOT
TORSDOF 0
ENDMDL
MODEL 8
REMARK VINA RESULT:      -6.5      1.807      2.731
REMARK  Name = 
REMARK  0 active torsions:
REMARK  status: ('A' for Active; 'I' for Inactive)
REMARK                            x       y       z     vdW  Elec       q    Type
REMARK                         _______ _______ _______ _____ _____    ______ ____
ROOT
ATOM      1  O   UNL     1       0.794   7.846  21.802  0.00  0.00    +0.000 OA
ATOM      2  C   UNL     1       1.322   7.872  20.695  0.00  0.00    +0.000 C 
ATOM      3  C   UNL     1       1.345   9.145  19.930  0.00  0.00    +0.000 A 
ATOM      4  C   UNL     1       0.760  10.287  20.501  0.00  0.00    +0.000 A 
ATOM      5  C   UNL     1       0.765  11.496  19.808  0.00  0.00    +0.000 A 
ATOM      6  C   UNL     1       1.354  11.572  18.548  0.00  0.00    +0.000 A 
ATOM      7  C   UNL     1       1.941  10.438  17.973  0.00  0.00    +0.000 A 
ATOM      8  C   UNL     1       1.940   9.215  18.661  0.00  0.00    +0.000 A 
ATOM      9  C   UNL     1       2.572   8.014  18.028  0.00  0.00    +0.000 C 
ATOM     10  O   UNL     1       3.084   8.102  16.918  0.00  0.00    +0.000 OA
ATOM     11  C   UNL     1       2.541   6.773  18.798  0.00  0.00    +0.000 A 
ATOM     12  C   UNL     1       1.945   6.747  20.041  0.00  0.00    +0.000 A 
ATOM     13  S   UNL     1       2.003   5.228  20.782  0.00  0.00    +0.000 S 
ATOM     14  C   UNL     1       2.837   4.534  19.451  0.00  0.00    +0.000 A 
ATOM     15  C   UNL     1       3.255   3.193  19.343  0.00  0.00    +0.000 A 
ATOM     16  C   UNL     1       3.926   2.783  18.190  0.00  0.00    +0.000 A 
ATOM     17  C   UNL     1       4.173   3.687  17.167  0.00  0.00    +0.000 A 
ATOM     18  C   UNL     1       3.754   5.019  17.280  0.00  0.00    +0.000 A 
ATOM     19  C   UNL     1       3.070   5.472  18.438  0.00  0.00    +0.000 A 
ENDROOT
TORSDOF 0
ENDMDL
MODEL 9
REMARK VINA RESULT:      -6.4      1.738      5.690
REMARK  Name = 
REMARK  0 active torsions:
REMARK  status: ('A' for Active; 'I' for Inactive)
REMARK                            x       y       z     vdW  Elec       q    Type
REMARK                         _______ _______ _______ _____ _____    ______ ____
ROOT
ATOM      1  O   UNL     1       1.925   4.915  21.194  0.00  0.00    +0.000 OA
ATOM      2  C   UNL     1       2.215   5.650  20.254  0.00  0.00    +0.000 C 
ATOM      3  C   UNL     1       3.052   5.119  19.147  0.00  0.00    +0.000 A 
ATOM      4  C   UNL     1       3.487   3.786  19.209  0.00  0.00    +0.000 A 
ATOM      5  C   UNL     1       4.274   3.258  18.187  0.00  0.00    +0.000 A 
ATOM      6  C   UNL     1       4.627   4.056  17.101  0.00  0.00    +0.000 A 
ATOM      7  C   UNL     1       4.196   5.386  17.031  0.00  0.00    +0.000 A 
ATOM      8  C   UNL     1       3.405   5.928  18.056  0.00  0.00    +0.000 A 
ATOM      9  C   UNL     1       2.955   7.353  17.964  0.00  0.00    +0.000 C 
ATOM     10  O   UNL     1       3.278   8.038  17.000  0.00  0.00    +0.000 OA
ATOM     11  C   UNL     1       2.131   7.855  19.061  0.00  0.00    +0.000 A 
ATOM     12  C   UNL     1       1.809   7.027  20.115  0.00  0.00    +0.000 A 
ATOM     13  S   UNL     1       0.851   7.777  21.290  0.00  0.00    +0.000 S 
ATOM     14  C   UNL     1       0.832   9.261  20.425  0.00  0.00    +0.000 A 
ATOM     15  C   UNL     1       0.179  10.444  20.822  0.00  0.00    +0.000 A 
ATOM     16  C   UNL     1       0.258  11.570  20.003  0.00  0.00    +0.000 A 
ATOM     17  C   UNL     1       0.972  11.521  18.815  0.00  0.00    +0.000 A 
ATOM     18  C   UNL     1       1.621  10.342  18.425  0.00  0.00    +0.000 A 
ATOM     19  C   UNL     1       1.561   9.177  19.233  0.00  0.00    +0.000 A 
ENDROOT
TORSDOF 0
ENDMDL
