MODEL 1
REMARK VINA RESULT:      -8.0      0.000      0.000
REMARK  Name = 
REMARK  9 active torsions:
REMARK  status: ('A' for Active; 'I' for Inactive)
REMARK    1  A    between atoms: C_1  and  N_2
REMARK    2  A    between atoms: N_2  and  C_3
REMARK    3  A    between atoms: N_2  and  C_4
REMARK    4  A    between atoms: C_4  and  C_5
REMARK    5  A    between atoms: C_4  and  C_18
REMARK    6  A    between atoms: N_7  and  C_8
REMARK    7  A    between atoms: C_8  and  C_9
REMARK    8  A    between atoms: C_9  and  C_10
REMARK    9  A    between atoms: C_10  and  N_11
REMARK                            x       y       z     vdW  Elec       q    Type
REMARK                         _______ _______ _______ _____ _____    ______ ____
ROOT
ATOM      1  C   UNL     1       4.409   4.244  19.435  0.00  0.00    +0.000 C 
ATOM      2  O   UNL     1       4.932   3.130  19.419  0.00  0.00    +0.000 OA
ATOM      3  N   UNL     1       5.146   5.408  19.424  0.00  0.00    +0.000 N 
ATOM      4  H   UNL     1       4.643   6.285  19.427  0.00  0.00    +0.000 HD
ENDROOT
BRANCH   1   5
ATOM      5  C   UNL     1       2.862   4.446  19.447  0.00  0.00    +0.000 C 
BRANCH   5   6
ATOM      6  C   UNL     1       2.440   5.923  19.377  0.00  0.00    +0.000 A 
ATOM      7  C   UNL     1       2.513   6.640  18.167  0.00  0.00    +0.000 A 
ATOM      8  C   UNL     1       2.176   7.995  18.112  0.00  0.00    +0.000 A 
ATOM      9  C   UNL     1       1.730   8.640  19.254  0.00  0.00    +0.000 A 
ATOM     10  F   UNL     1       1.432   9.945  19.206  0.00  0.00    +0.000 F 
ATOM     11  C   UNL     1       1.580   7.946  20.446  0.00  0.00    +0.000 A 
ATOM     12  C   UNL     1       1.910   6.590  20.500  0.00  0.00    +0.000 A 
ENDBRANCH   5   6
BRANCH   5  14
ATOM     13  C   UNL     1       2.937   3.286  17.215  0.00  0.00    +0.000 C 
ATOM     14  N   UNL     1       2.190   3.558  18.440  0.00  0.00    +0.000 NA
ATOM     15  C   UNL     1       1.754   2.298  19.049  0.00  0.00    +0.000 C 
ENDBRANCH   5  14
ENDBRANCH   1   5
BRANCH   3  16
ATOM     16  C   UNL     1       6.580   5.416  19.362  0.00  0.00    +0.000 C 
BRANCH  16  17
ATOM     17  C   UNL     1       7.022   5.776  17.960  0.00  0.00    +0.000 C 
ATOM     18  C   UNL     1       6.246   6.851  17.222  0.00  0.00    +0.000 C 
ATOM     19  C   UNL     1       7.615   7.161  17.752  0.00  0.00    +0.000 C 
BRANCH  17  20
ATOM     20  C   UNL     1       7.626   4.640  17.145  0.00  0.00    +0.000 C 
BRANCH  20  21
ATOM     21  N   UNL     1       7.101   4.485  15.790  0.00  0.00    +0.000 N 
ATOM     22  C   UNL     1       5.995   3.790  15.383  0.00  0.00    +0.000 A 
ATOM     23  C   UNL     1       5.866   4.033  14.038  0.00  0.00    +0.000 A 
ATOM     24  C   UNL     1       6.924   4.898  13.724  0.00  0.00    +0.000 A 
ATOM     25  N   UNL     1       7.686   5.176  14.788  0.00  0.00    +0.000 NA
ENDBRANCH  20  21
ENDBRANCH  17  20
ENDBRANCH  16  17
ENDBRANCH   3  16
TORSDOF 7
ENDMDL
MODEL 2
REMARK VINA RESULT:      -7.7      0.455      1.278
REMARK  Name = 
REMARK  9 active torsions:
REMARK  status: ('A' for Active; 'I' for Inactive)
REMARK    1  A    between atoms: C_1  and  N_2
REMARK    2  A    between atoms: N_2  and  C_3
REMARK    3  A    between atoms: N_2  and  C_4
REMARK    4  A    between atoms: C_4  and  C_5
REMARK    5  A    between atoms: C_4  and  C_18
REMARK    6  A    between atoms: N_7  and  C_8
REMARK    7  A    between atoms: C_8  and  C_9
REMARK    8  A    between atoms: C_9  and  C_10
REMARK    9  A    between atoms: C_10  and  N_11
REMARK                            x       y       z     vdW  Elec       q    Type
REMARK                         _______ _______ _______ _____ _____    ______ ____
ROOT
ATOM      1  C   UNL     1       4.615   4.416  19.480  0.00  0.00    +0.000 C 
ATOM      2  O   UNL     1       5.108   3.312  19.250  0.00  0.00    +0.000 OA
ATOM      3  N   UNL     1       5.378   5.558  19.592  0.00  0.00    +0.000 N 
ATOM      4  H   UNL     1       4.898   6.430  19.771  0.00  0.00    +0.000 HD
ENDROOT
BRANCH   1   5
ATOM      5  C   UNL     1       3.079   4.633  19.646  0.00  0.00    +0.000 C 
BRANCH   5   6
ATOM      6  C   UNL     1       2.630   6.073  19.345  0.00  0.00    +0.000 A 
ATOM      7  C   UNL     1       2.018   6.862  20.338  0.00  0.00    +0.000 A 
ATOM      8  C   UNL     1       1.566   8.153  20.052  0.00  0.00    +0.000 A 
ATOM      9  C   UNL     1       1.750   8.682  18.785  0.00  0.00    +0.000 A 
ATOM     10  F   UNL     1       1.292   9.910  18.506  0.00  0.00    +0.000 F 
ATOM     11  C   UNL     1       2.410   7.958  17.804  0.00  0.00    +0.000 A 
ATOM     12  C   UNL     1       2.869   6.670  18.091  0.00  0.00    +0.000 A 
ENDBRANCH   5   6
BRANCH   5  14
ATOM     13  C   UNL     1       0.949   3.314  19.416  0.00  0.00    +0.000 C 
ATOM     14  N   UNL     1       2.299   3.573  18.923  0.00  0.00    +0.000 NA
ATOM     15  C   UNL     1       2.263   3.830  17.480  0.00  0.00    +0.000 C 
ENDBRANCH   5  14
ENDBRANCH   1   5
BRANCH   3  16
ATOM     16  C   UNL     1       6.803   5.559  19.417  0.00  0.00    +0.000 C 
BRANCH  16  17
ATOM     17  C   UNL     1       7.134   5.860  17.972  0.00  0.00    +0.000 C 
ATOM     18  C   UNL     1       6.317   6.922  17.260  0.00  0.00    +0.000 C 
ATOM     19  C   UNL     1       7.730   7.225  17.665  0.00  0.00    +0.000 C 
BRANCH  17  20
ATOM     20  C   UNL     1       7.651   4.684  17.153  0.00  0.00    +0.000 C 
BRANCH  20  21
ATOM     21  N   UNL     1       7.032   4.507  15.841  0.00  0.00    +0.000 N 
ATOM     22  C   UNL     1       5.858   3.874  15.534  0.00  0.00    +0.000 A 
ATOM     23  C   UNL     1       5.661   4.065  14.190  0.00  0.00    +0.000 A 
ATOM     24  C   UNL     1       6.754   4.840  13.771  0.00  0.00    +0.000 A 
ATOM     25  N   UNL     1       7.598   5.110  14.773  0.00  0.00    +0.000 NA
ENDBRANCH  20  21
ENDBRANCH  17  20
ENDBRANCH  16  17
ENDBRANCH   3  16
TORSDOF 7
ENDMDL
MODEL 3
REMARK VINA RESULT:      -7.5      0.478      1.281
REMARK  Name = 
REMARK  9 active torsions:
REMARK  status: ('A' for Active; 'I' for Inactive)
REMARK    1  A    between atoms: C_1  and  N_2
REMARK    2  A    between atoms: N_2  and  C_3
REMARK    3  A    between atoms: N_2  and  C_4
REMARK    4  A    between atoms: C_4  and  C_5
REMARK    5  A    between atoms: C_4  and  C_18
REMARK    6  A    between atoms: N_7  and  C_8
REMARK    7  A    between atoms: C_8  and  C_9
REMARK    8  A    between atoms: C_9  and  C_10
REMARK    9  A    between atoms: C_10  and  N_11
REMARK                            x       y       z     vdW  Elec       q    Type
REMARK                         _______ _______ _______ _____ _____    ______ ____
ROOT
ATOM      1  C   UNL     1       4.174   4.312  19.422  0.00  0.00    +0.000 C 
ATOM      2  O   UNL     1       4.613   3.164  19.471  0.00  0.00    +0.000 OA
ATOM      3  N   UNL     1       4.996   5.417  19.372  0.00  0.00    +0.000 N 
ATOM      4  H   UNL     1       4.560   6.328  19.321  0.00  0.00    +0.000 HD
ENDROOT
BRANCH   1   5
ATOM      5  C   UNL     1       2.647   4.628  19.390  0.00  0.00    +0.000 C 
BRANCH   5   6
ATOM      6  C   UNL     1       2.336   6.131  19.295  0.00  0.00    +0.000 A 
ATOM      7  C   UNL     1       1.918   6.857  20.427  0.00  0.00    +0.000 A 
ATOM      8  C   UNL     1       1.589   8.212  20.332  0.00  0.00    +0.000 A 
ATOM      9  C   UNL     1       1.706   8.864  19.115  0.00  0.00    +0.000 A 
ATOM     10  F   UNL     1       1.364  10.156  19.020  0.00  0.00    +0.000 F 
ATOM     11  C   UNL     1       2.180   8.196  17.996  0.00  0.00    +0.000 A 
ATOM     12  C   UNL     1       2.517   6.844  18.092  0.00  0.00    +0.000 A 
ENDBRANCH   5   6
BRANCH   5  14
ATOM     13  C   UNL     1       2.732   3.334  17.233  0.00  0.00    +0.000 C 
ATOM     14  N   UNL     1       1.937   3.780  18.374  0.00  0.00    +0.000 NA
ATOM     15  C   UNL     1       1.281   2.631  19.006  0.00  0.00    +0.000 C 
ENDBRANCH   5  14
ENDBRANCH   1   5
BRANCH   3  16
ATOM     16  C   UNL     1       6.428   5.318  19.340  0.00  0.00    +0.000 C 
BRANCH  16  17
ATOM     17  C   UNL     1       6.933   5.741  17.978  0.00  0.00    +0.000 C 
ATOM     18  C   UNL     1       6.235   6.897  17.286  0.00  0.00    +0.000 C 
ATOM     19  C   UNL     1       7.599   7.104  17.876  0.00  0.00    +0.000 C 
BRANCH  17  20
ATOM     20  C   UNL     1       7.508   4.628  17.111  0.00  0.00    +0.000 C 
BRANCH  20  21
ATOM     21  N   UNL     1       6.898   4.475  15.792  0.00  0.00    +0.000 N 
ATOM     22  C   UNL     1       7.387   4.874  14.579  0.00  0.00    +0.000 A 
ATOM     23  C   UNL     1       6.500   4.414  13.639  0.00  0.00    +0.000 A 
ATOM     24  C   UNL     1       5.517   3.732  14.373  0.00  0.00    +0.000 A 
ATOM     25  N   UNL     1       5.751   3.768  15.689  0.00  0.00    +0.000 NA
ENDBRANCH  20  21
ENDBRANCH  17  20
ENDBRANCH  16  17
ENDBRANCH   3  16
TORSDOF 7
ENDMDL
MODEL 4
REMARK VINA RESULT:      -7.4      1.610      3.193
REMARK  Name = 
REMARK  9 active torsions:
REMARK  status: ('A' for Active; 'I' for Inactive)
REMARK    1  A    between atoms: C_1  and  N_2
REMARK    2  A    between atoms: N_2  and  C_3
REMARK    3  A    between atoms: N_2  and  C_4
REMARK    4  A    between atoms: C_4  and  C_5
REMARK    5  A    between atoms: C_4  and  C_18
REMARK    6  A    between atoms: N_7  and  C_8
REMARK    7  A    between atoms: C_8  and  C_9
REMARK    8  A    between atoms: C_9  and  C_10
REMARK    9  A    between atoms: C_10  and  N_11
REMARK                            x       y       z     vdW  Elec       q    Type
REMARK                         _______ _______ _______ _____ _____    ______ ____
ROOT
ATOM      1  C   UNL     1       2.751   4.310  18.197  0.00  0.00    +0.000 C 
ATOM      2  O   UNL     1       1.835   4.070  17.410  0.00  0.00    +0.000 OA
ATOM      3  N   UNL     1       4.071   4.052  17.897  0.00  0.00    +0.000 N 
ATOM      4  H   UNL     1       4.767   4.287  18.592  0.00  0.00    +0.000 HD
ENDROOT
BRANCH   1   5
ATOM      5  C   UNL     1       2.509   4.948  19.600  0.00  0.00    +0.000 C 
BRANCH   5   6
ATOM      6  C   UNL     1       2.164   6.445  19.538  0.00  0.00    +0.000 A 
ATOM      7  C   UNL     1       1.613   7.107  20.652  0.00  0.00    +0.000 A 
ATOM      8  C   UNL     1       1.255   8.456  20.583  0.00  0.00    +0.000 A 
ATOM      9  C   UNL     1       1.472   9.166  19.413  0.00  0.00    +0.000 A 
ATOM     10  F   UNL     1       1.103  10.452  19.339  0.00  0.00    +0.000 F 
ATOM     11  C   UNL     1       2.076   8.562  18.320  0.00  0.00    +0.000 A 
ATOM     12  C   UNL     1       2.442   7.217  18.391  0.00  0.00    +0.000 A 
ENDBRANCH   5   6
BRANCH   5  14
ATOM     13  C   UNL     1       0.873   3.039  19.713  0.00  0.00    +0.000 C 
ATOM     14  N   UNL     1       1.555   4.122  20.415  0.00  0.00    +0.000 NA
ATOM     15  C   UNL     1       2.201   3.605  21.626  0.00  0.00    +0.000 C 
ENDBRANCH   5  14
ENDBRANCH   1   5
BRANCH   3  16
ATOM     16  C   UNL     1       4.487   3.513  16.633  0.00  0.00    +0.000 C 
BRANCH  16  17
ATOM     17  C   UNL     1       5.372   4.516  15.925  0.00  0.00    +0.000 C 
ATOM     18  C   UNL     1       6.641   4.008  15.267  0.00  0.00    +0.000 C 
ATOM     19  C   UNL     1       5.475   4.406  14.412  0.00  0.00    +0.000 C 
BRANCH  17  20
ATOM     20  C   UNL     1       5.382   5.921  16.514  0.00  0.00    +0.000 C 
BRANCH  20  21
ATOM     21  N   UNL     1       6.503   6.226  17.401  0.00  0.00    +0.000 N 
ATOM     22  C   UNL     1       7.339   7.308  17.371  0.00  0.00    +0.000 A 
ATOM     23  C   UNL     1       8.157   7.190  18.466  0.00  0.00    +0.000 A 
ATOM     24  C   UNL     1       7.731   6.018  19.110  0.00  0.00    +0.000 A 
ATOM     25  N   UNL     1       6.724   5.421  18.463  0.00  0.00    +0.000 NA
ENDBRANCH  20  21
ENDBRANCH  17  20
ENDBRANCH  16  17
ENDBRANCH   3  16
TORSDOF 7
ENDMDL
MODEL 5
REMARK VINA RESULT:      -7.2      1.355      2.886
REMARK  Name = 
REMARK  9 active torsions:
REMARK  status: ('A' for Active; 'I' for Inactive)
REMARK    1  A    between atoms: C_1  and  N_2
REMARK    2  A    between atoms: N_2  and  C_3
REMARK    3  A    between atoms: N_2  and  C_4
REMARK    4  A    between atoms: C_4  and  C_5
REMARK    5  A    between atoms: C_4  and  C_18
REMARK    6  A    between atoms: N_7  and  C_8
REMARK    7  A    between atoms: C_8  and  C_9
REMARK    8  A    between atoms: C_9  and  C_10
REMARK    9  A    between atoms: C_10  and  N_11
REMARK                            x       y       z     vdW  Elec       q    Type
REMARK                         _______ _______ _______ _____ _____    ______ ____
ROOT
ATOM      1  C   UNL     1       3.909   3.791  19.056  0.00  0.00    +0.000 C 
ATOM      2  O   UNL     1       4.796   3.133  19.599  0.00  0.00    +0.000 OA
ATOM      3  N   UNL     1       3.891   4.032  17.700  0.00  0.00    +0.000 N 
ATOM      4  H   UNL     1       3.122   4.572  17.326  0.00  0.00    +0.000 HD
ENDROOT
BRANCH   1   5
ATOM      5  C   UNL     1       2.709   4.397  19.847  0.00  0.00    +0.000 C 
BRANCH   5   6
ATOM      6  C   UNL     1       2.425   5.867  19.492  0.00  0.00    +0.000 A 
ATOM      7  C   UNL     1       2.049   6.791  20.486  0.00  0.00    +0.000 A 
ATOM      8  C   UNL     1       1.743   8.115  20.159  0.00  0.00    +0.000 A 
ATOM      9  C   UNL     1       1.842   8.538  18.844  0.00  0.00    +0.000 A 
ATOM     10  F   UNL     1       1.523   9.800  18.528  0.00  0.00    +0.000 F 
ATOM     11  C   UNL     1       2.276   7.672  17.851  0.00  0.00    +0.000 A 
ATOM     12  C   UNL     1       2.588   6.351  18.179  0.00  0.00    +0.000 A 
ENDBRANCH   5   6
BRANCH   5  14
ATOM     13  C   UNL     1       1.449   2.573  18.657  0.00  0.00    +0.000 C 
ATOM     14  N   UNL     1       1.507   3.498  19.785  0.00  0.00    +0.000 NA
ATOM     15  C   UNL     1       1.326   2.766  21.043  0.00  0.00    +0.000 C 
ENDBRANCH   5  14
ENDBRANCH   1   5
BRANCH   3  16
ATOM     16  C   UNL     1       4.886   3.509  16.807  0.00  0.00    +0.000 C 
BRANCH  16  17
ATOM     17  C   UNL     1       5.458   4.636  15.975  0.00  0.00    +0.000 C 
ATOM     18  C   UNL     1       6.704   4.356  15.155  0.00  0.00    +0.000 C 
ATOM     19  C   UNL     1       5.380   4.494  14.462  0.00  0.00    +0.000 C 
BRANCH  17  20
ATOM     20  C   UNL     1       5.274   6.037  16.544  0.00  0.00    +0.000 C 
BRANCH  20  21
ATOM     21  N   UNL     1       6.385   6.545  17.346  0.00  0.00    +0.000 N 
ATOM     22  C   UNL     1       7.038   5.928  18.379  0.00  0.00    +0.000 A 
ATOM     23  C   UNL     1       8.066   6.765  18.734  0.00  0.00    +0.000 A 
ATOM     24  C   UNL     1       7.970   7.851  17.851  0.00  0.00    +0.000 A 
ATOM     25  N   UNL     1       6.943   7.726  17.003  0.00  0.00    +0.000 NA
ENDBRANCH  20  21
ENDBRANCH  17  20
ENDBRANCH  16  17
ENDBRANCH   3  16
TORSDOF 7
ENDMDL
MODEL 6
REMARK VINA RESULT:      -7.2      1.562      2.910
REMARK  Name = 
REMARK  9 active torsions:
REMARK  status: ('A' for Active; 'I' for Inactive)
REMARK    1  A    between atoms: C_1  and  N_2
REMARK    2  A    between atoms: N_2  and  C_3
REMARK    3  A    between atoms: N_2  and  C_4
REMARK    4  A    between atoms: C_4  and  C_5
REMARK    5  A    between atoms: C_4  and  C_18
REMARK    6  A    between atoms: N_7  and  C_8
REMARK    7  A    between atoms: C_8  and  C_9
REMARK    8  A    between atoms: C_9  and  C_10
REMARK    9  A    between atoms: C_10  and  N_11
REMARK                            x       y       z     vdW  Elec       q    Type
REMARK                         _______ _______ _______ _____ _____    ______ ____
ROOT
ATOM      1  C   UNL     1       3.542   3.262  18.085  0.00  0.00    +0.000 C 
ATOM      2  O   UNL     1       2.886   2.607  17.276  0.00  0.00    +0.000 OA
ATOM      3  N   UNL     1       4.846   3.640  17.848  0.00  0.00    +0.000 N 
ATOM      4  H   UNL     1       5.315   4.188  18.556  0.00  0.00    +0.000 HD
ENDROOT
BRANCH   1   5
ATOM      5  C   UNL     1       2.955   3.749  19.447  0.00  0.00    +0.000 C 
BRANCH   5   6
ATOM      6  C   UNL     1       2.532   5.227  19.436  0.00  0.00    +0.000 A 
ATOM      7  C   UNL     1       2.489   5.958  18.233  0.00  0.00    +0.000 A 
ATOM      8  C   UNL     1       2.152   7.314  18.227  0.00  0.00    +0.000 A 
ATOM      9  C   UNL     1       1.821   7.945  19.415  0.00  0.00    +0.000 A 
ATOM     10  F   UNL     1       1.524   9.252  19.412  0.00  0.00    +0.000 F 
ATOM     11  C   UNL     1       1.787   7.238  20.608  0.00  0.00    +0.000 A 
ATOM     12  C   UNL     1       2.117   5.881  20.613  0.00  0.00    +0.000 A 
ENDBRANCH   5   6
BRANCH   5  14
ATOM     13  C   UNL     1       1.812   2.656  21.404  0.00  0.00    +0.000 C 
ATOM     14  N   UNL     1       1.904   2.803  19.954  0.00  0.00    +0.000 NA
ATOM     15  C   UNL     1       0.586   3.126  19.399  0.00  0.00    +0.000 C 
ENDBRANCH   5  14
ENDBRANCH   1   5
BRANCH   3  16
ATOM     16  C   UNL     1       5.533   3.326  16.627  0.00  0.00    +0.000 C 
BRANCH  16  17
ATOM     17  C   UNL     1       5.778   4.599  15.845  0.00  0.00    +0.000 C 
ATOM     18  C   UNL     1       6.955   4.632  14.888  0.00  0.00    +0.000 C 
ATOM     19  C   UNL     1       5.560   4.544  14.341  0.00  0.00    +0.000 C 
BRANCH  17  20
ATOM     20  C   UNL     1       5.390   5.892  16.550  0.00  0.00    +0.000 C 
BRANCH  20  21
ATOM     21  N   UNL     1       6.462   6.558  17.286  0.00  0.00    +0.000 N 
ATOM     22  C   UNL     1       7.229   6.060  18.304  0.00  0.00    +0.000 A 
ATOM     23  C   UNL     1       8.160   7.027  18.589  0.00  0.00    +0.000 A 
ATOM     24  C   UNL     1       7.893   8.064  17.683  0.00  0.00    +0.000 A 
ATOM     25  N   UNL     1       6.854   7.787  16.886  0.00  0.00    +0.000 NA
ENDBRANCH  20  21
ENDBRANCH  17  20
ENDBRANCH  16  17
ENDBRANCH   3  16
TORSDOF 7
ENDMDL
MODEL 7
REMARK VINA RESULT:      -7.1      1.559      2.902
REMARK  Name = 
REMARK  9 active torsions:
REMARK  status: ('A' for Active; 'I' for Inactive)
REMARK    1  A    between atoms: C_1  and  N_2
REMARK    2  A    between atoms: N_2  and  C_3
REMARK    3  A    between atoms: N_2  and  C_4
REMARK    4  A    between atoms: C_4  and  C_5
REMARK    5  A    between atoms: C_4  and  C_18
REMARK    6  A    between atoms: N_7  and  C_8
REMARK    7  A    between atoms: C_8  and  C_9
REMARK    8  A    between atoms: C_9  and  C_10
REMARK    9  A    between atoms: C_10  and  N_11
REMARK                            x       y       z     vdW  Elec       q    Type
REMARK                         _______ _______ _______ _____ _____    ______ ____
ROOT
ATOM      1  C   UNL     1       3.151   4.399  18.185  0.00  0.00    +0.000 C 
ATOM      2  O   UNL     1       2.172   4.012  17.547  0.00  0.00    +0.000 OA
ATOM      3  N   UNL     1       4.444   4.168  17.769  0.00  0.00    +0.000 N 
ATOM      4  H   UNL     1       5.196   4.527  18.342  0.00  0.00    +0.000 HD
ENDROOT
BRANCH   1   5
ATOM      5  C   UNL     1       3.023   5.206  19.514  0.00  0.00    +0.000 C 
BRANCH   5   6
ATOM      6  C   UNL     1       2.467   6.626  19.315  0.00  0.00    +0.000 A 
ATOM      7  C   UNL     1       2.499   7.244  18.050  0.00  0.00    +0.000 A 
ATOM      8  C   UNL     1       2.038   8.552  17.877  0.00  0.00    +0.000 A 
ATOM      9  C   UNL     1       1.510   9.243  18.955  0.00  0.00    +0.000 A 
ATOM     10  F   UNL     1       1.094  10.506  18.794  0.00  0.00    +0.000 F 
ATOM     11  C   UNL     1       1.401   8.639  20.199  0.00  0.00    +0.000 A 
ATOM     12  C   UNL     1       1.854   7.330  20.371  0.00  0.00    +0.000 A 
ENDBRANCH   5   6
BRANCH   5  14
ATOM     13  C   UNL     1       0.908   4.118  20.336  0.00  0.00    +0.000 C 
ATOM     14  N   UNL     1       2.321   4.404  20.572  0.00  0.00    +0.000 NA
ATOM     15  C   UNL     1       3.040   3.160  20.863  0.00  0.00    +0.000 C 
ENDBRANCH   5  14
ENDBRANCH   1   5
BRANCH   3  16
ATOM     16  C   UNL     1       4.754   3.486  16.544  0.00  0.00    +0.000 C 
BRANCH  16  17
ATOM     17  C   UNL     1       5.736   4.313  15.742  0.00  0.00    +0.000 C 
ATOM     18  C   UNL     1       5.489   4.466  14.253  0.00  0.00    +0.000 C 
ATOM     19  C   UNL     1       5.232   5.627  15.167  0.00  0.00    +0.000 C 
BRANCH  17  20
ATOM     20  C   UNL     1       7.178   4.284  16.231  0.00  0.00    +0.000 C 
BRANCH  20  21
ATOM     21  N   UNL     1       7.487   5.183  17.341  0.00  0.00    +0.000 N 
ATOM     22  C   UNL     1       7.581   6.547  17.328  0.00  0.00    +0.000 A 
ATOM     23  C   UNL     1       7.788   6.928  18.630  0.00  0.00    +0.000 A 
ATOM     24  C   UNL     1       7.785   5.731  19.362  0.00  0.00    +0.000 A 
ATOM     25  N   UNL     1       7.607   4.660  18.581  0.00  0.00    +0.000 NA
ENDBRANCH  20  21
ENDBRANCH  17  20
ENDBRANCH  16  17
ENDBRANCH   3  16
TORSDOF 7
ENDMDL
MODEL 8
REMARK VINA RESULT:      -7.1      1.390      2.806
REMARK  Name = 
REMARK  9 active torsions:
REMARK  status: ('A' for Active; 'I' for Inactive)
REMARK    1  A    between atoms: C_1  and  N_2
REMARK    2  A    between atoms: N_2  and  C_3
REMARK    3  A    between atoms: N_2  and  C_4
REMARK    4  A    between atoms: C_4  and  C_5
REMARK    5  A    between atoms: C_4  and  C_18
REMARK    6  A    between atoms: N_7  and  C_8
REMARK    7  A    between atoms: C_8  and  C_9
REMARK    8  A    between atoms: C_9  and  C_10
REMARK    9  A    between atoms: C_10  and  N_11
REMARK                            x       y       z     vdW  Elec       q    Type
REMARK                         _______ _______ _______ _____ _____    ______ ____
ROOT
ATOM      1  C   UNL     1       4.057   3.756  19.061  0.00  0.00    +0.000 C 
ATOM      2  O   UNL     1       4.953   3.123  19.617  0.00  0.00    +0.000 OA
ATOM      3  N   UNL     1       4.065   4.017  17.708  0.00  0.00    +0.000 N 
ATOM      4  H   UNL     1       3.286   4.534  17.322  0.00  0.00    +0.000 HD
ENDROOT
BRANCH   1   5
ATOM      5  C   UNL     1       2.813   4.304  19.827  0.00  0.00    +0.000 C 
BRANCH   5   6
ATOM      6  C   UNL     1       2.480   5.765  19.484  0.00  0.00    +0.000 A 
ATOM      7  C   UNL     1       2.561   6.233  18.158  0.00  0.00    +0.000 A 
ATOM      8  C   UNL     1       2.305   7.572  17.851  0.00  0.00    +0.000 A 
ATOM      9  C   UNL     1       1.934   8.450  18.857  0.00  0.00    +0.000 A 
ATOM     10  F   UNL     1       1.716   9.739  18.565  0.00  0.00    +0.000 F 
ATOM     11  C   UNL     1       1.779   8.007  20.162  0.00  0.00    +0.000 A 
ATOM     12  C   UNL     1       2.027   6.667  20.468  0.00  0.00    +0.000 A 
ENDBRANCH   5   6
BRANCH   5  14
ATOM     13  C   UNL     1       1.757   2.309  18.715  0.00  0.00    +0.000 C 
ATOM     14  N   UNL     1       1.651   3.359  19.724  0.00  0.00    +0.000 NA
ATOM     15  C   UNL     1       1.327   2.769  21.027  0.00  0.00    +0.000 C 
ENDBRANCH   5  14
ENDBRANCH   1   5
BRANCH   3  16
ATOM     16  C   UNL     1       5.102   3.547  16.834  0.00  0.00    +0.000 C 
BRANCH  16  17
ATOM     17  C   UNL     1       5.577   4.685  15.956  0.00  0.00    +0.000 C 
ATOM     18  C   UNL     1       6.692   4.405  14.966  0.00  0.00    +0.000 C 
ATOM     19  C   UNL     1       5.288   4.582  14.467  0.00  0.00    +0.000 C 
BRANCH  17  20
ATOM     20  C   UNL     1       5.501   6.074  16.577  0.00  0.00    +0.000 C 
BRANCH  20  21
ATOM     21  N   UNL     1       6.639   6.457  17.410  0.00  0.00    +0.000 N 
ATOM     22  C   UNL     1       7.336   7.634  17.406  0.00  0.00    +0.000 A 
ATOM     23  C   UNL     1       8.239   7.546  18.436  0.00  0.00    +0.000 A 
ATOM     24  C   UNL     1       8.002   6.292  19.018  0.00  0.00    +0.000 A 
ATOM     25  N   UNL     1       7.029   5.619  18.395  0.00  0.00    +0.000 NA
ENDBRANCH  20  21
ENDBRANCH  17  20
ENDBRANCH  16  17
ENDBRANCH   3  16
TORSDOF 7
ENDMDL
MODEL 9
REMARK VINA RESULT:      -7.0      2.171      5.805
REMARK  Name = 
REMARK  9 active torsions:
REMARK  status: ('A' for Active; 'I' for Inactive)
REMARK    1  A    between atoms: C_1  and  N_2
REMARK    2  A    between atoms: N_2  and  C_3
REMARK    3  A    between atoms: N_2  and  C_4
REMARK    4  A    between atoms: C_4  and  C_5
REMARK    5  A    between atoms: C_4  and  C_18
REMARK    6  A    between atoms: N_7  and  C_8
REMARK    7  A    between atoms: C_8  and  C_9
REMARK    8  A    between atoms: C_9  and  C_10
REMARK    9  A    between atoms: C_10  and  N_11
REMARK                            x       y       z     vdW  Elec       q    Type
REMARK                         _______ _______ _______ _____ _____    ______ ____
ROOT
ATOM      1  C   UNL     1       4.434   3.706  16.991  0.00  0.00    +0.000 C 
ATOM      2  O   UNL     1       4.673   2.500  17.030  0.00  0.00    +0.000 OA
ATOM      3  N   UNL     1       3.424   4.285  17.729  0.00  0.00    +0.000 N 
ATOM      4  H   UNL     1       3.297   5.285  17.652  0.00  0.00    +0.000 HD
ENDROOT
BRANCH   1   5
ATOM      5  C   UNL     1       5.264   4.701  16.122  0.00  0.00    +0.000 C 
BRANCH   5   6
ATOM      6  C   UNL     1       6.213   5.586  16.946  0.00  0.00    +0.000 A 
ATOM      7  C   UNL     1       6.343   6.961  16.670  0.00  0.00    +0.000 A 
ATOM      8  C   UNL     1       7.241   7.758  17.386  0.00  0.00    +0.000 A 
ATOM      9  C   UNL     1       7.993   7.198  18.406  0.00  0.00    +0.000 A 
ATOM     10  F   UNL     1       8.872   7.957  19.074  0.00  0.00    +0.000 F 
ATOM     11  C   UNL     1       7.840   5.863  18.750  0.00  0.00    +0.000 A 
ATOM     12  C   UNL     1       6.937   5.069  18.040  0.00  0.00    +0.000 A 
ENDBRANCH   5   6
BRANCH   5  14
ATOM     13  C   UNL     1       5.139   3.930  13.730  0.00  0.00    +0.000 C 
ATOM     14  N   UNL     1       5.915   3.999  14.965  0.00  0.00    +0.000 NA
ATOM     15  C   UNL     1       7.245   4.549  14.689  0.00  0.00    +0.000 C 
ENDBRANCH   5  14
ENDBRANCH   1   5
BRANCH   3  16
ATOM     16  C   UNL     1       2.590   3.534  18.624  0.00  0.00    +0.000 C 
BRANCH  16  17
ATOM     17  C   UNL     1       2.309   4.357  19.862  0.00  0.00    +0.000 C 
ATOM     18  C   UNL     1       0.898   4.350  20.418  0.00  0.00    +0.000 C 
ATOM     19  C   UNL     1       1.979   3.601  21.140  0.00  0.00    +0.000 C 
BRANCH  17  20
ATOM     20  C   UNL     1       3.132   5.631  20.009  0.00  0.00    +0.000 C 
BRANCH  20  21
ATOM     21  N   UNL     1       2.545   6.834  19.424  0.00  0.00    +0.000 N 
ATOM     22  C   UNL     1       1.836   7.823  20.049  0.00  0.00    +0.000 A 
ATOM     23  C   UNL     1       1.593   8.779  19.095  0.00  0.00    +0.000 A 
ATOM     24  C   UNL     1       2.207   8.293  17.931  0.00  0.00    +0.000 A 
ATOM     25  N   UNL     1       2.787   7.103  18.123  0.00  0.00    +0.000 NA
ENDBRANCH  20  21
ENDBRANCH  17  20
ENDBRANCH  16  17
ENDBRANCH   3  16
TORSDOF 7
ENDMDL
