MODEL 1
REMARK VINA RESULT:      -6.3      0.000      0.000
REMARK  Name = 
REMARK  14 active torsions:
REMARK  status: ('A' for Active; 'I' for Inactive)
REMARK    1  A    between atoms: C_1  and  C_2
REMARK    2  A    between atoms: C_4  and  C_5
REMARK    3  A    between atoms: C_6  and  S_7
REMARK    4  A    between atoms: S_7  and  N_10
REMARK    5  A    between atoms: N_10  and  C_11
REMARK    6  A    between atoms: N_10  and  O_15
REMARK    7  A    between atoms: C_11  and  C_12
REMARK    8  A    between atoms: C_12  and  C_13
REMARK    9  A    between atoms: C_13  and  N_14
REMARK   10  A    between atoms: O_15  and  C_16
REMARK   11  A    between atoms: C_16  and  C_17
REMARK   12  A    between atoms: C_17  and  C_18
REMARK   13  A    between atoms: C_18  and  N_19
REMARK   14  A    between atoms: C_20  and  C_21
REMARK                            x       y       z     vdW  Elec       q    Type
REMARK                         _______ _______ _______ _____ _____    ______ ____
ROOT
ATOM      1  N   UNL     1       5.801   4.790  17.229  0.00  0.00    +0.000 NA
ENDROOT
BRANCH   1   2
ATOM      2  S   UNL     1       4.519   4.319  18.396  0.00  0.00    +0.000 S 
ATOM      3  O   UNL     1       5.115   3.247  19.316  0.00  0.00    +0.000 OA
ATOM      4  O   UNL     1       3.646   3.387  17.546  0.00  0.00    +0.000 OA
BRANCH   2  10
ATOM      5  C   UNL     1       0.743   8.159  21.295  0.00  0.00    +0.000 C 
ATOM      6  C   UNL     1       1.573   7.184  20.518  0.00  0.00    +0.000 A 
ATOM      7  C   UNL     1       1.681   5.853  20.918  0.00  0.00    +0.000 A 
ATOM      8  C   UNL     1       2.511   4.959  20.228  0.00  0.00    +0.000 A 
ATOM      9  C   UNL     1       2.581   3.531  20.723  0.00  0.00    +0.000 C 
ATOM     10  C   UNL     1       3.257   5.415  19.104  0.00  0.00    +0.000 A 
ATOM     11  C   UNL     1       3.080   6.754  18.653  0.00  0.00    +0.000 A 
ATOM     12  C   UNL     1       3.733   7.352  17.431  0.00  0.00    +0.000 C 
ATOM     13  C   UNL     1       2.248   7.618  19.377  0.00  0.00    +0.000 A 
ENDBRANCH   2  10
ENDBRANCH   1   2
BRANCH   1  14
ATOM     14  C   UNL     1       7.128   4.684  17.870  0.00  0.00    +0.000 C 
BRANCH  14  15
ATOM     15  C   UNL     1       7.380   5.825  18.890  0.00  0.00    +0.000 C 
BRANCH  15  16
ATOM     16  C   UNL     1       7.962   7.105  18.280  0.00  0.00    +0.000 C 
BRANCH  16  17
ATOM     17  N   UNL     1       7.436   7.349  16.942  0.00  0.00    +0.000 NA
ATOM     18  H   UNL     1       8.173   7.116  16.237  0.00  0.00    +0.000 HD
ATOM     19  H   UNL     1       7.244   8.374  16.855  0.00  0.00    +0.000 HD
ENDBRANCH  16  17
ENDBRANCH  15  16
ENDBRANCH  14  15
ENDBRANCH   1  14
BRANCH   1  20
ATOM     20  O   UNL     1       5.796   3.936  16.157  0.00  0.00    +0.000 OA
BRANCH  20  21
ATOM     21  C   UNL     1       5.569   4.668  14.962  0.00  0.00    +0.000 C 
BRANCH  21  22
ATOM     22  C   UNL     1       6.887   4.894  14.232  0.00  0.00    +0.000 C 
BRANCH  22  23
ATOM     23  C   UNL     1       6.874   4.208  12.856  0.00  0.00    +0.000 C 
BRANCH  23  24
ATOM     24  N   UNL     1       6.212   2.911  12.939  0.00  0.00    +0.000 NA
ATOM     25  H   UNL     1       5.292   2.976  12.446  0.00  0.00    +0.000 HD
ATOM     26  H   UNL     1       6.014   2.712  13.946  0.00  0.00    +0.000 HD
ENDBRANCH  23  24
ENDBRANCH  22  23
ENDBRANCH  21  22
ENDBRANCH  20  21
ENDBRANCH   1  20
TORSDOF 11
ENDMDL
MODEL 2
REMARK VINA RESULT:      -6.3      2.173      3.584
REMARK  Name = 
REMARK  14 active torsions:
REMARK  status: ('A' for Active; 'I' for Inactive)
REMARK    1  A    between atoms: C_1  and  C_2
REMARK    2  A    between atoms: C_4  and  C_5
REMARK    3  A    between atoms: C_6  and  S_7
REMARK    4  A    between atoms: S_7  and  N_10
REMARK    5  A    between atoms: N_10  and  C_11
REMARK    6  A    between atoms: N_10  and  O_15
REMARK    7  A    between atoms: C_11  and  C_12
REMARK    8  A    between atoms: C_12  and  C_13
REMARK    9  A    between atoms: C_13  and  N_14
REMARK   10  A    between atoms: O_15  and  C_16
REMARK   11  A    between atoms: C_16  and  C_17
REMARK   12  A    between atoms: C_17  and  C_18
REMARK   13  A    between atoms: C_18  and  N_19
REMARK   14  A    between atoms: C_20  and  C_21
REMARK                            x       y       z     vdW  Elec       q    Type
REMARK                         _______ _______ _______ _____ _____    ______ ____
ROOT
ATOM      1  N   UNL     1       3.782   4.514  17.566  0.00  0.00    +0.000 NA
ENDROOT
BRANCH   1   2
ATOM      2  S   UNL     1       3.821   6.155  18.294  0.00  0.00    +0.000 S 
ATOM      3  O   UNL     1       4.635   7.051  17.351  0.00  0.00    +0.000 OA
ATOM      4  O   UNL     1       4.891   5.992  19.382  0.00  0.00    +0.000 OA
BRANCH   2  10
ATOM      5  C   UNL     1      -0.163   9.016  21.949  0.00  0.00    +0.000 C 
ATOM      6  C   UNL     1       0.718   8.265  20.997  0.00  0.00    +0.000 A 
ATOM      7  C   UNL     1       1.130   6.963  21.273  0.00  0.00    +0.000 A 
ATOM      8  C   UNL     1       2.008   6.288  20.414  0.00  0.00    +0.000 A 
ATOM      9  C   UNL     1       2.415   4.878  20.782  0.00  0.00    +0.000 C 
ATOM     10  C   UNL     1       2.488   6.941  19.243  0.00  0.00    +0.000 A 
ATOM     11  C   UNL     1       2.000   8.241  18.925  0.00  0.00    +0.000 A 
ATOM     12  C   UNL     1       2.349   9.019  17.681  0.00  0.00    +0.000 C 
ATOM     13  C   UNL     1       1.131   8.884  19.817  0.00  0.00    +0.000 A 
ENDBRANCH   2  10
ENDBRANCH   1   2
BRANCH   1  14
ATOM     14  C   UNL     1       2.387   4.030  17.493  0.00  0.00    +0.000 C 
BRANCH  14  15
ATOM     15  C   UNL     1       2.299   2.482  17.533  0.00  0.00    +0.000 C 
BRANCH  15  16
ATOM     16  C   UNL     1       2.809   1.851  18.833  0.00  0.00    +0.000 C 
BRANCH  16  17
ATOM     17  N   UNL     1       4.264   1.906  18.922  0.00  0.00    +0.000 NA
ATOM     18  H   UNL     1       4.648   0.936  18.845  0.00  0.00    +0.000 HD
ATOM     19  H   UNL     1       4.512   2.258  19.876  0.00  0.00    +0.000 HD
ENDBRANCH  16  17
ENDBRANCH  15  16
ENDBRANCH  14  15
ENDBRANCH   1  14
BRANCH   1  20
ATOM     20  O   UNL     1       4.267   4.557  16.285  0.00  0.00    +0.000 OA
BRANCH  20  21
ATOM     21  C   UNL     1       5.407   3.718  16.175  0.00  0.00    +0.000 C 
BRANCH  21  22
ATOM     22  C   UNL     1       6.661   4.566  16.005  0.00  0.00    +0.000 C 
BRANCH  22  23
ATOM     23  C   UNL     1       7.474   4.607  17.310  0.00  0.00    +0.000 C 
BRANCH  23  24
ATOM     24  N   UNL     1       6.695   4.058  18.413  0.00  0.00    +0.000 NA
ATOM     25  H   UNL     1       6.106   3.275  18.046  0.00  0.00    +0.000 HD
ATOM     26  H   UNL     1       6.047   4.803  18.756  0.00  0.00    +0.000 HD
ENDBRANCH  23  24
ENDBRANCH  22  23
ENDBRANCH  21  22
ENDBRANCH  20  21
ENDBRANCH   1  20
TORSDOF 11
ENDMDL
MODEL 3
REMARK VINA RESULT:      -6.3      2.648      6.178
REMARK  Name = 
REMARK  14 active torsions:
REMARK  status: ('A' for Active; 'I' for Inactive)
REMARK    1  A    between atoms: C_1  and  C_2
REMARK    2  A    between atoms: C_4  and  C_5
REMARK    3  A    between atoms: C_6  and  S_7
REMARK    4  A    between atoms: S_7  and  N_10
REMARK    5  A    between atoms: N_10  and  C_11
REMARK    6  A    between atoms: N_10  and  O_15
REMARK    7  A    between atoms: C_11  and  C_12
REMARK    8  A    between atoms: C_12  and  C_13
REMARK    9  A    between atoms: C_13  and  N_14
REMARK   10  A    between atoms: O_15  and  C_16
REMARK   11  A    between atoms: C_16  and  C_17
REMARK   12  A    between atoms: C_17  and  C_18
REMARK   13  A    between atoms: C_18  and  N_19
REMARK   14  A    between atoms: C_20  and  C_21
REMARK                            x       y       z     vdW  Elec       q    Type
REMARK                         _______ _______ _______ _____ _____    ______ ____
ROOT
ATOM      1  N   UNL     1       3.612   5.642  19.628  0.00  0.00    +0.000 NA
ENDROOT
BRANCH   1   2
ATOM      2  S   UNL     1       4.986   4.599  19.128  0.00  0.00    +0.000 S 
ATOM      3  O   UNL     1       4.859   3.280  19.900  0.00  0.00    +0.000 OA
ATOM      4  O   UNL     1       6.144   5.193  19.940  0.00  0.00    +0.000 OA
BRANCH   2  10
ATOM      5  C   UNL     1       7.022   4.849  13.366  0.00  0.00    +0.000 C 
ATOM      6  C   UNL     1       6.592   4.689  14.792  0.00  0.00    +0.000 A 
ATOM      7  C   UNL     1       5.503   3.887  15.129  0.00  0.00    +0.000 A 
ATOM      8  C   UNL     1       5.062   3.792  16.455  0.00  0.00    +0.000 A 
ATOM      9  C   UNL     1       3.869   2.906  16.744  0.00  0.00    +0.000 C 
ATOM     10  C   UNL     1       5.732   4.526  17.475  0.00  0.00    +0.000 A 
ATOM     11  C   UNL     1       6.893   5.279  17.136  0.00  0.00    +0.000 A 
ATOM     12  C   UNL     1       7.754   6.034  18.118  0.00  0.00    +0.000 C 
ATOM     13  C   UNL     1       7.294   5.355  15.796  0.00  0.00    +0.000 A 
ENDBRANCH   2  10
ENDBRANCH   1   2
BRANCH   1  14
ATOM     14  C   UNL     1       2.791   5.990  18.449  0.00  0.00    +0.000 C 
BRANCH  14  15
ATOM     15  C   UNL     1       3.280   7.288  17.755  0.00  0.00    +0.000 C 
BRANCH  15  16
ATOM     16  C   UNL     1       2.426   8.526  18.049  0.00  0.00    +0.000 C 
BRANCH  16  17
ATOM     17  N   UNL     1       1.758   8.423  19.341  0.00  0.00    +0.000 NA
ATOM     18  H   UNL     1       1.095   7.613  19.319  0.00  0.00    +0.000 HD
ATOM     19  H   UNL     1       1.181   9.286  19.473  0.00  0.00    +0.000 HD
ENDBRANCH  16  17
ENDBRANCH  15  16
ENDBRANCH  14  15
ENDBRANCH   1  14
BRANCH   1  20
ATOM     20  O   UNL     1       2.802   4.964  20.502  0.00  0.00    +0.000 OA
BRANCH  20  21
ATOM     21  C   UNL     1       1.570   4.651  19.869  0.00  0.00    +0.000 C 
BRANCH  21  22
ATOM     22  C   UNL     1       1.218   3.189  20.114  0.00  0.00    +0.000 C 
BRANCH  22  23
ATOM     23  C   UNL     1       1.387   2.828  21.600  0.00  0.00    +0.000 C 
BRANCH  23  24
ATOM     24  N   UNL     1       2.777   2.496  21.889  0.00  0.00    +0.000 NA
ATOM     25  H   UNL     1       3.075   1.728  21.245  0.00  0.00    +0.000 HD
ATOM     26  H   UNL     1       2.826   2.124  22.864  0.00  0.00    +0.000 HD
ENDBRANCH  23  24
ENDBRANCH  22  23
ENDBRANCH  21  22
ENDBRANCH  20  21
ENDBRANCH   1  20
TORSDOF 11
ENDMDL
MODEL 4
REMARK VINA RESULT:      -6.3      1.008      1.069
REMARK  Name = 
REMARK  14 active torsions:
REMARK  status: ('A' for Active; 'I' for Inactive)
REMARK    1  A    between atoms: C_1  and  C_2
REMARK    2  A    between atoms: C_4  and  C_5
REMARK    3  A    between atoms: C_6  and  S_7
REMARK    4  A    between atoms: S_7  and  N_10
REMARK    5  A    between atoms: N_10  and  C_11
REMARK    6  A    between atoms: N_10  and  O_15
REMARK    7  A    between atoms: C_11  and  C_12
REMARK    8  A    between atoms: C_12  and  C_13
REMARK    9  A    between atoms: C_13  and  N_14
REMARK   10  A    between atoms: O_15  and  C_16
REMARK   11  A    between atoms: C_16  and  C_17
REMARK   12  A    between atoms: C_17  and  C_18
REMARK   13  A    between atoms: C_18  and  N_19
REMARK   14  A    between atoms: C_20  and  C_21
REMARK                            x       y       z     vdW  Elec       q    Type
REMARK                         _______ _______ _______ _____ _____    ______ ____
ROOT
ATOM      1  N   UNL     1       5.516   4.726  16.822  0.00  0.00    +0.000 NA
ENDROOT
BRANCH   1   2
ATOM      2  S   UNL     1       4.533   4.387  18.286  0.00  0.00    +0.000 S 
ATOM      3  O   UNL     1       5.420   3.596  19.255  0.00  0.00    +0.000 OA
ATOM      4  O   UNL     1       3.661   3.215  17.815  0.00  0.00    +0.000 OA
BRANCH   2  10
ATOM      5  C   UNL     1       0.776   8.205  21.238  0.00  0.00    +0.000 C 
ATOM      6  C   UNL     1       1.601   7.235  20.449  0.00  0.00    +0.000 A 
ATOM      7  C   UNL     1       1.714   5.903  20.840  0.00  0.00    +0.000 A 
ATOM      8  C   UNL     1       2.540   5.014  20.139  0.00  0.00    +0.000 A 
ATOM      9  C   UNL     1       2.617   3.583  20.627  0.00  0.00    +0.000 C 
ATOM     10  C   UNL     1       3.275   5.477  19.011  0.00  0.00    +0.000 A 
ATOM     11  C   UNL     1       3.092   6.818  18.568  0.00  0.00    +0.000 A 
ATOM     12  C   UNL     1       3.733   7.423  17.343  0.00  0.00    +0.000 C 
ATOM     13  C   UNL     1       2.265   7.676  19.304  0.00  0.00    +0.000 A 
ENDBRANCH   2  10
ENDBRANCH   1   2
BRANCH   1  14
ATOM     14  C   UNL     1       6.954   4.618  17.146  0.00  0.00    +0.000 C 
BRANCH  14  15
ATOM     15  C   UNL     1       7.587   5.995  17.477  0.00  0.00    +0.000 C 
BRANCH  15  16
ATOM     16  C   UNL     1       7.651   6.322  18.973  0.00  0.00    +0.000 C 
BRANCH  16  17
ATOM     17  N   UNL     1       8.208   5.214  19.741  0.00  0.00    +0.000 NA
ATOM     18  H   UNL     1       7.573   5.004  20.547  0.00  0.00    +0.000 HD
ATOM     19  H   UNL     1       9.120   5.531  20.144  0.00  0.00    +0.000 HD
ENDBRANCH  16  17
ENDBRANCH  15  16
ENDBRANCH  14  15
ENDBRANCH   1  14
BRANCH   1  20
ATOM     20  O   UNL     1       5.247   3.799  15.849  0.00  0.00    +0.000 OA
BRANCH  20  21
ATOM     21  C   UNL     1       6.212   3.897  14.813  0.00  0.00    +0.000 C 
BRANCH  21  22
ATOM     22  C   UNL     1       5.519   3.903  13.456  0.00  0.00    +0.000 C 
BRANCH  22  23
ATOM     23  C   UNL     1       6.495   3.487  12.343  0.00  0.00    +0.000 C 
BRANCH  23  24
ATOM     24  N   UNL     1       6.133   2.180  11.809  0.00  0.00    +0.000 NA
ATOM     25  H   UNL     1       6.883   1.497  12.064  0.00  0.00    +0.000 HD
ATOM     26  H   UNL     1       6.113   2.248  10.767  0.00  0.00    +0.000 HD
ENDBRANCH  23  24
ENDBRANCH  22  23
ENDBRANCH  21  22
ENDBRANCH  20  21
ENDBRANCH   1  20
TORSDOF 11
ENDMDL
MODEL 5
REMARK VINA RESULT:      -6.3      2.049      3.162
REMARK  Name = 
REMARK  14 active torsions:
REMARK  status: ('A' for Active; 'I' for Inactive)
REMARK    1  A    between atoms: C_1  and  C_2
REMARK    2  A    between atoms: C_4  and  C_5
REMARK    3  A    between atoms: C_6  and  S_7
REMARK    4  A    between atoms: S_7  and  N_10
REMARK    5  A    between atoms: N_10  and  C_11
REMARK    6  A    between atoms: N_10  and  O_15
REMARK    7  A    between atoms: C_11  and  C_12
REMARK    8  A    between atoms: C_12  and  C_13
REMARK    9  A    between atoms: C_13  and  N_14
REMARK   10  A    between atoms: O_15  and  C_16
REMARK   11  A    between atoms: C_16  and  C_17
REMARK   12  A    between atoms: C_17  and  C_18
REMARK   13  A    between atoms: C_18  and  N_19
REMARK   14  A    between atoms: C_20  and  C_21
REMARK                            x       y       z     vdW  Elec       q    Type
REMARK                         _______ _______ _______ _____ _____    ______ ____
ROOT
ATOM      1  N   UNL     1       3.989   4.139  17.412  0.00  0.00    +0.000 NA
ENDROOT
BRANCH   1   2
ATOM      2  S   UNL     1       4.120   5.645  18.382  0.00  0.00    +0.000 S 
ATOM      3  O   UNL     1       5.215   6.506  17.739  0.00  0.00    +0.000 OA
ATOM      4  O   UNL     1       4.930   5.169  19.595  0.00  0.00    +0.000 OA
BRANCH   2  10
ATOM      5  C   UNL     1       0.005   8.793  21.634  0.00  0.00    +0.000 C 
ATOM      6  C   UNL     1       0.921   7.973  20.777  0.00  0.00    +0.000 A 
ATOM      7  C   UNL     1       1.268   6.672  21.135  0.00  0.00    +0.000 A 
ATOM      8  C   UNL     1       2.176   5.931  20.367  0.00  0.00    +0.000 A 
ATOM      9  C   UNL     1       2.510   4.527  20.822  0.00  0.00    +0.000 C 
ATOM     10  C   UNL     1       2.755   6.515  19.204  0.00  0.00    +0.000 A 
ATOM     11  C   UNL     1       2.334   7.814  18.799  0.00  0.00    +0.000 A 
ATOM     12  C   UNL     1       2.792   8.524  17.549  0.00  0.00    +0.000 C 
ATOM     13  C   UNL     1       1.432   8.524  19.602  0.00  0.00    +0.000 A 
ENDBRANCH   2  10
ENDBRANCH   1   2
BRANCH   1  14
ATOM     14  C   UNL     1       2.574   3.722  17.322  0.00  0.00    +0.000 C 
BRANCH  14  15
ATOM     15  C   UNL     1       2.315   2.366  18.030  0.00  0.00    +0.000 C 
BRANCH  15  16
ATOM     16  C   UNL     1       3.562   1.494  18.208  0.00  0.00    +0.000 C 
BRANCH  16  17
ATOM     17  N   UNL     1       4.393   1.965  19.311  0.00  0.00    +0.000 NA
ATOM     18  H   UNL     1       5.367   2.124  18.961  0.00  0.00    +0.000 HD
ATOM     19  H   UNL     1       4.445   1.198  20.021  0.00  0.00    +0.000 HD
ENDBRANCH  16  17
ENDBRANCH  15  16
ENDBRANCH  14  15
ENDBRANCH   1  14
BRANCH   1  20
ATOM     20  O   UNL     1       4.430   4.364  16.134  0.00  0.00    +0.000 OA
BRANCH  20  21
ATOM     21  C   UNL     1       5.613   3.617  15.898  0.00  0.00    +0.000 C 
BRANCH  21  22
ATOM     22  C   UNL     1       6.092   3.840  14.468  0.00  0.00    +0.000 C 
BRANCH  22  23
ATOM     23  C   UNL     1       7.077   5.019  14.400  0.00  0.00    +0.000 C 
BRANCH  23  24
ATOM     24  N   UNL     1       7.263   5.605  15.722  0.00  0.00    +0.000 NA
ATOM     25  H   UNL     1       8.185   6.098  15.740  0.00  0.00    +0.000 HD
ATOM     26  H   UNL     1       7.311   4.827  16.418  0.00  0.00    +0.000 HD
ENDBRANCH  23  24
ENDBRANCH  22  23
ENDBRANCH  21  22
ENDBRANCH  20  21
ENDBRANCH   1  20
TORSDOF 11
ENDMDL
MODEL 6
REMARK VINA RESULT:      -6.2      1.290      1.360
REMARK  Name = 
REMARK  14 active torsions:
REMARK  status: ('A' for Active; 'I' for Inactive)
REMARK    1  A    between atoms: C_1  and  C_2
REMARK    2  A    between atoms: C_4  and  C_5
REMARK    3  A    between atoms: C_6  and  S_7
REMARK    4  A    between atoms: S_7  and  N_10
REMARK    5  A    between atoms: N_10  and  C_11
REMARK    6  A    between atoms: N_10  and  O_15
REMARK    7  A    between atoms: C_11  and  C_12
REMARK    8  A    between atoms: C_12  and  C_13
REMARK    9  A    between atoms: C_13  and  N_14
REMARK   10  A    between atoms: O_15  and  C_16
REMARK   11  A    between atoms: C_16  and  C_17
REMARK   12  A    between atoms: C_17  and  C_18
REMARK   13  A    between atoms: C_18  and  N_19
REMARK   14  A    between atoms: C_20  and  C_21
REMARK                            x       y       z     vdW  Elec       q    Type
REMARK                         _______ _______ _______ _____ _____    ______ ____
ROOT
ATOM      1  N   UNL     1       5.271   4.735  16.770  0.00  0.00    +0.000 NA
ENDROOT
BRANCH   1   2
ATOM      2  S   UNL     1       3.923   4.290  17.870  0.00  0.00    +0.000 S 
ATOM      3  O   UNL     1       4.310   2.972  18.553  0.00  0.00    +0.000 OA
ATOM      4  O   UNL     1       2.894   3.710  16.890  0.00  0.00    +0.000 OA
BRANCH   2  10
ATOM      5  C   UNL     1       0.943   8.177  21.533  0.00  0.00    +0.000 C 
ATOM      6  C   UNL     1       1.570   7.212  20.574  0.00  0.00    +0.000 A 
ATOM      7  C   UNL     1       1.506   5.838  20.791  0.00  0.00    +0.000 A 
ATOM      8  C   UNL     1       2.150   4.941  19.928  0.00  0.00    +0.000 A 
ATOM      9  C   UNL     1       2.042   3.463  20.231  0.00  0.00    +0.000 C 
ATOM     10  C   UNL     1       2.882   5.440  18.813  0.00  0.00    +0.000 A 
ATOM     11  C   UNL     1       2.875   6.840  18.550  0.00  0.00    +0.000 A 
ATOM     12  C   UNL     1       3.529   7.505  17.364  0.00  0.00    +0.000 C 
ATOM     13  C   UNL     1       2.227   7.702  19.445  0.00  0.00    +0.000 A 
ENDBRANCH   2  10
ENDBRANCH   1   2
BRANCH   1  14
ATOM     14  C   UNL     1       6.559   4.632  17.487  0.00  0.00    +0.000 C 
BRANCH  14  15
ATOM     15  C   UNL     1       6.571   5.465  18.795  0.00  0.00    +0.000 C 
BRANCH  15  16
ATOM     16  C   UNL     1       7.970   5.832  19.302  0.00  0.00    +0.000 C 
BRANCH  16  17
ATOM     17  N   UNL     1       8.191   5.351  20.661  0.00  0.00    +0.000 NA
ATOM     18  H   UNL     1       8.407   4.327  20.630  0.00  0.00    +0.000 HD
ATOM     19  H   UNL     1       7.294   5.458  21.189  0.00  0.00    +0.000 HD
ENDBRANCH  16  17
ENDBRANCH  15  16
ENDBRANCH  14  15
ENDBRANCH   1  14
BRANCH   1  20
ATOM     20  O   UNL     1       5.322   3.863  15.713  0.00  0.00    +0.000 OA
BRANCH  20  21
ATOM     21  C   UNL     1       6.434   4.175  14.888  0.00  0.00    +0.000 C 
BRANCH  21  22
ATOM     22  C   UNL     1       6.144   3.768  13.449  0.00  0.00    +0.000 C 
BRANCH  22  23
ATOM     23  C   UNL     1       7.147   4.423  12.484  0.00  0.00    +0.000 C 
BRANCH  23  24
ATOM     24  N   UNL     1       7.893   5.477  13.161  0.00  0.00    +0.000 NA
ATOM     25  H   UNL     1       7.740   6.374  12.646  0.00  0.00    +0.000 HD
ATOM     26  H   UNL     1       8.910   5.248  13.096  0.00  0.00    +0.000 HD
ENDBRANCH  23  24
ENDBRANCH  22  23
ENDBRANCH  21  22
ENDBRANCH  20  21
ENDBRANCH   1  20
TORSDOF 11
ENDMDL
MODEL 7
REMARK VINA RESULT:      -6.1      1.102      3.567
REMARK  Name = 
REMARK  14 active torsions:
REMARK  status: ('A' for Active; 'I' for Inactive)
REMARK    1  A    between atoms: C_1  and  C_2
REMARK    2  A    between atoms: C_4  and  C_5
REMARK    3  A    between atoms: C_6  and  S_7
REMARK    4  A    between atoms: S_7  and  N_10
REMARK    5  A    between atoms: N_10  and  C_11
REMARK    6  A    between atoms: N_10  and  O_15
REMARK    7  A    between atoms: C_11  and  C_12
REMARK    8  A    between atoms: C_12  and  C_13
REMARK    9  A    between atoms: C_13  and  N_14
REMARK   10  A    between atoms: O_15  and  C_16
REMARK   11  A    between atoms: C_16  and  C_17
REMARK   12  A    between atoms: C_17  and  C_18
REMARK   13  A    between atoms: C_18  and  N_19
REMARK   14  A    between atoms: C_20  and  C_21
REMARK                            x       y       z     vdW  Elec       q    Type
REMARK                         _______ _______ _______ _____ _____    ______ ____
ROOT
ATOM      1  N   UNL     1       5.373   3.953  16.728  0.00  0.00    +0.000 NA
ENDROOT
BRANCH   1   2
ATOM      2  S   UNL     1       3.899   3.787  17.741  0.00  0.00    +0.000 S 
ATOM      3  O   UNL     1       3.824   2.324  18.198  0.00  0.00    +0.000 OA
ATOM      4  O   UNL     1       2.793   3.719  16.680  0.00  0.00    +0.000 OA
BRANCH   2  10
ATOM      5  C   UNL     1       1.015   7.994  21.116  0.00  0.00    +0.000 C 
ATOM      6  C   UNL     1       1.823   6.993  20.349  0.00  0.00    +0.000 A 
ATOM      7  C   UNL     1       2.494   7.353  19.182  0.00  0.00    +0.000 A 
ATOM      8  C   UNL     1       3.194   6.400  18.430  0.00  0.00    +0.000 A 
ATOM      9  C   UNL     1       3.893   6.864  17.171  0.00  0.00    +0.000 C 
ATOM     10  C   UNL     1       3.219   5.043  18.861  0.00  0.00    +0.000 A 
ATOM     11  C   UNL     1       2.600   4.698  20.097  0.00  0.00    +0.000 A 
ATOM     12  C   UNL     1       2.619   3.325  20.723  0.00  0.00    +0.000 C 
ATOM     13  C   UNL     1       1.903   5.680  20.812  0.00  0.00    +0.000 A 
ENDBRANCH   2  10
ENDBRANCH   1   2
BRANCH   1  14
ATOM     14  C   UNL     1       4.990   4.190  15.320  0.00  0.00    +0.000 C 
BRANCH  14  15
ATOM     15  C   UNL     1       6.092   3.737  14.327  0.00  0.00    +0.000 C 
BRANCH  15  16
ATOM     16  C   UNL     1       6.960   4.875  13.779  0.00  0.00    +0.000 C 
BRANCH  16  17
ATOM     17  N   UNL     1       7.714   5.534  14.839  0.00  0.00    +0.000 NA
ATOM     18  H   UNL     1       8.193   4.807  15.420  0.00  0.00    +0.000 HD
ATOM     19  H   UNL     1       7.030   6.021  15.463  0.00  0.00    +0.000 HD
ENDBRANCH  16  17
ENDBRANCH  15  16
ENDBRANCH  14  15
ENDBRANCH   1  14
BRANCH   1  20
ATOM     20  O   UNL     1       6.105   5.036  17.139  0.00  0.00    +0.000 OA
BRANCH  20  21
ATOM     21  C   UNL     1       6.916   4.673  18.247  0.00  0.00    +0.000 C 
BRANCH  21  22
ATOM     22  C   UNL     1       7.147   5.885  19.141  0.00  0.00    +0.000 C 
BRANCH  22  23
ATOM     23  C   UNL     1       8.083   6.896  18.458  0.00  0.00    +0.000 C 
BRANCH  23  24
ATOM     24  N   UNL     1       7.427   7.500  17.305  0.00  0.00    +0.000 NA
ATOM     25  H   UNL     1       8.078   7.449  16.488  0.00  0.00    +0.000 HD
ATOM     26  H   UNL     1       7.268   8.512  17.515  0.00  0.00    +0.000 HD
ENDBRANCH  23  24
ENDBRANCH  22  23
ENDBRANCH  21  22
ENDBRANCH  20  21
ENDBRANCH   1  20
TORSDOF 11
ENDMDL
MODEL 8
REMARK VINA RESULT:      -6.1      2.569      6.133
REMARK  Name = 
REMARK  14 active torsions:
REMARK  status: ('A' for Active; 'I' for Inactive)
REMARK    1  A    between atoms: C_1  and  C_2
REMARK    2  A    between atoms: C_4  and  C_5
REMARK    3  A    between atoms: C_6  and  S_7
REMARK    4  A    between atoms: S_7  and  N_10
REMARK    5  A    between atoms: N_10  and  C_11
REMARK    6  A    between atoms: N_10  and  O_15
REMARK    7  A    between atoms: C_11  and  C_12
REMARK    8  A    between atoms: C_12  and  C_13
REMARK    9  A    between atoms: C_13  and  N_14
REMARK   10  A    between atoms: O_15  and  C_16
REMARK   11  A    between atoms: C_16  and  C_17
REMARK   12  A    between atoms: C_17  and  C_18
REMARK   13  A    between atoms: C_18  and  N_19
REMARK   14  A    between atoms: C_20  and  C_21
REMARK                            x       y       z     vdW  Elec       q    Type
REMARK                         _______ _______ _______ _____ _____    ______ ____
ROOT
ATOM      1  N   UNL     1       3.632   5.621  19.770  0.00  0.00    +0.000 NA
ENDROOT
BRANCH   1   2
ATOM      2  S   UNL     1       5.029   4.789  19.008  0.00  0.00    +0.000 S 
ATOM      3  O   UNL     1       5.158   3.414  19.677  0.00  0.00    +0.000 OA
ATOM      4  O   UNL     1       6.217   5.461  19.709  0.00  0.00    +0.000 OA
BRANCH   2  10
ATOM      5  C   UNL     1       7.255   4.746  13.312  0.00  0.00    +0.000 C 
ATOM      6  C   UNL     1       6.646   4.854  14.676  0.00  0.00    +0.000 A 
ATOM      7  C   UNL     1       7.225   5.650  15.661  0.00  0.00    +0.000 A 
ATOM      8  C   UNL     1       6.691   5.697  16.956  0.00  0.00    +0.000 A 
ATOM      9  C   UNL     1       7.378   6.580  17.975  0.00  0.00    +0.000 C 
ATOM     10  C   UNL     1       5.540   4.920  17.271  0.00  0.00    +0.000 A 
ATOM     11  C   UNL     1       4.906   4.172  16.239  0.00  0.00    +0.000 A 
ATOM     12  C   UNL     1       3.636   3.373  16.401  0.00  0.00    +0.000 C 
ATOM     13  C   UNL     1       5.479   4.144  14.961  0.00  0.00    +0.000 A 
ENDBRANCH   2  10
ENDBRANCH   1   2
BRANCH   1  14
ATOM     14  C   UNL     1       2.672   6.045  18.729  0.00  0.00    +0.000 C 
BRANCH  14  15
ATOM     15  C   UNL     1       3.006   7.447  18.157  0.00  0.00    +0.000 C 
BRANCH  15  16
ATOM     16  C   UNL     1       1.972   8.530  18.483  0.00  0.00    +0.000 C 
BRANCH  16  17
ATOM     17  N   UNL     1       1.943   9.570  17.460  0.00  0.00    +0.000 NA
ATOM     18  H   UNL     1       2.785   9.469  16.847  0.00  0.00    +0.000 HD
ATOM     19  H   UNL     1       2.025  10.495  17.943  0.00  0.00    +0.000 HD
ENDBRANCH  16  17
ENDBRANCH  15  16
ENDBRANCH  14  15
ENDBRANCH   1  14
BRANCH   1  20
ATOM     20  O   UNL     1       2.972   4.760  20.607  0.00  0.00    +0.000 OA
BRANCH  20  21
ATOM     21  C   UNL     1       1.570   4.921  20.451  0.00  0.00    +0.000 C 
BRANCH  21  22
ATOM     22  C   UNL     1       0.875   3.570  20.571  0.00  0.00    +0.000 C 
BRANCH  22  23
ATOM     23  C   UNL     1       1.179   2.690  19.347  0.00  0.00    +0.000 C 
BRANCH  23  24
ATOM     24  N   UNL     1       2.476   2.041  19.495  0.00  0.00    +0.000 NA
ATOM     25  H   UNL     1       3.134   2.714  19.950  0.00  0.00    +0.000 HD
ATOM     26  H   UNL     1       2.848   1.837  18.539  0.00  0.00    +0.000 HD
ENDBRANCH  23  24
ENDBRANCH  22  23
ENDBRANCH  21  22
ENDBRANCH  20  21
ENDBRANCH   1  20
TORSDOF 11
ENDMDL
MODEL 9
REMARK VINA RESULT:      -6.0      2.672      6.348
REMARK  Name = 
REMARK  14 active torsions:
REMARK  status: ('A' for Active; 'I' for Inactive)
REMARK    1  A    between atoms: C_1  and  C_2
REMARK    2  A    between atoms: C_4  and  C_5
REMARK    3  A    between atoms: C_6  and  S_7
REMARK    4  A    between atoms: S_7  and  N_10
REMARK    5  A    between atoms: N_10  and  C_11
REMARK    6  A    between atoms: N_10  and  O_15
REMARK    7  A    between atoms: C_11  and  C_12
REMARK    8  A    between atoms: C_12  and  C_13
REMARK    9  A    between atoms: C_13  and  N_14
REMARK   10  A    between atoms: O_15  and  C_16
REMARK   11  A    between atoms: C_16  and  C_17
REMARK   12  A    between atoms: C_17  and  C_18
REMARK   13  A    between atoms: C_18  and  N_19
REMARK   14  A    between atoms: C_20  and  C_21
REMARK                            x       y       z     vdW  Elec       q    Type
REMARK                         _______ _______ _______ _____ _____    ______ ____
ROOT
ATOM      1  N   UNL     1       3.128   4.614  19.429  0.00  0.00    +0.000 NA
ENDROOT
BRANCH   1   2
ATOM      2  S   UNL     1       4.832   4.208  19.035  0.00  0.00    +0.000 S 
ATOM      3  O   UNL     1       5.261   3.080  19.983  0.00  0.00    +0.000 OA
ATOM      4  O   UNL     1       5.595   5.346  19.725  0.00  0.00    +0.000 OA
BRANCH   2  10
ATOM      5  C   UNL     1       7.134   4.987  13.422  0.00  0.00    +0.000 C 
ATOM      6  C   UNL     1       6.597   4.678  14.786  0.00  0.00    +0.000 A 
ATOM      7  C   UNL     1       5.273   4.281  14.965  0.00  0.00    +0.000 A 
ATOM      8  C   UNL     1       4.755   4.058  16.247  0.00  0.00    +0.000 A 
ATOM      9  C   UNL     1       3.307   3.634  16.363  0.00  0.00    +0.000 C 
ATOM     10  C   UNL     1       5.590   4.241  17.386  0.00  0.00    +0.000 A 
ATOM     11  C   UNL     1       6.963   4.567  17.192  0.00  0.00    +0.000 A 
ATOM     12  C   UNL     1       7.986   4.708  18.293  0.00  0.00    +0.000 C 
ATOM     13  C   UNL     1       7.438   4.792  15.894  0.00  0.00    +0.000 A 
ENDBRANCH   2  10
ENDBRANCH   1   2
BRANCH   1  14
ATOM     14  C   UNL     1       2.706   3.886  20.644  0.00  0.00    +0.000 C 
BRANCH  14  15
ATOM     15  C   UNL     1       1.209   3.483  20.598  0.00  0.00    +0.000 C 
BRANCH  15  16
ATOM     16  C   UNL     1       0.807   2.674  19.360  0.00  0.00    +0.000 C 
BRANCH  16  17
ATOM     17  N   UNL     1       1.851   1.732  18.973  0.00  0.00    +0.000 NA
ATOM     18  H   UNL     1       2.429   1.498  19.814  0.00  0.00    +0.000 HD
ATOM     19  H   UNL     1       2.482   2.215  18.293  0.00  0.00    +0.000 HD
ENDBRANCH  16  17
ENDBRANCH  15  16
ENDBRANCH  14  15
ENDBRANCH   1  14
BRANCH   1  20
ATOM     20  O   UNL     1       3.014   5.953  19.696  0.00  0.00    +0.000 OA
BRANCH  20  21
ATOM     21  C   UNL     1       2.560   6.636  18.536  0.00  0.00    +0.000 C 
BRANCH  21  22
ATOM     22  C   UNL     1       2.136   8.053  18.900  0.00  0.00    +0.000 C 
BRANCH  22  23
ATOM     23  C   UNL     1       2.044   8.935  17.643  0.00  0.00    +0.000 C 
BRANCH  23  24
ATOM     24  N   UNL     1       1.088  10.016  17.847  0.00  0.00    +0.000 NA
ATOM     25  H   UNL     1       0.209   9.611  18.243  0.00  0.00    +0.000 HD
ATOM     26  H   UNL     1       0.852  10.421  16.912  0.00  0.00    +0.000 HD
ENDBRANCH  23  24
ENDBRANCH  22  23
ENDBRANCH  21  22
ENDBRANCH  20  21
ENDBRANCH   1  20
TORSDOF 11
ENDMDL
