MODEL 1
REMARK VINA RESULT:      -7.1      0.000      0.000
REMARK  Name = 
REMARK  9 active torsions:
REMARK  status: ('A' for Active; 'I' for Inactive)
REMARK    1  A    between atoms: C_1  and  C_2
REMARK    2  A    between atoms: C_2  and  O_3
REMARK    3  A    between atoms: O_3  and  C_4
REMARK    4  A    between atoms: C_7  and  C_8
REMARK    5  A    between atoms: C_8  and  C_10
REMARK    6  A    between atoms: C_11  and  O_12
REMARK    7  A    between atoms: C_22  and  C_23
REMARK    8  A    between atoms: C_26  and  C_27
REMARK    9  A    between atoms: C_30  and  C_31
REMARK                            x       y       z     vdW  Elec       q    Type
REMARK                         _______ _______ _______ _____ _____    ______ ____
ROOT
ATOM      1  C   UNL     1      -1.125  12.463  21.039  0.00  0.00    +0.000 C 
ATOM      2  C   UNL     1      -1.636  12.588  22.273  0.00  0.00    +0.000 C 
ATOM      3  C   UNL     1      -3.053  12.957  22.141  0.00  0.00    +0.000 C 
ATOM      4  O   UNL     1      -3.695  13.436  23.058  0.00  0.00    +0.000 OA
ATOM      5  N   UNL     1      -3.411  12.622  20.825  0.00  0.00    +0.000 N 
ATOM      6  C   UNL     1      -4.786  12.342  20.552  0.00  0.00    +0.000 A 
ATOM      7  C   UNL     1      -5.341  12.050  19.316  0.00  0.00    +0.000 A 
ATOM      8  C   UNL     1      -6.716  11.768  19.199  0.00  0.00    +0.000 A 
ATOM      9  C   UNL     1      -7.524  11.771  20.322  0.00  0.00    +0.000 A 
ATOM     10  C   UNL     1      -6.914  12.036  21.522  0.00  0.00    +0.000 A 
ATOM     11  N   UNL     1      -5.597  12.304  21.635  0.00  0.00    +0.000 NA
ATOM     12  C   UNL     1      -2.203  12.653  19.991  0.00  0.00    +0.000 C 
ENDROOT
BRANCH  12  13
ATOM     13  C   UNL     1      -2.153  11.745  18.783  0.00  0.00    +0.000 A 
ATOM     14  C   UNL     1      -1.898  12.308  17.514  0.00  0.00    +0.000 A 
ATOM     15  C   UNL     1      -2.125  11.567  16.350  0.00  0.00    +0.000 A 
ATOM     16  C   UNL     1      -2.532  10.236  16.437  0.00  0.00    +0.000 A 
ATOM     17  C   UNL     1      -2.998   9.486  15.224  0.00  0.00    +0.000 C 
ATOM     18  C   UNL     1      -2.600   9.625  17.692  0.00  0.00    +0.000 A 
ATOM     19  C   UNL     1      -2.431  10.377  18.857  0.00  0.00    +0.000 A 
ENDBRANCH  12  13
BRANCH   1  20
ATOM     20  C   UNL     1       0.281  11.997  20.972  0.00  0.00    +0.000 C 
ATOM     21  O   UNL     1       1.115  12.677  21.575  0.00  0.00    +0.000 OA
BRANCH  20  25
ATOM     22  C   UNL     1       1.763   8.698  18.567  0.00  0.00    +0.000 A 
ATOM     23  C   UNL     1       1.771  10.000  18.086  0.00  0.00    +0.000 A 
ATOM     24  C   UNL     1       1.265  11.060  18.866  0.00  0.00    +0.000 A 
ATOM     25  C   UNL     1       0.739  10.833  20.151  0.00  0.00    +0.000 A 
ATOM     26  C   UNL     1       0.814   9.519  20.682  0.00  0.00    +0.000 A 
ATOM     27  C   UNL     1       0.413   9.081  22.070  0.00  0.00    +0.000 C 
ATOM     28  C   UNL     1       1.305   8.472  19.862  0.00  0.00    +0.000 A 
BRANCH  22  29
ATOM     29  O   UNL     1       2.207   7.582  17.911  0.00  0.00    +0.000 OA
BRANCH  29  31
ATOM     30  C   UNL     1       2.221   5.190  18.132  0.00  0.00    +0.000 C 
ATOM     31  C   UNL     1       2.703   6.512  18.714  0.00  0.00    +0.000 C 
ENDBRANCH  29  31
ENDBRANCH  22  29
ENDBRANCH  20  25
ENDBRANCH   1  20
BRANCH   2  32
ATOM     32  O   UNL     1      -1.055  12.320  23.484  0.00  0.00    +0.000 OA
ATOM     33  H   UNL     1      -0.105  12.141  23.308  0.00  0.00    +0.000 HD
ENDBRANCH   2  32
TORSDOF 6
ENDMDL
MODEL 2
REMARK VINA RESULT:      -6.9      2.332      4.056
REMARK  Name = 
REMARK  9 active torsions:
REMARK  status: ('A' for Active; 'I' for Inactive)
REMARK    1  A    between atoms: C_1  and  C_2
REMARK    2  A    between atoms: C_2  and  O_3
REMARK    3  A    between atoms: O_3  and  C_4
REMARK    4  A    between atoms: C_7  and  C_8
REMARK    5  A    between atoms: C_8  and  C_10
REMARK    6  A    between atoms: C_11  and  O_12
REMARK    7  A    between atoms: C_22  and  C_23
REMARK    8  A    between atoms: C_26  and  C_27
REMARK    9  A    between atoms: C_30  and  C_31
REMARK                            x       y       z     vdW  Elec       q    Type
REMARK                         _______ _______ _______ _____ _____    ______ ____
ROOT
ATOM      1  C   UNL     1      -2.062  11.550  18.800  0.00  0.00    +0.000 C 
ATOM      2  C   UNL     1      -2.572  11.500  17.560  0.00  0.00    +0.000 C 
ATOM      3  C   UNL     1      -4.035  11.610  17.668  0.00  0.00    +0.000 C 
ATOM      4  O   UNL     1      -4.785  11.291  16.764  0.00  0.00    +0.000 OA
ATOM      5  N   UNL     1      -4.282  12.139  18.945  0.00  0.00    +0.000 N 
ATOM      6  C   UNL     1      -5.499  12.859  19.151  0.00  0.00    +0.000 A 
ATOM      7  C   UNL     1      -5.946  13.403  20.345  0.00  0.00    +0.000 A 
ATOM      8  C   UNL     1      -7.162  14.114  20.395  0.00  0.00    +0.000 A 
ATOM      9  C   UNL     1      -7.916  14.283  19.248  0.00  0.00    +0.000 A 
ATOM     10  C   UNL     1      -7.409  13.749  18.090  0.00  0.00    +0.000 A 
ATOM     11  N   UNL     1      -6.245  13.070  18.041  0.00  0.00    +0.000 NA
ATOM     12  C   UNL     1      -3.156  11.790  19.820  0.00  0.00    +0.000 C 
ENDROOT
BRANCH  12  13
ATOM     13  C   UNL     1      -2.833  12.723  20.965  0.00  0.00    +0.000 A 
ATOM     14  C   UNL     1      -2.357  14.021  20.677  0.00  0.00    +0.000 A 
ATOM     15  C   UNL     1      -1.781  14.806  21.680  0.00  0.00    +0.000 A 
ATOM     16  C   UNL     1      -1.741  14.340  22.995  0.00  0.00    +0.000 A 
ATOM     17  C   UNL     1      -0.936  15.048  24.045  0.00  0.00    +0.000 C 
ATOM     18  C   UNL     1      -2.381  13.139  23.312  0.00  0.00    +0.000 A 
ATOM     19  C   UNL     1      -2.906  12.328  22.304  0.00  0.00    +0.000 A 
ENDBRANCH  12  13
BRANCH   1  20
ATOM     20  C   UNL     1      -0.582  11.550  18.883  0.00  0.00    +0.000 C 
ATOM     21  O   UNL     1      -0.022  12.639  18.728  0.00  0.00    +0.000 OA
BRANCH  20  25
ATOM     22  C   UNL     1       1.964   8.054  19.285  0.00  0.00    +0.000 A 
ATOM     23  C   UNL     1       1.842   8.721  18.074  0.00  0.00    +0.000 A 
ATOM     24  C   UNL     1       0.995   9.840  17.949  0.00  0.00    +0.000 A 
ATOM     25  C   UNL     1       0.248  10.316  19.043  0.00  0.00    +0.000 A 
ATOM     26  C   UNL     1       0.440   9.693  20.304  0.00  0.00    +0.000 A 
ATOM     27  C   UNL     1      -0.172  10.111  21.620  0.00  0.00    +0.000 C 
ATOM     28  C   UNL     1       1.279   8.555  20.390  0.00  0.00    +0.000 A 
BRANCH  22  29
ATOM     29  O   UNL     1       2.735   6.952  19.538  0.00  0.00    +0.000 OA
BRANCH  29  31
ATOM     30  C   UNL     1       2.074   5.031  18.257  0.00  0.00    +0.000 C 
ATOM     31  C   UNL     1       3.099   6.144  18.420  0.00  0.00    +0.000 C 
ENDBRANCH  29  31
ENDBRANCH  22  29
ENDBRANCH  20  25
ENDBRANCH   1  20
BRANCH   2  32
ATOM     32  O   UNL     1      -1.923  11.479  16.355  0.00  0.00    +0.000 OA
ATOM     33  H   UNL     1      -1.492  12.356  16.250  0.00  0.00    +0.000 HD
ENDBRANCH   2  32
TORSDOF 6
ENDMDL
MODEL 3
REMARK VINA RESULT:      -6.9      2.320      4.178
REMARK  Name = 
REMARK  9 active torsions:
REMARK  status: ('A' for Active; 'I' for Inactive)
REMARK    1  A    between atoms: C_1  and  C_2
REMARK    2  A    between atoms: C_2  and  O_3
REMARK    3  A    between atoms: O_3  and  C_4
REMARK    4  A    between atoms: C_7  and  C_8
REMARK    5  A    between atoms: C_8  and  C_10
REMARK    6  A    between atoms: C_11  and  O_12
REMARK    7  A    between atoms: C_22  and  C_23
REMARK    8  A    between atoms: C_26  and  C_27
REMARK    9  A    between atoms: C_30  and  C_31
REMARK                            x       y       z     vdW  Elec       q    Type
REMARK                         _______ _______ _______ _____ _____    ______ ____
ROOT
ATOM      1  C   UNL     1      -1.916  11.514  18.894  0.00  0.00    +0.000 C 
ATOM      2  C   UNL     1      -2.522  11.499  17.697  0.00  0.00    +0.000 C 
ATOM      3  C   UNL     1      -3.968  11.651  17.921  0.00  0.00    +0.000 C 
ATOM      4  O   UNL     1      -4.796  11.369  17.074  0.00  0.00    +0.000 OA
ATOM      5  N   UNL     1      -4.099  12.168  19.219  0.00  0.00    +0.000 N 
ATOM      6  C   UNL     1      -5.272  12.922  19.528  0.00  0.00    +0.000 A 
ATOM      7  C   UNL     1      -5.608  13.462  20.761  0.00  0.00    +0.000 A 
ATOM      8  C   UNL     1      -6.793  14.208  20.914  0.00  0.00    +0.000 A 
ATOM      9  C   UNL     1      -7.628  14.418  19.832  0.00  0.00    +0.000 A 
ATOM     10  C   UNL     1      -7.230  13.886  18.631  0.00  0.00    +0.000 A 
ATOM     11  N   UNL     1      -6.095  13.173  18.483  0.00  0.00    +0.000 NA
ATOM     12  C   UNL     1      -2.919  11.772  19.999  0.00  0.00    +0.000 C 
ENDROOT
BRANCH  12  13
ATOM     13  C   UNL     1      -2.479  12.678  21.127  0.00  0.00    +0.000 A 
ATOM     14  C   UNL     1      -2.643  12.241  22.460  0.00  0.00    +0.000 A 
ATOM     15  C   UNL     1      -2.523  13.142  23.522  0.00  0.00    +0.000 A 
ATOM     16  C   UNL     1      -2.162  14.467  23.278  0.00  0.00    +0.000 A 
ATOM     17  C   UNL     1      -2.243  15.506  24.357  0.00  0.00    +0.000 C 
ATOM     18  C   UNL     1      -1.815  14.850  21.979  0.00  0.00    +0.000 A 
ATOM     19  C   UNL     1      -1.990  13.969  20.909  0.00  0.00    +0.000 A 
ENDBRANCH  12  13
BRANCH   1  20
ATOM     20  C   UNL     1      -0.435  11.468  18.861  0.00  0.00    +0.000 C 
ATOM     21  O   UNL     1       0.144  12.526  18.603  0.00  0.00    +0.000 OA
BRANCH  20  25
ATOM     22  C   UNL     1       2.030   7.914  19.262  0.00  0.00    +0.000 A 
ATOM     23  C   UNL     1       1.855   8.534  18.032  0.00  0.00    +0.000 A 
ATOM     24  C   UNL     1       1.033   9.673  17.909  0.00  0.00    +0.000 A 
ATOM     25  C   UNL     1       0.368  10.216  19.024  0.00  0.00    +0.000 A 
ATOM     26  C   UNL     1       0.617   9.639  20.298  0.00  0.00    +0.000 A 
ATOM     27  C   UNL     1       0.097  10.129  21.628  0.00  0.00    +0.000 C 
ATOM     28  C   UNL     1       1.427   8.480  20.382  0.00  0.00    +0.000 A 
BRANCH  22  29
ATOM     29  O   UNL     1       2.783   6.800  19.515  0.00  0.00    +0.000 OA
BRANCH  29  31
ATOM     30  C   UNL     1       1.863   4.601  19.214  0.00  0.00    +0.000 C 
ATOM     31  C   UNL     1       2.142   5.725  20.201  0.00  0.00    +0.000 C 
ENDBRANCH  29  31
ENDBRANCH  22  29
ENDBRANCH  20  25
ENDBRANCH   1  20
BRANCH   2  32
ATOM     32  O   UNL     1      -1.969  11.476  16.444  0.00  0.00    +0.000 OA
ATOM     33  H   UNL     1      -1.521  12.341  16.318  0.00  0.00    +0.000 HD
ENDBRANCH   2  32
TORSDOF 6
ENDMDL
MODEL 4
REMARK VINA RESULT:      -6.9      2.990      7.616
REMARK  Name = 
REMARK  9 active torsions:
REMARK  status: ('A' for Active; 'I' for Inactive)
REMARK    1  A    between atoms: C_1  and  C_2
REMARK    2  A    between atoms: C_2  and  O_3
REMARK    3  A    between atoms: O_3  and  C_4
REMARK    4  A    between atoms: C_7  and  C_8
REMARK    5  A    between atoms: C_8  and  C_10
REMARK    6  A    between atoms: C_11  and  O_12
REMARK    7  A    between atoms: C_22  and  C_23
REMARK    8  A    between atoms: C_26  and  C_27
REMARK    9  A    between atoms: C_30  and  C_31
REMARK                            x       y       z     vdW  Elec       q    Type
REMARK                         _______ _______ _______ _____ _____    ______ ____
ROOT
ATOM      1  C   UNL     1      -0.926  11.254  21.886  0.00  0.00    +0.000 C 
ATOM      2  C   UNL     1      -0.655  10.111  22.533  0.00  0.00    +0.000 C 
ATOM      3  C   UNL     1      -0.243   9.112  21.535  0.00  0.00    +0.000 C 
ATOM      4  O   UNL     1      -0.234   7.917  21.768  0.00  0.00    +0.000 OA
ATOM      5  N   UNL     1       0.110   9.843  20.390  0.00  0.00    +0.000 N 
ATOM      6  C   UNL     1       1.038   9.256  19.476  0.00  0.00    +0.000 A 
ATOM      7  C   UNL     1       1.464   9.793  18.270  0.00  0.00    +0.000 A 
ATOM      8  C   UNL     1       2.408   9.110  17.479  0.00  0.00    +0.000 A 
ATOM      9  C   UNL     1       2.927   7.901  17.904  0.00  0.00    +0.000 A 
ATOM     10  C   UNL     1       2.493   7.434  19.119  0.00  0.00    +0.000 A 
ATOM     11  N   UNL     1       1.590   8.087  19.878  0.00  0.00    +0.000 NA
ATOM     12  C   UNL     1      -0.620  11.117  20.408  0.00  0.00    +0.000 C 
ENDROOT
BRANCH  12  13
ATOM     13  C   UNL     1       0.016  12.308  19.727  0.00  0.00    +0.000 A 
ATOM     14  C   UNL     1       1.265  12.776  20.191  0.00  0.00    +0.000 A 
ATOM     15  C   UNL     1       1.748  14.026  19.792  0.00  0.00    +0.000 A 
ATOM     16  C   UNL     1       1.034  14.789  18.868  0.00  0.00    +0.000 A 
ATOM     17  C   UNL     1       1.401  16.217  18.590  0.00  0.00    +0.000 C 
ATOM     18  C   UNL     1      -0.103  14.241  18.267  0.00  0.00    +0.000 A 
ATOM     19  C   UNL     1      -0.619  13.020  18.705  0.00  0.00    +0.000 A 
ENDBRANCH  12  13
BRANCH   1  20
ATOM     20  C   UNL     1      -1.268  12.411  22.746  0.00  0.00    +0.000 C 
ATOM     21  O   UNL     1      -0.338  12.925  23.373  0.00  0.00    +0.000 OA
BRANCH  20  25
ATOM     22  C   UNL     1      -5.277  13.879  23.543  0.00  0.00    +0.000 A 
ATOM     23  C   UNL     1      -4.757  12.795  24.236  0.00  0.00    +0.000 A 
ATOM     24  C   UNL     1      -3.463  12.312  23.952  0.00  0.00    +0.000 A 
ATOM     25  C   UNL     1      -2.662  12.911  22.963  0.00  0.00    +0.000 A 
ATOM     26  C   UNL     1      -3.155  14.075  22.316  0.00  0.00    +0.000 A 
ATOM     27  C   UNL     1      -2.420  14.930  21.312  0.00  0.00    +0.000 C 
ATOM     28  C   UNL     1      -4.469  14.518  22.606  0.00  0.00    +0.000 A 
BRANCH  22  29
ATOM     29  O   UNL     1      -6.516  14.436  23.707  0.00  0.00    +0.000 OA
BRANCH  29  31
ATOM     30  C   UNL     1      -7.641  16.282  22.660  0.00  0.00    +0.000 C 
ATOM     31  C   UNL     1      -6.597  15.860  23.683  0.00  0.00    +0.000 C 
ENDBRANCH  29  31
ENDBRANCH  22  29
ENDBRANCH  20  25
ENDBRANCH   1  20
BRANCH   2  32
ATOM     32  O   UNL     1      -0.621   9.863  23.880  0.00  0.00    +0.000 OA
ATOM     33  H   UNL     1      -0.263  10.672  24.307  0.00  0.00    +0.000 HD
ENDBRANCH   2  32
TORSDOF 6
ENDMDL
MODEL 5
REMARK VINA RESULT:      -6.8      2.187      4.149
REMARK  Name = 
REMARK  9 active torsions:
REMARK  status: ('A' for Active; 'I' for Inactive)
REMARK    1  A    between atoms: C_1  and  C_2
REMARK    2  A    between atoms: C_2  and  O_3
REMARK    3  A    between atoms: O_3  and  C_4
REMARK    4  A    between atoms: C_7  and  C_8
REMARK    5  A    between atoms: C_8  and  C_10
REMARK    6  A    between atoms: C_11  and  O_12
REMARK    7  A    between atoms: C_22  and  C_23
REMARK    8  A    between atoms: C_26  and  C_27
REMARK    9  A    between atoms: C_30  and  C_31
REMARK                            x       y       z     vdW  Elec       q    Type
REMARK                         _______ _______ _______ _____ _____    ______ ____
ROOT
ATOM      1  C   UNL     1      -1.280  11.154  19.044  0.00  0.00    +0.000 C 
ATOM      2  C   UNL     1      -2.025  10.971  17.944  0.00  0.00    +0.000 C 
ATOM      3  C   UNL     1      -3.428  11.233  18.298  0.00  0.00    +0.000 C 
ATOM      4  O   UNL     1      -4.360  10.857  17.611  0.00  0.00    +0.000 OA
ATOM      5  N   UNL     1      -3.386  11.965  19.496  0.00  0.00    +0.000 N 
ATOM      6  C   UNL     1      -4.490  12.819  19.801  0.00  0.00    +0.000 A 
ATOM      7  C   UNL     1      -4.660  13.573  20.952  0.00  0.00    +0.000 A 
ATOM      8  C   UNL     1      -5.793  14.394  21.108  0.00  0.00    +0.000 A 
ATOM      9  C   UNL     1      -6.745  14.463  20.106  0.00  0.00    +0.000 A 
ATOM     10  C   UNL     1      -6.509  13.720  18.978  0.00  0.00    +0.000 A 
ATOM     11  N   UNL     1      -5.423  12.934  18.827  0.00  0.00    +0.000 NA
ATOM     12  C   UNL     1      -2.135  11.644  20.195  0.00  0.00    +0.000 C 
ENDROOT
BRANCH  12  13
ATOM     13  C   UNL     1      -1.535  12.701  21.094  0.00  0.00    +0.000 A 
ATOM     14  C   UNL     1      -1.474  12.463  22.484  0.00  0.00    +0.000 A 
ATOM     15  C   UNL     1      -1.200  13.507  23.373  0.00  0.00    +0.000 A 
ATOM     16  C   UNL     1      -0.907  14.781  22.885  0.00  0.00    +0.000 A 
ATOM     17  C   UNL     1      -0.832  15.965  23.802  0.00  0.00    +0.000 C 
ATOM     18  C   UNL     1      -0.781  14.969  21.505  0.00  0.00    +0.000 A 
ATOM     19  C   UNL     1      -1.111  13.944  20.616  0.00  0.00    +0.000 A 
ENDBRANCH  12  13
BRANCH   1  20
ATOM     20  C   UNL     1       0.184  11.027  18.854  0.00  0.00    +0.000 C 
ATOM     21  O   UNL     1       0.790  12.055  18.540  0.00  0.00    +0.000 OA
BRANCH  20  25
ATOM     22  C   UNL     1       2.487   7.347  19.003  0.00  0.00    +0.000 A 
ATOM     23  C   UNL     1       2.409   8.101  17.840  0.00  0.00    +0.000 A 
ATOM     24  C   UNL     1       1.639   9.282  17.796  0.00  0.00    +0.000 A 
ATOM     25  C   UNL     1       0.929   9.731  18.924  0.00  0.00    +0.000 A 
ATOM     26  C   UNL     1       1.080   9.013  20.140  0.00  0.00    +0.000 A 
ATOM     27  C   UNL     1       0.500   9.381  21.485  0.00  0.00    +0.000 C 
ATOM     28  C   UNL     1       1.840   7.817  20.143  0.00  0.00    +0.000 A 
BRANCH  22  29
ATOM     29  O   UNL     1       3.182   6.181  19.176  0.00  0.00    +0.000 OA
BRANCH  29  31
ATOM     30  C   UNL     1       1.764   4.526  18.165  0.00  0.00    +0.000 C 
ATOM     31  C   UNL     1       3.116   5.223  18.120  0.00  0.00    +0.000 C 
ENDBRANCH  29  31
ENDBRANCH  22  29
ENDBRANCH  20  25
ENDBRANCH   1  20
BRANCH   2  32
ATOM     32  O   UNL     1      -1.626  10.712  16.659  0.00  0.00    +0.000 OA
ATOM     33  H   UNL     1      -2.294  11.123  16.068  0.00  0.00    +0.000 HD
ENDBRANCH   2  32
TORSDOF 6
ENDMDL
MODEL 6
REMARK VINA RESULT:      -6.8      7.962     10.075
REMARK  Name = 
REMARK  9 active torsions:
REMARK  status: ('A' for Active; 'I' for Inactive)
REMARK    1  A    between atoms: C_1  and  C_2
REMARK    2  A    between atoms: C_2  and  O_3
REMARK    3  A    between atoms: O_3  and  C_4
REMARK    4  A    between atoms: C_7  and  C_8
REMARK    5  A    between atoms: C_8  and  C_10
REMARK    6  A    between atoms: C_11  and  O_12
REMARK    7  A    between atoms: C_22  and  C_23
REMARK    8  A    between atoms: C_26  and  C_27
REMARK    9  A    between atoms: C_30  and  C_31
REMARK                            x       y       z     vdW  Elec       q    Type
REMARK                         _______ _______ _______ _____ _____    ______ ____
ROOT
ATOM      1  C   UNL     1       6.619  14.808  22.425  0.00  0.00    +0.000 C 
ATOM      2  C   UNL     1       5.516  14.189  22.873  0.00  0.00    +0.000 C 
ATOM      3  C   UNL     1       4.354  14.797  22.206  0.00  0.00    +0.000 C 
ATOM      4  O   UNL     1       3.217  14.669  22.623  0.00  0.00    +0.000 OA
ATOM      5  N   UNL     1       4.867  15.465  21.083  0.00  0.00    +0.000 N 
ATOM      6  C   UNL     1       3.997  15.675  19.969  0.00  0.00    +0.000 A 
ATOM      7  C   UNL     1       4.299  16.358  18.801  0.00  0.00    +0.000 A 
ATOM      8  C   UNL     1       3.346  16.465  17.770  0.00  0.00    +0.000 A 
ATOM      9  C   UNL     1       2.100  15.881  17.911  0.00  0.00    +0.000 A 
ATOM     10  C   UNL     1       1.869  15.191  19.074  0.00  0.00    +0.000 A 
ATOM     11  N   UNL     1       2.782  15.086  20.062  0.00  0.00    +0.000 NA
ATOM     12  C   UNL     1       6.268  15.817  21.350  0.00  0.00    +0.000 C 
ENDROOT
BRANCH  12  13
ATOM     13  C   UNL     1       7.209  15.919  20.172  0.00  0.00    +0.000 A 
ATOM     14  C   UNL     1       7.356  14.808  19.314  0.00  0.00    +0.000 A 
ATOM     15  C   UNL     1       8.411  14.751  18.398  0.00  0.00    +0.000 A 
ATOM     16  C   UNL     1       9.284  15.832  18.271  0.00  0.00    +0.000 A 
ATOM     17  C   UNL     1      10.547  15.719  17.469  0.00  0.00    +0.000 C 
ATOM     18  C   UNL     1       9.025  17.005  18.984  0.00  0.00    +0.000 A 
ATOM     19  C   UNL     1       8.008  17.043  19.942  0.00  0.00    +0.000 A 
ENDBRANCH  12  13
BRANCH   1  20
ATOM     20  C   UNL     1       7.904  14.260  22.918  0.00  0.00    +0.000 C 
ATOM     21  O   UNL     1       8.214  14.542  24.079  0.00  0.00    +0.000 OA
BRANCH  20  25
ATOM     22  C   UNL     1      10.568  11.992  20.344  0.00  0.00    +0.000 A 
ATOM     23  C   UNL     1       9.357  11.464  20.771  0.00  0.00    +0.000 A 
ATOM     24  C   UNL     1       8.511  12.200  21.626  0.00  0.00    +0.000 A 
ATOM     25  C   UNL     1       8.865  13.487  22.071  0.00  0.00    +0.000 A 
ATOM     26  C   UNL     1      10.058  14.066  21.563  0.00  0.00    +0.000 A 
ATOM     27  C   UNL     1      10.565  15.464  21.822  0.00  0.00    +0.000 C 
ATOM     28  C   UNL     1      10.898  13.290  20.727  0.00  0.00    +0.000 A 
BRANCH  22  29
ATOM     29  O   UNL     1      11.484  11.382  19.531  0.00  0.00    +0.000 OA
BRANCH  29  31
ATOM     30  C   UNL     1      10.669  12.007  17.359  0.00  0.00    +0.000 C 
ATOM     31  C   UNL     1      11.840  12.063  18.329  0.00  0.00    +0.000 C 
ENDBRANCH  29  31
ENDBRANCH  22  29
ENDBRANCH  20  25
ENDBRANCH   1  20
BRANCH   2  32
ATOM     32  O   UNL     1       5.405  13.104  23.700  0.00  0.00    +0.000 OA
ATOM     33  H   UNL     1       5.695  12.322  23.181  0.00  0.00    +0.000 HD
ENDBRANCH   2  32
TORSDOF 6
ENDMDL
MODEL 7
REMARK VINA RESULT:      -6.6      0.841      1.475
REMARK  Name = 
REMARK  9 active torsions:
REMARK  status: ('A' for Active; 'I' for Inactive)
REMARK    1  A    between atoms: C_1  and  C_2
REMARK    2  A    between atoms: C_2  and  O_3
REMARK    3  A    between atoms: O_3  and  C_4
REMARK    4  A    between atoms: C_7  and  C_8
REMARK    5  A    between atoms: C_8  and  C_10
REMARK    6  A    between atoms: C_11  and  O_12
REMARK    7  A    between atoms: C_22  and  C_23
REMARK    8  A    between atoms: C_26  and  C_27
REMARK    9  A    between atoms: C_30  and  C_31
REMARK                            x       y       z     vdW  Elec       q    Type
REMARK                         _______ _______ _______ _____ _____    ______ ____
ROOT
ATOM      1  C   UNL     1      -1.137  12.494  21.213  0.00  0.00    +0.000 C 
ATOM      2  C   UNL     1      -1.694  12.608  22.428  0.00  0.00    +0.000 C 
ATOM      3  C   UNL     1      -3.110  12.961  22.246  0.00  0.00    +0.000 C 
ATOM      4  O   UNL     1      -3.789  13.429  23.141  0.00  0.00    +0.000 OA
ATOM      5  N   UNL     1      -3.416  12.628  20.917  0.00  0.00    +0.000 N 
ATOM      6  C   UNL     1      -4.776  12.334  20.593  0.00  0.00    +0.000 A 
ATOM      7  C   UNL     1      -5.283  12.041  19.336  0.00  0.00    +0.000 A 
ATOM      8  C   UNL     1      -6.649  11.744  19.169  0.00  0.00    +0.000 A 
ATOM      9  C   UNL     1      -7.498  11.733  20.261  0.00  0.00    +0.000 A 
ATOM     10  C   UNL     1      -6.935  11.999  21.484  0.00  0.00    +0.000 A 
ATOM     11  N   UNL     1      -5.626  12.282  21.646  0.00  0.00    +0.000 NA
ATOM     12  C   UNL     1      -2.179  12.676  20.128  0.00  0.00    +0.000 C 
ENDROOT
BRANCH  12  13
ATOM     13  C   UNL     1      -2.074  11.774  18.919  0.00  0.00    +0.000 A 
ATOM     14  C   UNL     1      -1.836  12.351  17.652  0.00  0.00    +0.000 A 
ATOM     15  C   UNL     1      -2.017  11.603  16.485  0.00  0.00    +0.000 A 
ATOM     16  C   UNL     1      -2.360  10.252  16.567  0.00  0.00    +0.000 A 
ATOM     17  C   UNL     1      -2.779   9.483  15.349  0.00  0.00    +0.000 C 
ATOM     18  C   UNL     1      -2.408   9.637  17.821  0.00  0.00    +0.000 A 
ATOM     19  C   UNL     1      -2.286  10.394  18.988  0.00  0.00    +0.000 A 
ENDBRANCH  12  13
BRANCH   1  20
ATOM     20  C   UNL     1       0.275  12.044  21.196  0.00  0.00    +0.000 C 
ATOM     21  O   UNL     1       1.131  12.910  21.396  0.00  0.00    +0.000 OA
BRANCH  20  25
ATOM     22  C   UNL     1       1.366   7.949  20.245  0.00  0.00    +0.000 A 
ATOM     23  C   UNL     1       0.753   8.270  21.449  0.00  0.00    +0.000 A 
ATOM     24  C   UNL     1       0.425   9.606  21.757  0.00  0.00    +0.000 A 
ATOM     25  C   UNL     1       0.707  10.652  20.859  0.00  0.00    +0.000 A 
ATOM     26  C   UNL     1       1.249  10.316  19.590  0.00  0.00    +0.000 A 
ATOM     27  C   UNL     1       1.523  11.262  18.446  0.00  0.00    +0.000 C 
ATOM     28  C   UNL     1       1.590   8.967  19.323  0.00  0.00    +0.000 A 
BRANCH  22  29
ATOM     29  O   UNL     1       1.749   6.702  19.830  0.00  0.00    +0.000 OA
BRANCH  29  31
ATOM     30  C   UNL     1       1.189   4.396  20.202  0.00  0.00    +0.000 C 
ATOM     31  C   UNL     1       1.763   5.667  20.812  0.00  0.00    +0.000 C 
ENDBRANCH  29  31
ENDBRANCH  22  29
ENDBRANCH  20  25
ENDBRANCH   1  20
BRANCH   2  32
ATOM     32  O   UNL     1      -1.154  12.341  23.658  0.00  0.00    +0.000 OA
ATOM     33  H   UNL     1      -1.867  12.490  24.317  0.00  0.00    +0.000 HD
ENDBRANCH   2  32
TORSDOF 6
ENDMDL
MODEL 8
REMARK VINA RESULT:      -6.5      0.517      1.349
REMARK  Name = 
REMARK  9 active torsions:
REMARK  status: ('A' for Active; 'I' for Inactive)
REMARK    1  A    between atoms: C_1  and  C_2
REMARK    2  A    between atoms: C_2  and  O_3
REMARK    3  A    between atoms: O_3  and  C_4
REMARK    4  A    between atoms: C_7  and  C_8
REMARK    5  A    between atoms: C_8  and  C_10
REMARK    6  A    between atoms: C_11  and  O_12
REMARK    7  A    between atoms: C_22  and  C_23
REMARK    8  A    between atoms: C_26  and  C_27
REMARK    9  A    between atoms: C_30  and  C_31
REMARK                            x       y       z     vdW  Elec       q    Type
REMARK                         _______ _______ _______ _____ _____    ______ ____
ROOT
ATOM      1  C   UNL     1      -1.185  12.732  21.125  0.00  0.00    +0.000 C 
ATOM      2  C   UNL     1      -1.709  12.880  22.351  0.00  0.00    +0.000 C 
ATOM      3  C   UNL     1      -3.143  13.171  22.198  0.00  0.00    +0.000 C 
ATOM      4  O   UNL     1      -3.814  13.654  23.092  0.00  0.00    +0.000 OA
ATOM      5  N   UNL     1      -3.476  12.765  20.896  0.00  0.00    +0.000 N 
ATOM      6  C   UNL     1      -4.832  12.405  20.629  0.00  0.00    +0.000 A 
ATOM      7  C   UNL     1      -5.364  12.035  19.403  0.00  0.00    +0.000 A 
ATOM      8  C   UNL     1      -6.722  11.679  19.293  0.00  0.00    +0.000 A 
ATOM      9  C   UNL     1      -7.537  11.686  20.411  0.00  0.00    +0.000 A 
ATOM     10  C   UNL     1      -6.949  12.030  21.602  0.00  0.00    +0.000 A 
ATOM     11  N   UNL     1      -5.648  12.369  21.709  0.00  0.00    +0.000 NA
ATOM     12  C   UNL     1      -2.265  12.823  20.066  0.00  0.00    +0.000 C 
ENDROOT
BRANCH  12  13
ATOM     13  C   UNL     1      -2.161  11.871  18.897  0.00  0.00    +0.000 A 
ATOM     14  C   UNL     1      -1.877  12.389  17.615  0.00  0.00    +0.000 A 
ATOM     15  C   UNL     1      -2.055  11.601  16.474  0.00  0.00    +0.000 A 
ATOM     16  C   UNL     1      -2.441  10.266  16.601  0.00  0.00    +0.000 A 
ATOM     17  C   UNL     1      -2.856   9.461  15.404  0.00  0.00    +0.000 C 
ATOM     18  C   UNL     1      -2.536   9.703  17.876  0.00  0.00    +0.000 A 
ATOM     19  C   UNL     1      -2.417  10.502  19.015  0.00  0.00    +0.000 A 
ENDBRANCH  12  13
BRANCH   1  20
ATOM     20  C   UNL     1       0.242  12.336  21.084  0.00  0.00    +0.000 C 
ATOM     21  O   UNL     1       1.033  13.060  21.694  0.00  0.00    +0.000 OA
BRANCH  20  25
ATOM     22  C   UNL     1       1.617   8.943  18.746  0.00  0.00    +0.000 A 
ATOM     23  C   UNL     1       0.946   8.765  19.948  0.00  0.00    +0.000 A 
ATOM     24  C   UNL     1       0.526   9.874  20.710  0.00  0.00    +0.000 A 
ATOM     25  C   UNL     1       0.771  11.190  20.279  0.00  0.00    +0.000 A 
ATOM     26  C   UNL     1       1.374  11.376  19.007  0.00  0.00    +0.000 A 
ATOM     27  C   UNL     1       1.626  12.692  18.311  0.00  0.00    +0.000 C 
ATOM     28  C   UNL     1       1.808  10.241  18.279  0.00  0.00    +0.000 A 
BRANCH  22  29
ATOM     29  O   UNL     1       2.090   7.960  17.920  0.00  0.00    +0.000 OA
BRANCH  29  31
ATOM     30  C   UNL     1       3.812   6.346  17.471  0.00  0.00    +0.000 C 
ATOM     31  C   UNL     1       2.878   6.932  18.519  0.00  0.00    +0.000 C 
ENDBRANCH  29  31
ENDBRANCH  22  29
ENDBRANCH  20  25
ENDBRANCH   1  20
BRANCH   2  32
ATOM     32  O   UNL     1      -1.123  12.692  23.574  0.00  0.00    +0.000 OA
ATOM     33  H   UNL     1      -0.168  12.891  23.463  0.00  0.00    +0.000 HD
ENDBRANCH   2  32
TORSDOF 6
ENDMDL
MODEL 9
REMARK VINA RESULT:      -6.5      3.175      7.129
REMARK  Name = 
REMARK  9 active torsions:
REMARK  status: ('A' for Active; 'I' for Inactive)
REMARK    1  A    between atoms: C_1  and  C_2
REMARK    2  A    between atoms: C_2  and  O_3
REMARK    3  A    between atoms: O_3  and  C_4
REMARK    4  A    between atoms: C_7  and  C_8
REMARK    5  A    between atoms: C_8  and  C_10
REMARK    6  A    between atoms: C_11  and  O_12
REMARK    7  A    between atoms: C_22  and  C_23
REMARK    8  A    between atoms: C_26  and  C_27
REMARK    9  A    between atoms: C_30  and  C_31
REMARK                            x       y       z     vdW  Elec       q    Type
REMARK                         _______ _______ _______ _____ _____    ______ ____
ROOT
ATOM      1  C   UNL     1      -0.791  11.213  21.789  0.00  0.00    +0.000 C 
ATOM      2  C   UNL     1      -0.611  10.080  22.485  0.00  0.00    +0.000 C 
ATOM      3  C   UNL     1      -0.227   9.023  21.536  0.00  0.00    +0.000 C 
ATOM      4  O   UNL     1      -0.298   7.839  21.810  0.00  0.00    +0.000 OA
ATOM      5  N   UNL     1       0.206   9.691  20.380  0.00  0.00    +0.000 N 
ATOM      6  C   UNL     1       1.127   9.017  19.520  0.00  0.00    +0.000 A 
ATOM      7  C   UNL     1       1.624   9.483  18.312  0.00  0.00    +0.000 A 
ATOM      8  C   UNL     1       2.551   8.718  17.579  0.00  0.00    +0.000 A 
ATOM      9  C   UNL     1       2.982   7.496  18.062  0.00  0.00    +0.000 A 
ATOM     10  C   UNL     1       2.481   7.100  19.276  0.00  0.00    +0.000 A 
ATOM     11  N   UNL     1       1.594   7.833  19.981  0.00  0.00    +0.000 NA
ATOM     12  C   UNL     1      -0.445  11.006  20.329  0.00  0.00    +0.000 C 
ENDROOT
BRANCH  12  13
ATOM     13  C   UNL     1       0.284  12.131  19.630  0.00  0.00    +0.000 A 
ATOM     14  C   UNL     1       1.591  12.463  20.047  0.00  0.00    +0.000 A 
ATOM     15  C   UNL     1       2.185  13.660  19.637  0.00  0.00    +0.000 A 
ATOM     16  C   UNL     1       1.518  14.502  18.746  0.00  0.00    +0.000 A 
ATOM     17  C   UNL     1       2.021  15.887  18.463  0.00  0.00    +0.000 C 
ATOM     18  C   UNL     1       0.308  14.081  18.187  0.00  0.00    +0.000 A 
ATOM     19  C   UNL     1      -0.314  12.915  18.639  0.00  0.00    +0.000 A 
ENDBRANCH  12  13
BRANCH   1  20
ATOM     20  C   UNL     1      -1.091  12.419  22.597  0.00  0.00    +0.000 C 
ATOM     21  O   UNL     1      -1.405  12.229  23.775  0.00  0.00    +0.000 OA
BRANCH  20  25
ATOM     22  C   UNL     1      -1.041  16.426  20.921  0.00  0.00    +0.000 A 
ATOM     23  C   UNL     1       0.002  15.963  21.711  0.00  0.00    +0.000 A 
ATOM     24  C   UNL     1      -0.036  14.669  22.270  0.00  0.00    +0.000 A 
ATOM     25  C   UNL     1      -1.126  13.809  22.045  0.00  0.00    +0.000 A 
ATOM     26  C   UNL     1      -2.151  14.245  21.163  0.00  0.00    +0.000 A 
ATOM     27  C   UNL     1      -3.345  13.446  20.702  0.00  0.00    +0.000 C 
ATOM     28  C   UNL     1      -2.095  15.560  20.639  0.00  0.00    +0.000 A 
BRANCH  22  29
ATOM     29  O   UNL     1      -1.136  17.658  20.333  0.00  0.00    +0.000 OA
BRANCH  29  31
ATOM     30  C   UNL     1      -1.307  18.606  18.133  0.00  0.00    +0.000 C 
ATOM     31  C   UNL     1      -1.998  17.773  19.202  0.00  0.00    +0.000 C 
ENDBRANCH  29  31
ENDBRANCH  22  29
ENDBRANCH  20  25
ENDBRANCH   1  20
BRANCH   2  32
ATOM     32  O   UNL     1      -0.637   9.880  23.839  0.00  0.00    +0.000 OA
ATOM     33  H   UNL     1      -1.536  10.130  24.145  0.00  0.00    +0.000 HD
ENDBRANCH   2  32
TORSDOF 6
ENDMDL
